# generated using pymatgen
data_H2O
_symmetry_space_group_name_H-M   'P 1'
_cell_length_a   17.99873862
_cell_length_b   17.99712976
_cell_length_c   22.00618846
_cell_angle_alpha   89.97777117
_cell_angle_beta   90.01526867
_cell_angle_gamma   120.00831903
_symmetry_Int_Tables_number   1
_chemical_formula_structural   H2O
_chemical_formula_sum   'H384 O192'
_cell_volume   6172.83020674
_cell_formula_units_Z   192
loop_
 _symmetry_equiv_pos_site_id
 _symmetry_equiv_pos_as_xyz
  1  'x, y, z'
loop_
 _atom_type_symbol
 _atom_type_oxidation_number
  H+  1.0
  O2-  -2.0
loop_
 _atom_site_type_symbol
 _atom_site_label
 _atom_site_symmetry_multiplicity
 _atom_site_fract_x
 _atom_site_fract_y
 _atom_site_fract_z
 _atom_site_occupancy
  H+  H0  1  0.21639988  0.61345160  0.84208741  1
  H+  H1  1  0.92994550  0.84614483  0.90528055  1
  H+  H2  1  0.89539600  0.50485502  1.00184345  1
  H+  H3  1  0.90427001  0.40582838  -0.00729955  1
  H+  H4  1  0.00687603  0.62414362  0.35338122  1
  H+  H5  1  0.38069886  0.51742878  0.99151313  1
  H+  H6  1  0.22038610  0.86103204  0.16423670  1
  H+  H7  1  0.38510765  0.50101378  0.67445341  1
  H+  H8  1  0.62333757  0.71537996  -0.00112924  1
  H+  H9  1  0.62416722  0.13970601  0.33400106  1
  H+  H10  1  0.09672462  0.71789476  0.84524548  1
  H+  H11  1  0.83818471  0.17144725  0.40840180  1
  H+  H12  1  0.86928563  0.73836316  0.00649261  1
  H+  H13  1  0.57572260  0.91285966  0.77229365  1
  H+  H14  1  0.37372532  0.96896206  0.33475115  1
  H+  H15  1  0.00757412  0.63103195  0.83753822  1
  H+  H16  1  0.15592444  0.10468333  0.99014922  1
  H+  H17  1  -0.02470159  0.86605545  0.50570952  1
  H+  H18  1  0.46971322  0.06749923  0.66559501  1
  H+  H19  1  0.24483103  0.86603624  0.67592072  1
  H+  H20  1  0.12497724  0.49523720  0.34630223  1
  H+  H21  1  0.37917927  0.77606694  0.66334732  1
  H+  H22  1  0.91622608  0.06232559  0.59724401  1
  H+  H23  1  0.46805551  0.60752918  -0.00925997  1
  H+  H24  1  0.68410550  0.34140157  0.07936896  1
  H+  H25  1  0.07860175  0.14766702  0.39504927  1
  H+  H26  1  1.02534091  0.88306627  0.16739511  1
  H+  H27  1  0.12781669  0.78212492  0.50011489  1
  H+  H28  1  0.26747897  0.11988553  0.66932392  1
  H+  H29  1  0.34357377  0.98239030  -0.04617882  1
  H+  H30  1  0.89972114  0.87419830  1.00145478  1
  H+  H31  1  0.88325959  0.77806220  0.50980034  1
  H+  H32  1  0.29406995  0.05795641  1.04339248  1
  H+  H33  1  0.11544144  0.38185802  0.00436584  1
  H+  H34  1  0.61354884  0.75350946  0.35179933  1
  H+  H35  1  -0.02134975  0.37232501  0.33457937  1
  H+  H36  1  0.57233255  0.40444116  0.76985922  1
  H+  H37  1  0.56510202  0.80133420  1.07367546  1
  H+  H38  1  0.82717108  0.39329841  0.52491805  1
  H+  H39  1  0.59699774  0.91058420  0.13227269  1
  H+  H40  1  0.52190885  0.72065127  0.37675101  1
  H+  H41  1  0.51031837  0.63082444  0.50784362  1
  H+  H42  1  0.93182295  0.35523977  0.92645399  1
  H+  H43  1  0.38480598  0.85837343  0.50943211  1
  H+  H44  1  0.12755925  0.22004817  0.00491088  1
  H+  H45  1  0.63053500  0.03401762  0.97280791  1
  H+  H46  1  0.87584582  0.50383351  0.66739623  1
  H+  H47  1  0.41512840  0.84385401  0.99150285  1
  H+  H48  1  0.62331221  0.50270033  0.66001881  1
  H+  H49  1  0.13978823  0.60686717  0.17301840  1
  H+  H50  1  0.65430252  0.77425571  0.18489344  1
  H+  H51  1  0.76086730  0.63895985  0.50135936  1
  H+  H52  1  0.52151613  0.61577702  0.68464790  1
  H+  H53  1  0.02613725  0.63210491  0.16454531  1
  H+  H54  1  0.37375782  0.25755061  0.66034897  1
  H+  H55  1  0.30142887  0.38566792  0.74059659  1
  H+  H56  1  0.88922017  0.02900897  0.17549924  1
  H+  H57  1  0.88719714  0.10338634  0.50313489  1
  H+  H58  1  0.85244926  0.86184864  0.66518156  1
  H+  H59  1  0.35872673  0.39470668  0.50856145  1
  H+  H60  1  0.12253418  0.84725920  0.67085657  1
  H+  H61  1  0.25302849  0.36431251  0.67727119  1
  H+  H62  1  0.13238854  0.62747434  0.50486370  1
  H+  H63  1  0.96553608  0.15205504  0.99930775  1
  H+  H64  1  0.37533320  0.86413455  0.65979015  1
  H+  H65  1  0.62610450  0.90142189  0.34489602  1
  H+  H66  1  0.42130830  0.18435130  0.55416127  1
  H+  H67  1  0.60416924  0.14456745  -0.00326618  1
  H+  H68  1  0.60184236  0.19870654  0.77363049  1
  H+  H69  1  1.01822121  0.11935857  0.67584982  1
  H+  H70  1  0.63838839  0.85889495  0.50427441  1
  H+  H71  1  0.05309589  0.12178200  0.00904679  1
  H+  H72  1  0.35124922  0.37583643  0.00385651  1
  H+  H73  1  0.15445364  0.51952877  0.64982880  1
  H+  H74  1  0.61879407  0.47336487  0.82119398  1
  H+  H75  1  0.69157555  0.81752361  0.91673314  1
  H+  H76  1  0.58735950  0.37720665  0.11911847  1
  H+  H77  1  0.86363975  0.39234887  0.83490828  1
  H+  H78  1  0.73420522  0.12034572  0.33839844  1
  H+  H79  1  0.37208638  0.32994230  0.32025972  1
  H+  H80  1  0.60847878  0.35818573  0.50253130  1
  H+  H81  1  0.62231177  0.21888441  0.14380133  1
  H+  H82  1  0.23116614  0.10091252  0.16221667  1
  H+  H83  1  0.32981371  0.96070066  0.67211154  1
  H+  H84  1  0.52983388  0.14732809  0.82531112  1
  H+  H85  1  0.51606752  0.87740796  0.83082245  1
  H+  H86  1  0.27216633  0.37023288  0.34813454  1
  H+  H87  1  0.38326727  0.61852710  0.52469963  1
  H+  H88  1  0.92169138  0.62933822  0.36619569  1
  H+  H89  1  0.88607158  1.01465036  0.49274676  1
  H+  H90  1  0.11915704  0.97796886  0.82566436  1
  H+  H91  1  0.31748418  0.44800742  0.83737768  1
  H+  H92  1  0.85805635  0.88239099  0.38481359  1
  H+  H93  1  0.47310684  0.09658160  0.31817129  1
  H+  H94  1  0.65254840  0.62236458  0.32426889  1
  H+  H95  1  0.39294077  0.03786830  0.16201573  1
  H+  H96  1  0.17370613  0.57874365  0.59077130  1
  H+  H97  1  0.63953777  0.86564278  0.83519294  1
  H+  H98  1  0.12787406  0.36583160  0.49626834  1
  H+  H99  1  0.63968937  0.36299603  0.36771121  1
  H+  H100  1  0.12756047  0.85309047  0.85191080  1
  H+  H101  1  0.34159964  0.74562188  0.18638403  1
  H+  H102  1  0.86309838  0.88101193  0.48392724  1
  H+  H103  1  0.08795705  0.16076383  0.11073115  1
  H+  H104  1  0.58975591  0.65410994  0.77242111  1
  H+  H105  1  0.86665141  0.23255095  0.34926348  1
  H+  H106  1  0.59836558  0.88534578  0.67675975  1
  H+  H107  1  0.58587871  0.67366248  0.10048978  1
  H+  H108  1  0.87744292  0.00124261  0.83617485  1
  H+  H109  1  0.53407377  0.12949362  0.49201719  1
  H+  H110  1  0.60274307  0.62187257  0.01247387  1
  H+  H111  1  0.74603998  0.88542655  0.33839039  1
  H+  H112  1  0.36935100  0.28615653  0.50587461  1
  H+  H113  1  0.46202815  0.33699024  0.32152944  1
  H+  H114  1  0.35116529  0.19269493  0.33639645  1
  H+  H115  1  0.73517805  0.69685941  0.29520483  1
  H+  H116  1  0.94847471  0.46149470  0.62812879  1
  H+  H117  1  0.63924056  0.12420488  0.83214119  1
  H+  H118  1  0.77584311  0.14180405  0.16784660  1
  H+  H119  1  0.27059200  0.62076837  0.15268513  1
  H+  H120  1  0.12848328  0.31272712  0.30834688  1
  H+  H121  1  0.78214865  0.64778365  0.00200002  1
  H+  H122  1  0.63416118  0.76787481  0.50686706  1
  H+  H123  1  0.92257866  0.33328038  0.23600109  1
  H+  H124  1  0.59157927  0.45332198  0.34539251  1
  H+  H125  1  0.69113259  0.57091674  0.91517654  1
  H+  H126  1  0.63866292  0.10958474  0.17999906  1
  H+  H127  1  0.23670437  0.85526761  0.99428083  1
  H+  H128  1  -0.01207483  0.90802780  0.35152500  1
  H+  H129  1  0.39491743  0.11208361  0.82747523  1
  H+  H130  1  0.34346378  0.66870020  0.44544719  1
  H+  H131  1  0.64152086  -0.01686909  0.18199666  1
  H+  H132  1  0.57588244  0.47834176  -0.01041437  1
  H+  H133  1  0.64794607  0.81946853  0.60024833  1
  H+  H134  1  0.38641095  0.59972996  0.32358564  1
  H+  H135  1  0.56946140  0.82564561  0.04484235  1
  H+  H136  1  0.12323440  0.00686002  0.31588924  1
  H+  H137  1  0.80559861  0.38725670  0.13466532  1
  H+  H138  1  0.59303856  0.01696788  0.66525983  1
  H+  H139  1  0.11718718  0.40528253  0.34590394  1
  H+  H140  1  0.33465122  0.90702455  0.76437281  1
  H+  H141  1  0.59448346  0.19911350  0.30040717  1
  H+  H142  1  0.62792129  0.59414518  0.66361060  1
  H+  H143  1  0.78700221  0.88783856  0.16633498  1
  H+  H144  1  0.10689155  0.12493838  0.49563722  1
  H+  H145  1  0.36854233  0.73218822  0.50286405  1
  H+  H146  1  0.53210435  0.89077885  0.34293423  1
  H+  H147  1  0.36064140  0.22036615  0.82104656  1
  H+  H148  1  0.11176060  0.88904651  0.48959663  1
  H+  H149  1  0.18620564  0.83463843  0.89798814  1
  H+  H150  1  0.50805115  0.88192012  0.67885879  1
  H+  H151  1  0.48561281  0.39137437  1.00134982  1
  H+  H152  1  0.88415940  0.48745172  0.37302963  1
  H+  H153  1  0.99083122  0.62831788  0.99531331  1
  H+  H154  1  0.66155173  0.07923673  0.57231177  1
  H+  H155  1  -0.02503335  0.12107315  0.17477124  1
  H+  H156  1  0.77257063  0.61621481  0.64730075  1
  H+  H157  1  0.12350384  0.60739490  0.84668288  1
  H+  H158  1  0.13880657  0.51672099  0.17118540  1
  H+  H159  1  0.13454565  0.10499227  0.66426890  1
  H+  H160  1  0.60848685  0.63369973  0.15711284  1
  H+  H161  1  0.61580579  0.58698464  0.92142039  1
  H+  H162  1  0.62049998  0.11692071  0.66405678  1
  H+  H163  1  0.35058206  0.74014241  -0.00373555  1
  H+  H164  1  0.86302961  0.13902755  0.16265948  1
  H+  H165  1  0.36790308  0.34339814  0.66745669  1
  H+  H166  1  0.88396302  0.99885931  0.65392097  1
  H+  H167  1  0.87024218  0.52158598  0.84601207  1
  H+  H168  1  0.49188250  0.64913370  0.17209377  1
  H+  H169  1  0.01638327  0.12369319  0.33572706  1
  H+  H170  1  0.22720680  0.35800685  0.99344173  1
  H+  H171  1  0.12270509  0.75805197  0.67693485  1
  H+  H172  1  0.14487838  0.74146741  0.33054166  1
  H+  H173  1  0.04261967  0.38519045  0.50058107  1
  H+  H174  1  0.35870996  0.45992157  0.34510023  1
  H+  H175  1  0.12362508  0.14564070  0.83046972  1
  H+  H176  1  0.86894976  0.15035519  0.83358323  1
  H+  H177  1  0.10294494  0.96577675  0.67578291  1
  H+  H178  1  0.28316025  0.64504249  0.66729555  1
  H+  H179  1  0.22781107  0.11269685  0.83536620  1
  H+  H180  1  0.79847972  0.58713524  0.84958131  1
  H+  H181  1  0.98445488  0.86488608  0.99986180  1
  H+  H182  1  0.98984342  0.13242243  0.84721804  1
  H+  H183  1  0.28711875  0.88033258  0.33546280  1
  H+  H184  1  0.79231529  0.89726612  0.00260753  1
  H+  H185  1  0.16163113  0.62186264  0.32169793  1
  H+  H186  1  0.37747659  0.64671163  0.15973858  1
  H+  H187  1  0.22122508  0.62756585  0.50286190  1
  H+  H188  1  0.80991224  0.22756314  0.67339706  1
  H+  H189  1  0.11829000  -0.03006671  0.15989580  1
  H+  H190  1  0.11108023  0.63219888  0.00836922  1
  H+  H191  1  0.83338164  0.07638488  0.68609803  1
  H+  H192  1  0.45304278  0.58277432  0.83690611  1
  H+  H193  1  0.52461963  0.88558098  0.50049468  1
  H+  H194  1  0.45259676  0.94201997  0.18768472  1
  H+  H195  1  0.65006043  0.01956495  0.51614349  1
  H+  H196  1  0.89330364  0.28341752  0.83892154  1
  H+  H197  1  0.75547139  0.13086652  0.00753977  1
  H+  H198  1  0.52741700  0.13880430  0.15972389  1
  H+  H199  1  0.87091411  0.99335188  0.01002759  1
  H+  H200  1  0.02986425  0.85265746  0.33675780  1
  H+  H201  1  0.12997097  0.85792095  0.17041984  1
  H+  H202  1  0.77367911  0.63750169  0.15581489  1
  H+  H203  1  0.80928008  0.21565487  0.64062034  1
  H+  H204  1  0.35679755  0.72163737  0.83073429  1
  H+  H205  1  0.11795845  0.48285266  0.82667159  1
  H+  H206  1  0.90303350  0.88140911  0.84850825  1
  H+  H207  1  0.35434027  0.63652828  0.00759284  1
  H+  H208  1  0.11602966  0.71967022  0.16222497  1
  H+  H209  1  0.02827139  0.40303104  0.66917545  1
  H+  H210  1  0.50286754  0.02382068  0.55169164  1
  H+  H211  1  0.78828562  0.40151013  0.37019483  1
  H+  H212  1  0.11504397  0.96593711  0.00383359  1
  H+  H213  1  0.74930266  0.33488461  0.69480562  1
  H+  H214  1  0.65567520  0.28413233  0.36793309  1
  H+  H215  1  0.89025151  0.86545464  0.17923669  1
  H+  H216  1  0.87463189  0.62419817  0.52810846  1
  H+  H217  1  0.10222095  0.21245324  0.67528409  1
  H+  H218  1  0.33024517  0.66208503  0.08094655  1
  H+  H219  1  0.40251199  0.16499526  0.52385976  1
  H+  H220  1  0.36801531  0.34995344  0.84266869  1
  H+  H221  1  0.98428727  0.37152984  0.83546720  1
  H+  H222  1  0.12309767  0.35082730  0.66147804  1
  H+  H223  1  0.47371526  0.60323932  0.31901955  1
  H+  H224  1  0.86776447  0.53414828  0.51830954  1
  H+  H225  1  0.96852043  0.85642923  0.66264546  1
  H+  H226  1  0.14646512  0.36730611  0.17304736  1
  H+  H227  1  0.49068248  0.93553313  0.18929943  1
  H+  H228  1  0.65235137  0.56844960  0.56866159  1
  H+  H229  1  0.37093157  0.24478184  0.99214288  1
  H+  H230  1  0.03008618  0.89102445  0.83075172  1
  H+  H231  1  0.70187939  0.36019622  0.50388152  1
  H+  H232  1  0.37696241  0.72054070  0.34785625  1
  H+  H233  1  0.61064187  0.26174464  0.49319674  1
  H+  H234  1  0.17709009  0.83703504  0.25350672  1
  H+  H235  1  0.37315812  0.96434617  0.49617459  1
  H+  H236  1  0.34741397  0.62850846  0.82697766  1
  H+  H237  1  0.13050326  0.01675150  0.50653994  1
  H+  H238  1  0.64209446  0.28217044  0.85799781  1
  H+  H239  1  0.22260504  0.60788012  -0.00324355  1
  H+  H240  1  0.89884409  0.52859465  0.16904190  1
  H+  H241  1  0.57319374  0.91373068  -0.08565677  1
  H+  H242  1  0.16476356  0.87492282  0.31687716  1
  H+  H243  1  0.86639581  0.11824689  0.99899810  1
  H+  H244  1  0.25410224  0.22946303  0.44927878  1
  H+  H245  1  0.63083877  0.51862236  0.16263974  1
  H+  H246  1  0.08628340  0.41052973  0.10121519  1
  H+  H247  1  0.89388821  0.39417793  0.15522930  1
  H+  H248  1  0.68599621  0.36940858  0.15032608  1
  H+  H249  1  0.86465350  0.72826709  0.35002131  1
  H+  H250  1  0.77166693  0.38780812  0.84178408  1
  H+  H251  1  0.89309330  0.11881117  0.33061850  1
  H+  H252  1  0.37990352  0.97521446  0.81722219  1
  H+  H253  1  0.88384110  0.77329444  0.18073539  1
  H+  H254  1  0.37748744  0.52746406  0.52302233  1
  H+  H255  1  0.89373223  0.61434857  0.17075300  1
  H+  H256  1  0.38902523  0.85706671  0.83707196  1
  H+  H257  1  0.46851994  0.36322445  0.15956078  1
  H+  H258  1  0.61657860  0.27094646  0.01115827  1
  H+  H259  1  0.77320560  0.87637714  0.47545447  1
  H+  H260  1  0.60547355  0.70882723  0.67763305  1
  H+  H261  1  0.28404381  0.40302461  0.14994239  1
  H+  H262  1  0.79661733  0.63309615  0.34413910  1
  H+  H263  1  0.50811121  0.38613131  0.50176240  1
  H+  H264  1  0.89159445  0.27070436  0.17722166  1
  H+  H265  1  0.56997921  0.15492432  0.05984516  1
  H+  H266  1  0.25699989  0.11398724  0.34015304  1
  H+  H267  1  0.70897676  0.84776217  0.65592378  1
  H+  H268  1  0.36069886  0.22572395  0.14449950  1
  H+  H269  1  1.00826370  0.64482846  0.51082035  1
  H+  H270  1  0.50479195  0.36807025  0.67771223  1
  H+  H271  1  0.39194848  0.12530052  0.16467514  1
  H+  H272  1  0.63668913  1.03308239  0.83370773  1
  H+  H273  1  0.02864823  0.38098000  0.16217585  1
  H+  H274  1  0.46364292  0.36298648  0.84009444  1
  H+  H275  1  0.62208725  0.60232309  0.51108538  1
  H+  H276  1  0.63902353  0.36723536  0.85586203  1
  H+  H277  1  0.92549711  0.37081567  0.49148136  1
  H+  H278  1  0.87278197  0.22240154  0.50526856  1
  H+  H279  1  -0.00854179  0.37772754  -0.01136666  1
  H+  H280  1  0.74634154  0.78106952  0.94514988  1
  H+  H281  1  0.89887546  0.62611735  -0.00292940  1
  H+  H282  1  0.14379370  0.23806779  0.32218302  1
  H+  H283  1  0.69195211  0.84551152  0.27786152  1
  H+  H284  1  0.11221603  0.23216584  0.16024987  1
  H+  H285  1  0.73356447  0.87641849  0.82953226  1
  H+  H286  1  0.22418885  0.35174181  0.51046728  1
  H+  H287  1  0.22092123  0.86690544  0.49844332  1
  H+  H288  1  0.33279391  0.41844167  0.06249021  1
  H+  H289  1  0.40522411  0.81264276  0.28196188  1
  H+  H290  1  0.80201345  0.87397980  0.72074310  1
  H+  H291  1  0.02679695  0.65077492  0.44331900  1
  H+  H292  1  0.56478511  0.66103184  0.44571354  1
  H+  H293  1  1.01993185  0.62109373  0.68654342  1
  H+  H294  1  0.16182793  0.57669222  0.93696555  1
  H+  H295  1  0.07066264  0.66034754  0.74865289  1
  H+  H296  1  0.91648374  0.83553376  0.59924792  1
  H+  H297  1  0.51069822  0.92964317  0.06913338  1
  H+  H298  1  0.66603915  0.58279153  0.22094618  1
  H+  H299  1  0.21209451  0.11430105  0.50488527  1
  H+  H300  1  0.89022090  0.36956047  0.33811681  1
  H+  H301  1  0.55656049  0.43216074  0.08225568  1
  H+  H302  1  0.49712522  0.16121163  0.64894140  1
  H+  H303  1  0.83826104  0.67517003  0.10059073  1
  H+  H304  1  0.81409195  0.15569860  0.06949944  1
  H+  H305  1  0.90338894  0.58617496  0.90308288  1
  H+  H306  1  0.17989226  0.57771777  0.26463500  1
  H+  H307  1  0.12768798  0.09600070  0.31841488  1
  H+  H308  1  0.91453030  0.56617265  0.61062890  1
  H+  H309  1  0.58433039  0.91847269  0.44083083  1
  H+  H310  1  0.08439298  0.41817970  0.72998825  1
  H+  H311  1  0.17466731  0.32968900  0.93198890  1
  H+  H312  1  0.10329394  0.42153546  0.43852195  1
  H+  H313  1  0.07437051  0.91012408  0.73680706  1
  H+  H314  1  0.33701460  0.91314537  0.43352357  1
  H+  H315  1  0.64248775  0.91686968  0.95700281  1
  H+  H316  1  0.15263554  0.31823736  0.60330366  1
  H+  H317  1  0.77857079  0.14796537  0.82921423  1
  H+  H318  1  0.32876425  0.67748389  0.73170757  1
  H+  H319  1  0.28868779  0.63187461  0.34345030  1
  H+  H320  1  0.87796010  0.44071378  0.06169239  1
  H+  H321  1  0.67880374  0.35796811  0.97705852  1
  H+  H322  1  0.17236979  0.08083647  0.89672629  1
  H+  H323  1  0.80951554  0.11441050  0.74116534  1
  H+  H324  1  0.36881220  0.39902729  0.14923791  1
  H+  H325  1  0.69549515  0.65550933  0.82323810  1
  H+  H326  1  0.14201263  0.69428800  0.39192561  1
  H+  H327  1  0.66902903  0.34736039  0.25301916  1
  H+  H328  1  0.88766969  0.37290677  0.65398492  1
  H+  H329  1  0.66993963  0.10490506  0.92418559  1
  H+  H330  1  0.30120558  0.18190262  0.42223013  1
  H+  H331  1  0.81591757  0.39531525  0.74442290  1
  H+  H332  1  0.66276663  0.86673728  0.19120770  1
  H+  H333  1  0.07221148  0.91809269  0.43396379  1
  H+  H334  1  0.08883940  0.17030475  0.77146239  1
  H+  H335  1  0.85902955  0.70277717  0.64872750  1
  H+  H336  1  0.84283061  0.92262326  0.10478581  1
  H+  H337  1  0.41608707  0.07242727  0.88583423  1
  H+  H338  1  0.23805433  0.09097678  0.99053340  1
  H+  H339  1  0.33098069  0.15967540  0.76208785  1
  H+  H340  1  0.40152308  0.56686958  0.89830166  1
  H+  H341  1  0.36064170  0.12551571  0.66959674  1
  H+  H342  1  0.82753373  0.66816342  0.44556062  1
  H+  H343  1  0.32793702  0.41947833  0.44765267  1
  H+  H344  1  0.62284550  0.31200828  0.25047211  1
  H+  H345  1  0.30259607  0.83728572  0.96079966  1
  H+  H346  1  0.87727491  0.95661561  0.77583053  1
  H+  H347  1  0.11913251  0.47366560  0.00672370  1
  H+  H348  1  0.41504207  0.57097081  0.62187593  1
  H+  H349  1  0.42535137  0.60820272  0.22929377  1
  H+  H350  1  0.64325287  0.03038150  0.33687856  1
  H+  H351  1  0.18557324  0.33118664  0.22406617  1
  H+  H352  1  0.08318233  0.91072388  0.06549739  1
  H+  H353  1  0.41521051  0.07125642  0.25892441  1
  H+  H354  1  0.58280791  0.35172632  0.68079193  1
  H+  H355  1  0.17091371  0.07294967  0.22103883  1
  H+  H356  1  0.33304130  0.15412848  0.08844782  1
  H+  H357  1  0.39674405  0.85715977  0.34018254  1
  H+  H358  1  0.67414248  0.09087477  0.24268669  1
  H+  H359  1  0.82689790  0.41772978  0.45361695  1
  H+  H360  1  0.56882732  0.17163753  0.42513277  1
  H+  H361  1  0.78067887  0.13475678  0.50651297  1
  H+  H362  1  0.60138836  0.47400033  0.49854867  1
  H+  H363  1  0.08371651  0.66152699  0.06815429  1
  H+  H364  1  0.54311618  0.97662418  0.07198284  1
  H+  H365  1  0.94057839  0.36617278  0.56388601  1
  H+  H366  1  0.61714047  0.71864590  0.82739980  1
  H+  H367  1  0.40423750  0.32991265  0.57241762  1
  H+  H368  1  0.41500641  0.83567680  0.57273497  1
  H+  H369  1  0.92665471  0.10431566  0.90570733  1
  H+  H370  1  0.16038361  0.07400314  0.60350670  1
  H+  H371  1  0.12867950  0.39978969  0.82303527  1
  H+  H372  1  0.87471399  0.82171477  0.27065023  1
  H+  H373  1  0.16712017  0.28710738  0.83148054  1
  H+  H374  1  0.13280758  0.25737319  0.50317184  1
  H+  H375  1  0.27812623  0.75814981  0.22780536  1
  H+  H376  1  0.36808617  0.07707317  0.97522426  1
  H+  H377  1  0.02016161  0.12816273  0.48969109  1
  H+  H378  1  0.55933801  0.40487367  0.40853457  1
  H+  H379  1  0.39230228  0.30226821  0.93231363  1
  H+  H380  1  0.45362440  0.06871152  0.57334395  1
  H+  H381  1  0.91718562  0.08921629  0.26885300  1
  H+  H382  1  0.40053202  0.81487307  0.89913846  1
  H+  H383  1  0.41000781  0.32584635  0.21907471  1
  O2-  O384  1  0.07259360  0.17053543  0.15160536  1
  O2-  O385  1  0.08227242  0.15922968  0.47669891  1
  O2-  O386  1  0.09781095  0.18135207  0.81623488  1
  O2-  O387  1  0.08908314  0.41315824  0.14666137  1
  O2-  O388  1  0.10268454  0.40751855  0.48312553  1
  O2-  O389  1  0.09174484  0.42262368  0.80948429  1
  O2-  O390  1  0.08784109  0.65835290  0.15012037  1
  O2-  O391  1  0.05832634  0.66994229  0.48214758  1
  O2-  O392  1  0.06913343  0.65707353  0.82786789  1
  O2-  O393  1  0.08243746  0.90572793  0.14848871  1
  O2-  O394  1  0.07751421  0.91949955  0.47869228  1
  O2-  O395  1  0.08906388  0.91700839  0.81212073  1
  O2-  O396  1  0.33682554  0.16387858  0.13519230  1
  O2-  O397  1  0.28966424  0.20553559  0.46232760  1
  O2-  O398  1  0.33155844  0.15959722  0.80744155  1
  O2-  O399  1  0.34302408  0.43248854  0.13275363  1
  O2-  O400  1  0.32291074  0.41942024  0.49284404  1
  O2-  O401  1  0.28717306  0.38558869  0.82460175  1
  O2-  O402  1  0.33059276  0.65824759  0.13767567  1
  O2-  O403  1  0.33662648  0.67015065  0.48993446  1
  O2-  O404  1  0.31930719  0.66146799  0.81532864  1
  O2-  O405  1  0.32704699  0.92501281  0.13029390  1
  O2-  O406  1  0.33089229  0.90803099  0.47874595  1
  O2-  O407  1  0.35050565  0.91293439  0.80804491  1
  O2-  O408  1  0.58686520  0.15559129  0.14559110  1
  O2-  O409  1  0.57855170  0.18080803  0.46898123  1
  O2-  O410  1  0.59414378  0.18327793  0.81718511  1
  O2-  O411  1  0.57000788  0.41989535  0.12578607  1
  O2-  O412  1  0.56738485  0.41211515  0.48334866  1
  O2-  O413  1  0.57487371  0.41308287  0.81511476  1
  O2-  O414  1  0.58690015  0.67324930  0.14574564  1
  O2-  O415  1  0.57006311  0.65666826  0.49004907  1
  O2-  O416  1  0.59629904  0.65757604  0.81814868  1
  O2-  O417  1  0.61843967  0.92055357  0.17375140  1
  O2-  O418  1  0.58550993  0.91391057  0.48583773  1
  O2-  O419  1  0.57833909  0.91207507  0.81815920  1
  O2-  O420  1  0.83414987  0.17182267  0.14880581  1
  O2-  O421  1  0.84015666  0.16474023  0.48727738  1
  O2-  O422  1  0.84019158  0.18076808  0.81683317  1
  O2-  O423  1  0.86906151  0.42674858  0.13479702  1
  O2-  O424  1  0.80579305  0.41947269  0.49626320  1
  O2-  O425  1  0.82935218  0.41897570  0.82133048  1
  O2-  O426  1  0.83576701  0.67213196  0.14587520  1
  O2-  O427  1  0.82296531  0.67279872  0.49009279  1
  O2-  O428  1  0.73823502  0.57954969  0.84821826  1
  O2-  O429  1  0.84674207  0.92150940  0.14986568  1
  O2-  O430  1  0.83230237  0.90349501  0.45798959  1
  O2-  O431  1  0.85117197  0.94289816  0.81613355  1
  O2-  O432  1  0.17086849  0.06532956  0.17654698  1
  O2-  O433  1  0.15630625  0.07603661  0.52510707  1
  O2-  O434  1  0.16783130  0.08646713  0.85122824  1
  O2-  O435  1  0.18147346  0.33892729  0.18014819  1
  O2-  O436  1  0.16029330  0.31812747  0.52007373  1
  O2-  O437  1  0.19790917  0.34884989  0.84715760  1
  O2-  O438  1  0.17219329  0.57730212  0.18649708  1
  O2-  O439  1  0.15921214  0.59214363  0.51214467  1
  O2-  O440  1  0.15663732  0.57797723  0.85853584  1
  O2-  O441  1  0.16408744  0.82944701  0.18493126  1
  O2-  O442  1  0.15967910  0.84435565  0.50869608  1
  O2-  O443  1  0.13175984  0.80821645  0.87509336  1
  O2-  O444  1  0.42304271  0.09508776  0.18114080  1
  O2-  O445  1  0.46749642  0.04660246  0.53556920  1
  O2-  O446  1  0.43002018  0.08632041  0.84033056  1
  O2-  O447  1  0.40813041  0.33194873  0.17433089  1
  O2-  O448  1  0.40859074  0.34125938  0.52723229  1
  O2-  O449  1  0.40355099  0.32411642  0.85349191  1
  O2-  O450  1  0.43972523  0.64403628  0.19225655  1
  O2-  O451  1  0.41279140  0.58672676  0.53876254  1
  O2-  O452  1  0.39436454  0.55729937  0.85303337  1
  O2-  O453  1  0.33887098  0.78093290  0.21992356  1
  O2-  O454  1  0.41977958  0.83433895  0.52659189  1
  O2-  O455  1  0.41587963  0.82350666  0.85477274  1
  O2-  O456  1  0.67478913  0.08665967  0.19749042  1
  O2-  O457  1  0.68363325  0.07945781  0.53117801  1
  O2-  O458  1  0.66989462  0.09363991  0.84702822  1
  O2-  O459  1  0.69729764  0.33282395  0.12390340  1
  O2-  O460  1  0.63881979  0.32454639  0.51446167  1
  O2-  O461  1  0.67176850  0.34209796  0.87393214  1
  O2-  O462  1  0.66185139  0.57975031  0.17620707  1
  O2-  O463  1  0.65376914  0.57182748  0.52251590  1
  O2-  O464  1  0.75484881  0.66518559  0.83008071  1
  O2-  O465  1  0.69066781  0.83187133  0.20346521  1
  O2-  O466  1  0.67109108  0.82985299  0.51671519  1
  O2-  O467  1  0.67525461  0.83899094  0.84628504  1
  O2-  O468  1  0.91345221  0.08917549  0.18997103  1
  O2-  O469  1  0.91771586  0.07125930  0.51334218  1
  O2-  O470  1  0.92851774  0.10186967  0.86043096  1
  O2-  O471  1  0.92727262  0.33229812  0.19114080  1
  O2-  O472  1  0.94583447  0.34487244  0.52115619  1
  O2-  O473  1  0.92538025  0.34502502  0.85309406  1
  O2-  O474  1  0.92606967  0.58724287  0.18642080  1
  O2-  O475  1  0.90473656  0.59137287  0.53612017  1
  O2-  O476  1  0.88844736  0.58176264  0.85902836  1
  O2-  O477  1  0.91135115  0.83058918  0.20141203  1
  O2-  O478  1  0.91490199  0.84031045  0.52110246  1
  O2-  O479  1  0.93241892  0.84996984  0.86024163  1
  O2-  O480  1  0.15928578  0.06715235  0.30296815  1
  O2-  O481  1  0.16423395  0.07427697  0.64882834  1
  O2-  O482  1  0.17644278  0.06892821  0.97062915  1
  O2-  O483  1  0.17525566  0.30038472  0.30731781  1
  O2-  O484  1  0.15165265  0.31742789  0.64819978  1
  O2-  O485  1  0.16663446  0.32364639  0.97650372  1
  O2-  O486  1  0.18338876  0.58226294  0.31032335  1
  O2-  O487  1  0.19278971  0.57663927  0.63269795  1
  O2-  O488  1  0.16142056  0.57354909  0.98247893  1
  O2-  O489  1  0.18418036  0.83741943  0.30029986  1
  O2-  O490  1  0.15503042  0.81835905  0.65965354  1
  O2-  O491  1  0.26851198  0.86723163  0.95631000  1
  O2-  O492  1  0.41443549  0.05978623  0.30327077  1
  O2-  O493  1  0.44661528  0.10007131  0.64509717  1
  O2-  O494  1  0.38889040  0.04346346  0.95158030  1
  O2-  O495  1  0.40545464  0.30672393  0.30085344  1
  O2-  O496  1  0.40182066  0.31946375  0.64799564  1
  O2-  O497  1  0.39056352  0.30324820  0.97749323  1
  O2-  O498  1  0.41423691  0.56924363  0.30428559  1
  O2-  O499  1  0.42485170  0.56182792  0.66471397  1
  O2-  O500  1  0.40879021  0.57734533  0.97479712  1
  O2-  O501  1  0.42604061  0.82535280  0.32499343  1
  O2-  O502  1  0.41053446  0.83833029  0.64616767  1
  O2-  O503  1  0.36750743  0.79652116  0.97032033  1
  O2-  O504  1  0.67404362  0.09118602  0.32151827  1
  O2-  O505  1  0.59100347  0.06283305  0.64113813  1
  O2-  O506  1  0.66194385  0.09755714  0.96930341  1
  O2-  O507  1  0.68195992  0.34528047  0.37864938  1
  O2-  O508  1  0.58472437  0.25200494  0.66026028  1
  O2-  O509  1  0.64724844  0.33634837  1.01521078  1
  O2-  O510  1  0.70011127  0.63378567  0.29745285  1
  O2-  O511  1  0.65132393  0.56109231  0.64217620  1
  O2-  O512  1  0.65204046  0.57350612  0.94689059  1
  O2-  O513  1  0.68741653  0.85248886  0.32314301  1
  O2-  O514  1  0.64692708  0.81854297  0.64538705  1
  O2-  O515  1  0.70860868  0.80307688  0.95700586  1
  O2-  O516  1  0.92204727  0.08880840  0.31406667  1
  O2-  O517  1  0.91857084  0.06030404  0.64226409  1
  O2-  O518  1  0.91330272  0.10285281  0.98379627  1
  O2-  O519  1  0.91899336  0.33968009  0.31966081  1
  O2-  O520  1  0.94028324  0.40120895  0.62808552  1
  O2-  O521  1  0.93262999  0.36050551  0.97231146  1
  O2-  O522  1  0.95154468  0.59684523  0.37538825  1
  O2-  O523  1  0.92914331  0.53887973  0.64456154  1
  O2-  O524  1  0.92859788  0.59692068  0.97977229  1
  O2-  O525  1  0.84621679  0.80626656  0.31305721  1
  O2-  O526  1  0.90937057  0.82703505  0.64417204  1
  O2-  O527  1  0.92136876  0.83717545  0.98549302  1
  O2-  O528  1  0.10901262  0.16336892  0.02508909  1
  O2-  O529  1  0.07874166  0.14611868  0.34984447  1
  O2-  O530  1  0.07787050  0.15351376  0.69262077  1
  O2-  O531  1  0.08640448  0.41201284  0.02137770  1
  O2-  O532  1  0.09158002  0.43544761  0.36571354  1
  O2-  O533  1  0.08394835  0.41224337  0.68488458  1
  O2-  O534  1  0.08254255  0.66391936  0.02308957  1
  O2-  O535  1  0.12381775  0.68323820  0.34945001  1
  O2-  O536  1  0.07602444  0.66314714  0.70370706  1
  O2-  O537  1  0.07828783  0.90704384  0.02065579  1
  O2-  O538  1  0.04392390  0.90824437  0.35347001  1
  O2-  O539  1  0.06809668  0.90615932  0.69117822  1
  O2-  O540  1  0.31686166  0.11417924  0.02410386  1
  O2-  O541  1  0.31195241  0.14544365  0.36332141  1
  O2-  O542  1  0.32880120  0.15370432  0.68380140  1
  O2-  O543  1  0.32639015  0.41184606  0.01594284  1
  O2-  O544  1  0.32981233  0.40427352  0.36702503  1
  O2-  O545  1  0.31120548  0.38832504  0.69629992  1
  O2-  O546  1  0.32410460  0.66291270  0.02778174  1
  O2-  O547  1  0.34790370  0.65840412  0.36028427  1
  O2-  O548  1  0.33867723  0.68614651  0.68754380  1
  O2-  O549  1  0.34228949  0.90611895  0.07792880  1
  O2-  O550  1  0.34414063  0.91021765  0.35530382  1
  O2-  O551  1  0.31156615  0.90284193  0.68606552  1
  O2-  O552  1  0.57359771  0.17106241  0.01674135  1
  O2-  O553  1  0.59079208  0.17183306  0.33953070  1
  O2-  O554  1  0.63828743  0.23450392  0.69117480  1
  O2-  O555  1  0.53050902  0.44611288  0.01978718  1
  O2-  O556  1  0.56113367  0.39615941  0.36319121  1
  O2-  O557  1  0.56532482  0.39396338  0.69253137  1
  O2-  O558  1  0.58249583  0.66219622  0.02110018  1
  O2-  O559  1  0.56171898  0.70031716  0.36704501  1
  O2-  O560  1  0.58482103  0.65142936  0.69623198  1
  O2-  O561  1  0.59216414  0.92372905  -0.04327839  1
  O2-  O562  1  0.59150690  0.92680221  0.35977269  1
  O2-  O563  1  0.56849309  0.91335134  0.69538062  1
  O2-  O564  1  0.81376647  0.15005314  0.02453416  1
  O2-  O565  1  0.83598672  0.17167758  0.36296567  1
  O2-  O566  1  0.78506095  0.06645082  0.71222405  1
  O2-  O567  1  0.87305813  0.44250322  0.01588092  1
  O2-  O568  1  0.85034508  0.42408795  0.38075572  1
  O2-  O569  1  0.80887427  0.38210970  0.69996392  1
  O2-  O570  1  0.83900638  0.67607747  0.02071746  1
  O2-  O571  1  0.85078966  0.67069772  0.36529184  1
  O2-  O572  1  0.83499059  0.64053328  0.64438763  1
  O2-  O573  1  0.84631072  0.93342179  0.02493948  1
  O2-  O574  1  0.88635070  0.89118936  0.34349327  1
  O2-  O575  1  0.81704436  0.89020207  0.67844322  1
