# generated using pymatgen
data_H2O
_symmetry_space_group_name_H-M   'P 1'
_cell_length_a   18.00833099
_cell_length_b   18.00914518
_cell_length_c   22.02467758
_cell_angle_alpha   89.99242249
_cell_angle_beta   90.02257355
_cell_angle_gamma   120.00777387
_symmetry_Int_Tables_number   1
_chemical_formula_structural   H2O
_chemical_formula_sum   'H384 O192'
_cell_volume   6185.46984685
_cell_formula_units_Z   192
loop_
 _symmetry_equiv_pos_site_id
 _symmetry_equiv_pos_as_xyz
  1  'x, y, z'
loop_
 _atom_type_symbol
 _atom_type_oxidation_number
  H+  1.0
  O2-  -2.0
loop_
 _atom_site_type_symbol
 _atom_site_label
 _atom_site_symmetry_multiplicity
 _atom_site_fract_x
 _atom_site_fract_y
 _atom_site_fract_z
 _atom_site_occupancy
  H+  H0  1  0.39415592  0.79274999  0.65458804  1
  H+  H1  1  0.60706104  0.89643304  1.01836840  1
  H+  H2  1  0.86744283  0.92433415  0.09946711  1
  H+  H3  1  0.12793997  0.24063152  1.00570277  1
  H+  H4  1  1.03409063  0.14437791  1.00337653  1
  H+  H5  1  0.88007074  0.35857570  0.65820107  1
  H+  H6  1  0.87102829  0.46649037  0.33246738  1
  H+  H7  1  0.18754718  0.59426673  0.84879621  1
  H+  H8  1  0.98705860  0.86377063  0.51103074  1
  H+  H9  1  0.09270104  -0.02253541  0.33114277  1
  H+  H10  1  0.40947219  0.66328286  0.80440403  1
  H+  H11  1  0.87790652  0.35647285  0.83837698  1
  H+  H12  1  0.31682191  0.64502836  0.79487226  1
  H+  H13  1  0.89411490  0.98596558  0.00991773  1
  H+  H14  1  0.36440779  0.47131406  0.33597414  1
  H+  H15  1  0.42748580  0.58216730  0.55642580  1
  H+  H16  1  0.74332809  0.76260309  0.26462506  1
  H+  H17  1  0.66047560  0.56469555  0.90555010  1
  H+  H18  1  0.38005604  0.27769320  0.22653515  1
  H+  H19  1  0.13126686  0.02113243  0.65425962  1
  H+  H20  1  0.47142016  0.33149098  0.15235682  1
  H+  H21  1  0.63862511  0.49887301  0.99905116  1
  H+  H22  1  0.87146122  0.84656085  0.84533787  1
  H+  H23  1  0.16034492  1.06217235  0.86717413  1
  H+  H24  1  0.60242260  0.69961628  0.31736369  1
  H+  H25  1  0.84647517  0.61503100  0.83200120  1
  H+  H26  1  0.52989977  0.13086714  0.34031012  1
  H+  H27  1  0.53198062  0.36967813  0.82640785  1
  H+  H28  1  0.40826497  0.34548013  0.82319311  1
  H+  H29  1  0.18108256  0.57970937  0.56017100  1
  H+  H30  1  0.38151596  0.34973634  0.32081368  1
  H+  H31  1  0.34563554  0.99400416  0.15304986  1
  H+  H32  1  0.86358560  0.86979243  0.68453860  1
  H+  H33  1  0.36576333  0.47971668  1.00797953  1
  H+  H34  1  0.25742893  0.36404822  0.15346781  1
  H+  H35  1  0.79384512  0.15699895  0.35598112  1
  H+  H36  1  0.68949015  0.12324228  0.23187988  1
  H+  H37  1  0.89107153  0.98016485  0.16022658  1
  H+  H38  1  0.66545599  0.31958922  0.89730225  1
  H+  H39  1  0.63771393  0.60925716  0.50409290  1
  H+  H40  1  0.63927692  0.86187979  0.84193197  1
  H+  H41  1  0.23864565  0.10734008  0.50627484  1
  H+  H42  1  0.22042101  0.37754741  0.99753265  1
  H+  H43  1  0.37349896  0.77222268  0.17505714  1
  H+  H44  1  0.10482632  0.50231385  0.83970019  1
  H+  H45  1  0.02919843  0.39379286  0.17124184  1
  H+  H46  1  0.53237724  0.64053729  0.83309877  1
  H+  H47  1  1.10368651  0.85807669  0.32256641  1
  H+  H48  1  0.13789509  0.56297118  0.94105867  1
  H+  H49  1  0.61539360  0.26272118  0.17693926  1
  H+  H50  1  0.66496539  0.84944796  0.94179197  1
  H+  H51  1  0.60766714  0.22894163  0.34280542  1
  H+  H52  1  0.87349402  0.13817212  0.82240338  1
  H+  H53  1  0.61298287  0.72304319  0.48308025  1
  H+  H54  1  0.65247860  0.80482630  1.00563689  1
  H+  H55  1  0.06424933  0.92440083  0.39170387  1
  H+  H56  1  0.28113512  0.64060708  0.49261116  1
  H+  H57  1  0.04819804  0.89038585  0.15972561  1
  H+  H58  1  0.13709437  0.85530262  0.84325939  1
  H+  H59  1  0.19306386  0.29160811  0.65579479  1
  H+  H60  1  0.00337699  0.09980186  0.34263797  1
  H+  H61  1  0.47177667  0.34176556  0.51134922  1
  H+  H62  1  0.90558805  0.56998088  0.90168518  1
  H+  H63  1  0.86798160  0.15762476  0.16452200  1
  H+  H64  1  0.38107314  0.25383287  0.66552892  1
  H+  H65  1  0.86751038  0.22266092  0.00561991  1
  H+  H66  1  0.32259243  0.83007927  0.31909112  1
  H+  H67  1  0.60509394  0.37307012  0.49795544  1
  H+  H68  1  0.38045043  0.86367781  0.17991702  1
  H+  H69  1  0.01596586  0.14915905  0.64659287  1
  H+  H70  1  0.98279172  0.59252650  0.16922752  1
  H+  H71  1  0.67542714  0.50988199  0.18974368  1
  H+  H72  1  0.15761401  0.28728214  0.32744466  1
  H+  H73  1  0.89571444  0.53081665  0.50471488  1
  H+  H74  1  0.36383618  0.21174543  0.33465370  1
  H+  H75  1  0.84840524  0.62381618  0.67467803  1
  H+  H76  1  0.10806868  0.39148592  0.48471931  1
  H+  H77  1  0.56837938  0.96972590  0.29453412  1
  H+  H78  1  0.81691893  0.40645643  1.06248287  1
  H+  H79  1  0.59546352  0.45749160  0.34646705  1
  H+  H80  1  0.47020332  0.60298832  0.17912263  1
  H+  H81  1  0.90534721  1.01399599  0.49282894  1
  H+  H82  1  0.10079038  0.85554724  0.71260573  1
  H+  H83  1  0.95011348  0.82921065  0.83633421  1
  H+  H84  1  0.29301873  0.88180958  0.47858931  1
  H+  H85  1  0.02903164  0.64050457  0.49997007  1
  H+  H86  1  0.97021264  0.35993336  0.65667387  1
  H+  H87  1  0.38045013  0.75145820  0.50736767  1
  H+  H88  1  0.16850824  0.15980850  0.33332505  1
  H+  H89  1  0.62516554  0.67924445  0.20048773  1
  H+  H90  1  0.62055752  0.26111872  0.51045723  1
  H+  H91  1  0.23540881  0.61512268  0.17466511  1
  H+  H92  1  0.25652215  0.39322933  0.48489530  1
  H+  H93  1  0.60664096  0.34562593  0.17537225  1
  H+  H94  1  0.15666090  0.50974367  0.65580898  1
  H+  H95  1  0.73076962  0.11224995  0.81378242  1
  H+  H96  1  -0.03948144  0.60476239  0.84015565  1
  H+  H97  1  0.88886909  0.60369155  0.99622660  1
  H+  H98  1  0.64176735  0.35430697  0.83754649  1
  H+  H99  1  0.61941304  0.63459452  0.67538847  1
  H+  H100  1  0.72513729  0.85670512  0.66011955  1
  H+  H101  1  0.65433255  0.05059451  0.17762953  1
  H+  H102  1  0.04266135  0.12994413  0.47971697  1
  H+  H103  1  0.25582702  0.91172219  0.64184702  1
  H+  H104  1  0.38660967  0.85325549  0.51075245  1
  H+  H105  1  0.88660803  0.89291617  1.00909456  1
  H+  H106  1  0.77347261  0.88365532  0.84028676  1
  H+  H107  1  0.86257365  0.95698995  0.68958477  1
  H+  H108  1  0.41033408  0.62607937  0.64262714  1
  H+  H109  1  0.30996693  0.56992102  0.02464496  1
  H+  H110  1  0.38253420  0.52437916  0.49747876  1
  H+  H111  1  0.61705475  0.88862432  0.66948291  1
  H+  H112  1  0.58659627  0.90693482  0.76435943  1
  H+  H113  1  0.62753862  0.10899124  0.66670547  1
  H+  H114  1  0.83740228  0.45678599  0.66993481  1
  H+  H115  1  0.83215215  0.15073063  0.45517399  1
  H+  H116  1  0.83529955  0.70646237  0.34530866  1
  H+  H117  1  0.35991463  0.17849643  0.05765292  1
  H+  H118  1  0.12521734  0.64216086  0.34306366  1
  H+  H119  1  0.79690091  0.63679437  0.16756337  1
  H+  H120  1  0.44806182  0.63709420  0.99595330  1
  H+  H121  1  0.35097177  0.59456399  0.32153126  1
  H+  H122  1  0.61509744  -0.00565877  0.30258455  1
  H+  H123  1  0.27679511  0.38672843  0.33349900  1
  H+  H124  1  0.45691959  0.34875065  0.66560965  1
  H+  H125  1  0.75441314  0.22856494  0.29851824  1
  H+  H126  1  0.08707226  0.92837201  0.89935901  1
  H+  H127  1  0.38623246  0.09590057  0.50482137  1
  H+  H128  1  0.76369640  0.88736709  0.15562097  1
  H+  H129  1  0.04306875  0.59830589  0.60522301  1
  H+  H130  1  -0.01708920  0.85485921  -0.00392254  1
  H+  H131  1  0.51384168  0.88115463  1.01714733  1
  H+  H132  1  0.64395368  0.02110458  0.81300624  1
  H+  H133  1  0.60815603  0.12617425  0.49746007  1
  H+  H134  1  0.14570951  0.52880207  0.49775361  1
  H+  H135  1  0.66667620  0.16128116  0.32766309  1
  H+  H136  1  0.49405944  0.61809487  0.65457156  1
  H+  H137  1  0.72677347  0.61118879  0.51151703  1
  H+  H138  1  0.85547918  0.46598273  0.82671338  1
  H+  H139  1  0.76939561  0.86730359  0.35463579  1
  H+  H140  1  0.67021556  0.82920050  0.12852032  1
  H+  H141  1  0.09967348  0.38236735  0.01788997  1
  H+  H142  1  0.09763296  0.71518929  0.82931143  1
  H+  H143  1  0.23284189  0.10203285  0.30830653  1
  H+  H144  1  0.13478327  0.15694644  0.83314791  1
  H+  H145  1  0.72217344  0.10986230  1.02394641  1
  H+  H146  1  0.32181792  0.38300334  0.82903177  1
  H+  H147  1  0.63737260  0.76997627  0.65987307  1
  H+  H148  1  0.88991046  0.05494591  0.62749416  1
  H+  H149  1  0.86625046  0.72558506  0.50279306  1
  H+  H150  1  0.37150388  0.64019838  0.49417606  1
  H+  H151  1  0.13215023  0.27451036  0.18002886  1
  H+  H152  1  0.38582694  0.74722786  -0.01805971  1
  H+  H153  1  0.29768778  0.69463027  0.32707153  1
  H+  H154  1  0.70922809  0.34904408  0.66471753  1
  H+  H155  1  0.60666120  0.87770727  0.49481561  1
  H+  H156  1  0.17758028  0.10081542  1.08613378  1
  H+  H157  1  0.84103929  0.10521426  0.63362791  1
  H+  H158  1  0.47799611  0.10155902  0.50592508  1
  H+  H159  1  0.11615526  0.97700884  0.01489792  1
  H+  H160  1  0.13033845  0.76747497  0.70377964  1
  H+  H161  1  0.91290314  0.32925874  0.93458722  1
  H+  H162  1  0.10915609  0.63578331  1.00924975  1
  H+  H163  1  0.52943810  0.88907065  0.82450229  1
  H+  H164  1  0.52484934  0.63400790  0.48192520  1
  H+  H165  1  0.12727685  0.13912537  0.16011133  1
  H+  H166  1  0.84153993  0.96084901  0.33965514  1
  H+  H167  1  0.11632607  0.51149440  1.00381543  1
  H+  H168  1  -0.01829166  0.38290225  0.50036259  1
  H+  H169  1  0.40265711  0.51596494  0.84385316  1
  H+  H170  1  0.11688501  0.77865689  0.32563057  1
  H+  H171  1  0.37031265  0.11998873  0.67183077  1
  H+  H172  1  0.61558222  0.63181037  0.83559444  1
  H+  H173  1  0.61840270  0.97912447  0.67540062  1
  H+  H174  1  0.82190230  0.65238051  0.73680357  1
  H+  H175  1  0.78059459  0.62278078  0.00975273  1
  H+  H176  1  0.13775587  0.85966532  -0.00674278  1
  H+  H177  1  0.23251660  0.23878928  0.37329162  1
  H+  H178  1  0.75286711  0.62015332  0.36064866  1
  H+  H179  1  0.85021881  0.45718211  0.15357561  1
  H+  H180  1  0.44762143  0.86543743  0.36618387  1
  H+  H181  1  0.60346862  0.21826128  0.00808187  1
  H+  H182  1  0.19539265  0.36627888  0.84320527  1
  H+  H183  1  0.61061968  0.85289670  0.35784298  1
  H+  H184  1  0.65454785  0.87105803  0.34402571  1
  H+  H185  1  0.66243809  0.56571095  0.28163591  1
  H+  H186  1  0.36417887  0.12321552  0.33610793  1
  H+  H187  1  0.61267717  0.46490663  0.83050159  1
  H+  H188  1  0.36772888  0.64294866  0.15856448  1
  H+  H189  1  0.51477804  0.37906676  0.99573905  1
  H+  H190  1  0.29437219  0.63877047  0.65376546  1
  H+  H191  1  -0.01037373  0.37016636  0.33587999  1
  H+  H192  1  0.71967283  0.35257238  -0.00875841  1
  H+  H193  1  0.65236090  0.59379214  1.00410327  1
  H+  H194  1  0.72945199  0.85889003  0.50420319  1
  H+  H195  1  0.48303859  0.11298210  0.65931350  1
  H+  H196  1  1.01525564  0.13384118  0.31883548  1
  H+  H197  1  0.62502724  1.01379906  0.51636578  1
  H+  H198  1  0.12584362  0.40069897  0.33823308  1
  H+  H199  1  -0.01524328  0.10986522  0.83853755  1
  H+  H200  1  0.17611208  0.92452966  0.62867058  1
  H+  H201  1  0.62873706  0.35613385  0.33226429  1
  H+  H202  1  0.71490329  0.59572866  0.84416982  1
  H+  H203  1  0.14654793  0.59028975  0.65092619  1
  H+  H204  1  0.24698651  0.23801811  0.71203705  1
  H+  H205  1  0.36845877  0.21077062  0.49549445  1
  H+  H206  1  0.42135727  0.33435393  0.92305405  1
  H+  H207  1  0.12680432  0.26438545  0.49680055  1
  H+  H208  1  0.47619681  0.07859096  0.17223716  1
  H+  H209  1  0.39714149  0.25146666  0.83174053  1
  H+  H210  1  0.37025387  0.98723638  0.67722027  1
  H+  H211  1  0.37914371  0.96784158  0.49575283  1
  H+  H212  1  1.02132825  0.63541705  1.00776509  1
  H+  H213  1  0.14956585  0.03955323  0.16041844  1
  H+  H214  1  0.15277842  0.11474287  0.50613694  1
  H+  H215  1  0.12155153  0.48088149  0.16528697  1
  H+  H216  1  0.89553303  0.02146919  0.84566386  1
  H+  H217  1  0.25360317  0.61016523  0.00620211  1
  H+  H218  1  0.35804676  0.97309648  1.00435230  1
  H+  H219  1  0.61290450  0.14329309  0.16143321  1
  H+  H220  1  1.00152747  0.14781474  0.67893886  1
  H+  H221  1  0.96735327  0.35880349  0.99714630  1
  H+  H222  1  0.60151433  0.46801625  0.67352722  1
  H+  H223  1  0.27601548  0.89779454  0.82864598  1
  H+  H224  1  0.84213457  0.70207531  0.83263214  1
  H+  H225  1  0.46695388  0.34469896  0.32372651  1
  H+  H226  1  -0.01734453  0.59414320  0.32296970  1
  H+  H227  1  0.62846972  0.34857060  -0.01024876  1
  H+  H228  1  0.13389332  0.14302180  0.02516513  1
  H+  H229  1  0.11870270  0.97534511  0.49212084  1
  H+  H230  1  0.60781285  0.12755185  0.81052059  1
  H+  H231  1  0.64937434  0.58306465  0.18377250  1
  H+  H232  1  0.47607781  0.10691334  -0.00819674  1
  H+  H233  1  0.89183600  0.56861084  0.59725776  1
  H+  H234  1  0.89791907  0.59797767  0.17164427  1
  H+  H235  1  0.72002023  0.60539115  0.66250773  1
  H+  H236  1  0.08871660  0.37700094  0.82623098  1
  H+  H237  1  0.07294027  0.41447037  0.07767564  1
  H+  H238  1  0.12225304  0.26814967  0.84232227  1
  H+  H239  1  0.38296596  0.29073949  0.98518883  1
  H+  H240  1  0.61163780  0.59016446  0.33012075  1
  H+  H241  1  0.66162947  0.57861097  0.60222975  1
  H+  H242  1  0.65805771  0.08084762  0.60645618  1
  H+  H243  1  0.11165047  0.37460066  0.67146087  1
  H+  H244  1  0.11847875  0.63893166  0.49690688  1
  H+  H245  1  0.87757636  0.40998804  0.49047853  1
  H+  H246  1  0.62975415  1.02578546  0.03306863  1
  H+  H247  1  0.14924058  0.77306488  0.67216653  1
  H+  H248  1  0.60754585  0.46405944  0.49605042  1
  H+  H249  1  0.85276915  0.09084890  0.32902500  1
  H+  H250  1  0.48056277  0.87723029  0.67271708  1
  H+  H251  1  0.03553392  0.95738731  0.85989368  1
  H+  H252  1  0.76873106  0.37442932  0.82661836  1
  H+  H253  1  0.47510394  0.84879567  0.51995344  1
  H+  H254  1  0.85230043  0.37777432  1.00469080  1
  H+  H255  1  0.30326086  0.94369925  0.08292358  1
  H+  H256  1  0.91162896  0.77348032  0.17040926  1
  H+  H257  1  0.14966531  0.78078313  0.49381229  1
  H+  H258  1  0.27732756  0.11349794  0.67484977  1
  H+  H259  1  0.85530788  0.22620282  0.66847515  1
  H+  H260  1  0.86937853  0.87849776  0.49874841  1
  H+  H261  1  0.91317701  0.86323170  0.17061972  1
  H+  H262  1  0.85981851  0.83800631  0.31542512  1
  H+  H263  1  0.97445265  0.84933415  0.67579736  1
  H+  H264  1  0.77729724  0.38141155  0.33896760  1
  H+  H265  1  0.37321217  0.51190310  0.68499938  1
  H+  H266  1  0.13412873  0.36594243  0.17580745  1
  H+  H267  1  0.93915108  0.57789144  0.65895559  1
  H+  H268  1  0.56821666  0.39675085  0.40453232  1
  H+  H269  1  0.88433315  0.26981880  0.83790573  1
  H+  H270  1  0.11839485  0.63272204  0.16460705  1
  H+  H271  1  1.00199419  0.37885525  0.82130256  1
  H+  H272  1  0.44813168  0.61101112  0.32426938  1
  H+  H273  1  0.89982508  0.29443674  0.18097575  1
  H+  H274  1  0.90644667  0.12455403  -0.00208379  1
  H+  H275  1  0.91192181  0.09031403  0.11934567  1
  H+  H276  1  0.82957961  0.66429868  0.44420097  1
  H+  H277  1  0.13373969  0.76822340  -0.00632638  1
  H+  H278  1  0.56861507  0.16258632  0.10465995  1
  H+  H279  1  0.64674282  0.92800600  0.16559886  1
  H+  H280  1  0.39463166  0.79509284  0.82257941  1
  H+  H281  1  0.33136273  0.93267105  0.76753737  1
  H+  H282  1  0.67744070  0.71138733  -0.01694147  1
  H+  H283  1  0.64297711  0.77515029  0.84774595  1
  H+  H284  1  0.60637233  0.13262283  1.02517107  1
  H+  H285  1  0.60521500  0.21297892  0.82222284  1
  H+  H286  1  0.31354380  0.42987187  0.06656751  1
  H+  H287  1  0.36288137  0.89553860  0.68270539  1
  H+  H288  1  0.39954234  0.57823743  0.22924658  1
  H+  H289  1  0.19326178  0.86064753  0.54029988  1
  H+  H290  1  0.88841128  0.22815719  0.35957618  1
  H+  H291  1  0.24819801  0.13535669  0.84493449  1
  H+  H292  1  0.09284935  0.92447361  0.75007953  1
  H+  H293  1  0.41585458  0.03549969  0.23001534  1
  H+  H294  1  0.76310774  0.13964678  0.67590752  1
  H+  H295  1  0.92759820  0.56009861  0.26149674  1
  H+  H296  1  0.82143818  0.40304822  0.73157243  1
  H+  H297  1  0.15582595  0.33377583  0.94003617  1
  H+  H298  1  0.88415131  0.76202363  0.66959464  1
  H+  H299  1  0.32338988  0.41772349  0.43079043  1
  H+  H300  1  0.07994011  0.66494820  0.65806052  1
  H+  H301  1  0.62158185  0.35316623  0.66513271  1
  H+  H302  1  0.89448581  0.62001106  0.51271834  1
  H+  H303  1  0.91880276  0.34523451  0.55719356  1
  H+  H304  1  0.71617333  0.10161270  0.51506695  1
  H+  H305  1  0.56971766  0.15709632  0.73525842  1
  H+  H306  1  0.39274144  0.88153294  0.83496315  1
  H+  H307  1  0.83915365  0.11288314  0.51838837  1
  H+  H308  1  0.35626792  0.04415573  0.82444600  1
  H+  H309  1  0.42044863  0.81583941  0.92834228  1
  H+  H310  1  0.75314566  0.37953504  0.15391861  1
  H+  H311  1  0.07967368  0.40644731  0.72845272  1
  H+  H312  1  0.37329551  0.81180810  0.26796159  1
  H+  H313  1  0.13069831  0.49323583  0.33699620  1
  H+  H314  1  0.57864560  0.41113607  0.73378315  1
  H+  H315  1  0.59164756  0.66672671  0.73512954  1
  H+  H316  1  0.64931840  0.08252911  0.92050968  1
  H+  H317  1  0.36612363  0.68296263  0.70452252  1
  H+  H318  1  0.08805753  0.91236129  0.06838239  1
  H+  H319  1  0.83955277  0.90563343  0.43757470  1
  H+  H320  1  0.46200432  0.59431992  0.93851941  1
  H+  H321  1  0.69191127  0.79999445  0.22756263  1
  H+  H322  1  0.60214524  0.21887509  0.67533480  1
  H+  H323  1  0.33601525  0.15210847  0.43411475  1
  H+  H324  1  0.09535174  0.18403563  0.10947535  1
  H+  H325  1  0.83080541  0.90449460  0.78035514  1
  H+  H326  1  0.78017046  0.15980204  0.16038816  1
  H+  H327  1  0.88825430  0.80614808  0.25652248  1
  H+  H328  1  0.89499708  0.35834389  0.33676646  1
  H+  H329  1  0.11563227  0.18555870  0.76985526  1
  H+  H330  1  0.12201513  0.17458083  0.43072874  1
  H+  H331  1  0.42134905  0.07841477  0.59816209  1
  H+  H332  1  0.43986880  0.91736730  0.41902763  1
  H+  H333  1  0.88421503  0.51272579  0.99417084  1
  H+  H334  1  0.84784444  0.43818747  0.43106291  1
  H+  H335  1  0.64557303  0.31874120  0.56995991  1
  H+  H336  1  0.25023373  0.36234629  0.60747646  1
  H+  H337  1  0.42164359  0.07941557  0.92987373  1
  H+  H338  1  0.57861973  0.65725839  0.00117883  1
  H+  H339  1  0.60675641  0.65986175  0.12967111  1
  H+  H340  1  0.27419507  0.15507149  0.16552795  1
  H+  H341  1  0.87916894  0.06253455  0.26793308  1
  H+  H342  1  0.14986035  0.91228161  0.14770019  1
  H+  H343  1  0.84462976  0.16876877  0.76192298  1
  H+  H344  1  0.17748211  0.09422180  0.24903816  1
  H+  H345  1  0.23427962  0.12563291  1.02427816  1
  H+  H346  1  0.32734393  0.33690523  0.14023175  1
  H+  H347  1  0.28196274  0.42680302  0.69093959  1
  H+  H348  1  0.58166026  0.15864171  0.43706201  1
  H+  H349  1  0.18125515  0.58717221  0.23702948  1
  H+  H350  1  0.26833628  0.88366030  1.00649864  1
  H+  H351  1  0.53412138  0.42954779  0.15157896  1
  H+  H352  1  0.59028801  0.93965424  0.11628881  1
  H+  H353  1  0.09053409  0.43251505  0.42602792  1
  H+  H354  1  0.33982205  0.13807338  0.76395667  1
  H+  H355  1  0.08422511  0.62186236  0.82884506  1
  H+  H356  1  0.33021062  0.66437160  0.09951350  1
  H+  H357  1  0.36271075  0.56555205  0.87765037  1
  H+  H358  1  0.92896833  0.08741335  0.54014229  1
  H+  H359  1  0.86676110  0.71644551  0.00953489  1
  H+  H360  1  0.08591882  0.66419991  0.40044823  1
  H+  H361  1  0.57395673  0.66449087  0.38637713  1
  H+  H362  1  0.63387259  0.03546260  0.92152442  1
  H+  H363  1  0.84759628  0.17484825  0.06911129  1
  H+  H364  1  0.84619933  0.66136813  0.10386312  1
  H+  H365  1  0.93582946  0.09468647  0.93702138  1
  H+  H366  1  0.17574338  0.07898280  0.59410669  1
  H+  H367  1  0.66737978  0.82740531  0.56143778  1
  H+  H368  1  0.54806812  0.90322065  0.45075761  1
  H+  H369  1  0.08798511  0.66512444  0.10762648  1
  H+  H370  1  0.55806143  0.38692097  0.06037997  1
  H+  H371  1  0.17560980  0.16011516  0.67642063  1
  H+  H372  1  0.99217654  0.12357510  0.16260174  1
  H+  H373  1  0.16655322  0.82623374  0.90220022  1
  H+  H374  1  0.91700982  0.81977996  0.93895615  1
  H+  H375  1  0.14304941  0.32242787  0.55534973  1
  H+  H376  1  0.93426405  0.33990247  0.24518293  1
  H+  H377  1  0.36530415  0.13612363  -0.00359894  1
  H+  H378  1  0.40895903  0.30691182  0.56900417  1
  H+  H379  1  0.16939669  0.34101097  0.26605152  1
  H+  H380  1  0.65417700  0.32741329  0.27059004  1
  H+  H381  1  0.35798291  0.43875836  0.76789770  1
  H+  H382  1  0.92946898  0.83439682  0.57240746  1
  H+  H383  1  0.11953231  0.88864870  0.47971061  1
  O2-  O384  1  0.09040156  0.17256026  0.15325910  1
  O2-  O385  1  0.10676238  0.16796195  0.47483210  1
  O2-  O386  1  0.09702803  0.17709077  0.81286434  1
  O2-  O387  1  0.08773985  0.42010539  0.15000393  1
  O2-  O388  1  0.08862354  0.43192218  0.47197086  1
  O2-  O389  1  0.06414759  0.40922968  0.80602463  1
  O2-  O390  1  0.08099479  0.65582297  0.15179582  1
  O2-  O391  1  0.08912801  0.67085418  0.48403025  1
  O2-  O392  1  0.05987198  0.65668631  0.81326914  1
  O2-  O393  1  0.10149942  0.92737417  0.13638674  1
  O2-  O394  1  0.08314476  0.91609462  0.47606545  1
  O2-  O395  1  0.08057879  0.94224152  0.85737194  1
  O2-  O396  1  0.34226095  0.18656176  0.16278273  1
  O2-  O397  1  0.33547803  0.14901398  0.47907315  1
  O2-  O398  1  0.33608532  0.14348608  0.81058825  1
  O2-  O399  1  0.30604264  0.37459022  0.12630686  1
  O2-  O400  1  0.31814049  0.42589400  0.47481332  1
  O2-  O401  1  0.37535687  0.42459235  0.80979917  1
  O2-  O402  1  0.33536351  0.67201070  0.14406191  1
  O2-  O403  1  0.34384731  0.67477700  0.48259064  1
  O2-  O404  1  0.37631870  0.68773079  0.78668666  1
  O2-  O405  1  0.29002187  0.96851024  0.12449819  1
  O2-  O406  1  0.35687469  0.90843973  0.47892039  1
  O2-  O407  1  0.33442749  0.93845594  0.81349312  1
  O2-  O408  1  0.56976792  0.16113228  0.15020111  1
  O2-  O409  1  0.57672470  0.15539908  0.48205129  1
  O2-  O410  1  0.57116086  0.15458599  0.80511439  1
  O2-  O411  1  0.53137319  0.37610686  0.13981502  1
  O2-  O412  1  0.57548474  0.40457322  0.48056273  1
  O2-  O413  1  0.59181876  0.40768899  0.81128656  1
  O2-  O414  1  0.59180560  0.63272865  0.16956845  1
  O2-  O415  1  0.58480060  0.66417156  0.46545930  1
  O2-  O416  1  0.59184907  0.66791585  0.81897569  1
  O2-  O417  1  0.61064103  0.95399663  0.15890421  1
  O2-  O418  1  0.57022408  0.90491901  0.49301607  1
  O2-  O419  1  0.58835968  0.90685368  0.81008981  1
  O2-  O420  1  0.84192682  0.18879317  0.14580923  1
  O2-  O421  1  0.81402390  0.14340806  0.49823687  1
  O2-  O422  1  0.84684758  0.17126796  0.80750585  1
  O2-  O423  1  0.80879246  0.40230775  0.13321605  1
  O2-  O424  1  0.85347463  0.44672256  0.47567704  1
  O2-  O425  1  0.82924836  0.40647687  0.81000301  1
  O2-  O426  1  0.85445096  0.66734002  0.14881591  1
  O2-  O427  1  0.83373567  0.66431904  0.49034005  1
  O2-  O428  1  0.81396533  0.64329825  0.81540837  1
  O2-  O429  1  0.86247745  0.91978976  0.14581046  1
  O2-  O430  1  0.83836365  0.90773536  0.48291916  1
  O2-  O431  1  0.83484819  0.90889312  0.82556894  1
  O2-  O432  1  0.17890143  0.10326477  0.16134812  1
  O2-  O433  1  0.17828504  0.08077135  0.52341052  1
  O2-  O434  1  0.19402422  0.12488141  0.86495458  1
  O2-  O435  1  0.16471663  0.33620607  0.19247677  1
  O2-  O436  1  0.14444039  0.32438912  0.51084632  1
  O2-  O437  1  0.13986351  0.32676239  0.86098412  1
  O2-  O438  1  0.17578800  0.58221659  0.19129005  1
  O2-  O439  1  0.17784235  0.58856799  0.51597945  1
  O2-  O440  1  0.12799489  0.55964686  0.86120969  1
  O2-  O441  1  0.22081396  0.89604297  0.15696768  1
  O2-  O442  1  0.18489216  0.84464998  0.49643397  1
  O2-  O443  1  0.16774479  0.82617174  0.85597984  1
  O2-  O444  1  0.42287110  0.02584560  0.18694683  1
  O2-  O445  1  0.41742383  0.06774951  0.52219467  1
  O2-  O446  1  0.38128598  0.10432000  0.84064087  1
  O2-  O447  1  0.37316012  0.27582261  0.18123566  1
  O2-  O448  1  0.41169301  0.30182468  0.52434882  1
  O2-  O449  1  0.42872502  0.31215491  0.84619935  1
  O2-  O450  1  0.40982117  0.58621113  0.18472778  1
  O2-  O451  1  0.42188595  0.58538814  0.51164205  1
  O2-  O452  1  0.41693714  0.57377190  0.86170474  1
  O2-  O453  1  0.39811219  0.82632015  0.19915689  1
  O2-  O454  1  0.41098890  0.81653319  0.52898587  1
  O2-  O455  1  0.42049380  0.84777543  0.84711039  1
  O2-  O456  1  0.68280339  0.11483919  0.18723633  1
  O2-  O457  1  0.65419469  0.07479319  0.52947810  1
  O2-  O458  1  0.66846251  0.08338920  0.80656667  1
  O2-  O459  1  0.64350836  0.32403799  0.19128340  1
  O2-  O460  1  0.64527512  0.32097891  0.52500950  1
  O2-  O461  1  0.66984720  0.32158699  0.85190258  1
  O2-  O462  1  0.69120732  0.56790406  0.20199153  1
  O2-  O463  1  0.66504695  0.57992186  0.52462936  1
  O2-  O464  1  0.65477307  0.56875548  0.86072241  1
  O2-  O465  1  0.69985003  0.86210621  0.16453598  1
  O2-  O466  1  0.66758402  0.82888657  0.51617907  1
  O2-  O467  1  0.67167958  0.83580517  0.86169453  1
  O2-  O468  1  0.92601188  0.09153433  0.16224389  1
  O2-  O469  1  0.94189848  0.07760569  0.49861770  1
  O2-  O470  1  0.92732184  0.08308400  0.85781387  1
  O2-  O471  1  0.93845829  0.35002585  0.20059727  1
  O2-  O472  1  0.92087294  0.35500344  0.51307241  1
  O2-  O473  1  0.91215913  0.33002371  0.85413655  1
  O2-  O474  1  0.92005917  0.55914136  0.18199340  1
  O2-  O475  1  0.92443037  0.58960498  0.52862796  1
  O2-  O476  1  0.90009882  0.56956449  0.85618295  1
  O2-  O477  1  0.94140128  0.83257012  0.18806417  1
  O2-  O478  1  0.92673381  0.83375279  0.52759963  1
  O2-  O479  1  0.89690703  0.80976359  0.85891939  1
  O2-  O480  1  0.17488056  0.08831339  0.29388677  1
  O2-  O481  1  0.17512548  0.07816590  0.64100591  1
  O2-  O482  1  0.17322308  0.10026043  1.03925690  1
  O2-  O483  1  0.17392671  0.34517389  0.31186656  1
  O2-  O484  1  0.20199453  0.34542773  0.63522791  1
  O2-  O485  1  0.16059185  0.33234834  0.98498224  1
  O2-  O486  1  0.18424878  0.59261323  0.31309729  1
  O2-  O487  1  0.18719727  0.57026532  0.64083225  1
  O2-  O488  1  0.14879327  0.57061443  0.98542370  1
  O2-  O489  1  0.14464317  0.83867450  0.31218575  1
  O2-  O490  1  0.21489031  0.90880672  0.60973096  1
  O2-  O491  1  0.16547949  0.82828137  0.97593040  1
  O2-  O492  1  0.41421842  0.05241392  0.31626453  1
  O2-  O493  1  0.42097799  0.08168637  0.64376267  1
  O2-  O494  1  0.41576867  0.07669274  0.97408334  1
  O2-  O495  1  0.40740912  0.31493769  0.30623894  1
  O2-  O496  1  0.39649511  0.31230383  0.65217514  1
  O2-  O497  1  0.41901614  0.34746662  0.96662583  1
  O2-  O498  1  0.38922126  0.57252798  0.30887552  1
  O2-  O499  1  0.43507403  0.58741192  0.63653758  1
  O2-  O500  1  0.47432927  0.60365896  0.98254322  1
  O2-  O501  1  0.35634778  0.80188311  0.31295422  1
  O2-  O502  1  0.41827504  0.85354765  0.66535732  1
  O2-  O503  1  0.43427915  0.80182226  0.96860350  1
  O2-  O504  1  0.71936972  0.16731200  0.30676655  1
  O2-  O505  1  0.66122391  0.08161738  0.65202034  1
  O2-  O506  1  0.66264135  0.08959510  1.03625495  1
  O2-  O507  1  0.65968157  0.32698719  0.31570122  1
  O2-  O508  1  0.64847179  0.31942147  0.65058000  1
  O2-  O509  1  0.65918666  0.31875154  0.97530591  1
  O2-  O510  1  0.64629178  0.56125615  0.32497179  1
  O2-  O511  1  0.65943472  0.57658435  0.64792934  1
  O2-  O512  1  0.67518928  0.56001887  0.98437587  1
  O2-  O513  1  0.68419992  0.75204360  0.25447081  1
  O2-  O514  1  0.66680949  0.82949627  0.64271895  1
  O2-  O515  1  0.66627302  0.85902921  0.98629134  1
  O2-  O516  1  0.84309025  0.04029344  0.30380949  1
  O2-  O517  1  0.84752240  0.06370316  0.60644136  1
  O2-  O518  1  0.94251194  0.09950620  0.98221929  1
  O2-  O519  1  0.92843180  0.32939220  0.32491874  1
  O2-  O520  1  0.91058919  0.32931607  0.64161443  1
  O2-  O521  1  0.90832383  0.32571733  0.97975549  1
  O2-  O522  1  0.92389148  0.55767038  0.30655545  1
  O2-  O523  1  0.88147681  0.56063685  0.64335180  1
  O2-  O524  1  0.91774261  0.57344239  0.97861298  1
  O2-  O525  1  0.84423074  0.78723008  0.28965811  1
  O2-  O526  1  0.91678710  0.82459176  0.65754255  1
  O2-  O527  1  0.92086284  0.82272236  0.98388404  1
  O2-  O528  1  0.09639690  0.17765627  0.02076853  1
  O2-  O529  1  0.17214071  0.20588791  0.36210117  1
  O2-  O530  1  0.18679708  0.21277900  0.70006954  1
  O2-  O531  1  0.06833674  0.41144377  0.03137612  1
  O2-  O532  1  0.09628020  0.43184719  0.35252713  1
  O2-  O533  1  0.08545529  0.40883923  0.68314315  1
  O2-  O534  1  0.08227785  0.67036000  0.02143195  1
  O2-  O535  1  0.08522470  0.66238341  0.35553024  1
  O2-  O536  1  0.05355252  0.60352827  0.64906246  1
  O2-  O537  1  0.08657983  0.91440747  0.02079551  1
  O2-  O538  1  0.05056158  0.92138112  0.34803324  1
  O2-  O539  1  0.08442747  0.89984129  0.70944906  1
  O2-  O540  1  0.34094399  0.17017784  0.01513818  1
  O2-  O541  1  0.33208104  0.15120792  0.34984544  1
  O2-  O542  1  0.33536824  0.14341971  0.69332955  1
  O2-  O543  1  0.30999927  0.45830782  0.02764621  1
  O2-  O544  1  0.33685363  0.41014036  0.34921429  1
  O2-  O545  1  0.32971115  0.47071898  0.71518078  1
  O2-  O546  1  0.31311383  0.62585808  0.01931469  1
  O2-  O547  1  0.27273992  0.63214959  0.33714532  1
  O2-  O548  1  0.35732305  0.67720008  0.66013425  1
  O2-  O549  1  0.32347257  0.91980114  0.02857866  1
  O2-  O550  1  0.38032718  0.98100293  0.34517531  1
  O2-  O551  1  0.33170028  0.92777978  0.69359733  1
  O2-  O552  1  0.56860367  0.15994250  0.02644783  1
  O2-  O553  1  0.58698356  0.16863333  0.35802726  1
  O2-  O554  1  0.57283996  0.15718141  0.68841623  1
  O2-  O555  1  0.57177526  0.39786556  0.01654043  1
  O2-  O556  1  0.56689719  0.39562867  0.35864733  1
  O2-  O557  1  0.57036391  0.40789081  0.68879060  1
  O2-  O558  1  0.63882709  0.68639157  0.01761867  1
  O2-  O559  1  0.56057870  0.65088697  0.34221050  1
  O2-  O560  1  0.59159231  0.66813845  0.69010384  1
  O2-  O561  1  0.56997401  0.91686326  0.03744134  1
  O2-  O562  1  0.48218447  0.90680160  0.39832743  1
  O2-  O563  1  0.58842027  0.91741497  0.68901942  1
  O2-  O564  1  0.84800073  0.16498055  0.02428861  1
  O2-  O565  1  0.84954040  0.16739758  0.37270537  1
  O2-  O566  1  0.82633613  0.16622950  0.68486532  1
  O2-  O567  1  0.82202839  0.40931701  0.01604686  1
  O2-  O568  1  0.83754413  0.40657337  0.35207977  1
  O2-  O569  1  0.81660665  0.39791291  0.68626652  1
  O2-  O570  1  0.84042725  0.65665201  0.02549040  1
  O2-  O571  1  0.81349036  0.65644378  0.37267760  1
  O2-  O572  1  0.82511923  0.66000145  0.69168061  1
  O2-  O573  1  0.86572387  0.92866943  0.02882290  1
  O2-  O574  1  0.83075579  0.90573722  0.36018879  1
  O2-  O575  1  0.83028040  0.89690973  0.70149013  1
