# generated using pymatgen
data_H2O
_symmetry_space_group_name_H-M   'P 1'
_cell_length_a   17.98797664
_cell_length_b   17.99395336
_cell_length_c   22.00049521
_cell_angle_alpha   90.02331379
_cell_angle_beta   89.96951629
_cell_angle_gamma   120.01894525
_symmetry_Int_Tables_number   1
_chemical_formula_structural   H2O
_chemical_formula_sum   'H384 O192'
_cell_volume   6165.79364221
_cell_formula_units_Z   192
loop_
 _symmetry_equiv_pos_site_id
 _symmetry_equiv_pos_as_xyz
  1  'x, y, z'
loop_
 _atom_type_symbol
 _atom_type_oxidation_number
  H+  1.0
  O2-  -2.0
loop_
 _atom_site_type_symbol
 _atom_site_label
 _atom_site_symmetry_multiplicity
 _atom_site_fract_x
 _atom_site_fract_y
 _atom_site_fract_z
 _atom_site_occupancy
  H+  H0  1  0.81872107  0.15738118  0.73169150  1
  H+  H1  1  0.97804111  0.37339998  0.32256801  1
  H+  H2  1  0.12877009  0.76192394  0.65886647  1
  H+  H3  1  0.47778533  0.86852191  0.83179115  1
  H+  H4  1  0.35688722  0.89250950  0.82587712  1
  H+  H5  1  0.88731416  0.02341440  0.99611157  1
  H+  H6  1  0.32589854  0.41304091  0.01128900  1
  H+  H7  1  0.35904398  0.13468489  0.15926608  1
  H+  H8  1  0.13534803  0.85884754  0.50708922  1
  H+  H9  1  0.88174460  0.52726394  0.18330165  1
  H+  H10  1  0.01375789  0.36336791  0.81711643  1
  H+  H11  1  0.96883539  0.85854920  0.50354954  1
  H+  H12  1  0.01919245  0.12957509  0.16284220  1
  H+  H13  1  0.79035976  0.44000447  0.01499190  1
  H+  H14  1  0.88559648  0.41118318  0.14989686  1
  H+  H15  1  0.62918291  0.86095017  0.16468948  1
  H+  H16  1  0.13262758  0.86386776  0.17892915  1
  H+  H17  1  0.83659129  0.17615140  0.22942586  1
  H+  H18  1  0.40378266  0.07659833  0.23439876  1
  H+  H19  1  0.64728728  0.75675644  0.79582663  1
  H+  H20  1  0.34513177  0.85239085  0.33365425  1
  H+  H21  1  0.61035331  0.44106127  0.01511200  1
  H+  H22  1  0.54499119  0.66991492  -0.01091102  1
  H+  H23  1  0.02585493  0.64057463  0.17225543  1
  H+  H24  1  0.88265139  0.86392839  0.50678458  1
  H+  H25  1  0.65132809  0.87375740  0.33490053  1
  H+  H26  1  0.14964976  0.82865504  0.24173653  1
  H+  H27  1  0.39347308  0.52134577  0.32184641  1
  H+  H28  1  0.36981390  0.14942489  0.49060296  1
  H+  H29  1  0.21503819  0.10699935  0.00051223  1
  H+  H30  1  0.63910488  0.11260452  0.84142264  1
  H+  H31  1  0.11162075  0.38432210  0.67078597  1
  H+  H32  1  0.87331755  0.90759112  0.35513577  1
  H+  H33  1  0.61393083  0.14622026  0.48552016  1
  H+  H34  1  0.86824758  0.50625012  0.80373706  1
  H+  H35  1  0.38386639  0.15659759  0.33881429  1
  H+  H36  1  0.62171342  0.91260437  0.49144900  1
  H+  H37  1  0.10418530  0.12624262  1.01027284  1
  H+  H38  1  0.83655701  0.53110419  0.24253907  1
  H+  H39  1  0.11396227  0.98055863  0.16329773  1
  H+  H40  1  0.86411648  0.14859538  0.34560338  1
  H+  H41  1  0.86426519  0.73887872  0.37075353  1
  H+  H42  1  0.13711916  0.61610426  0.17287579  1
  H+  H43  1  0.37368227  0.71319228  0.34145913  1
  H+  H44  1  0.25948925  0.91834106  0.35114796  1
  H+  H45  1  0.12458292  0.01887129  1.00196282  1
  H+  H46  1  0.85104040  0.88431532  0.14617057  1
  H+  H47  1  0.02862030  0.63171791  0.66356304  1
  H+  H48  1  0.26861992  0.38586426  0.16936720  1
  H+  H49  1  0.63357445  0.52163379  0.81245463  1
  H+  H50  1  0.62057501  0.09059724  0.17713866  1
  H+  H51  1  0.27838812  0.63159904  0.34332894  1
  H+  H52  1  0.63313982  0.66131991  0.80115781  1
  H+  H53  1  0.64262904  0.11067031  0.99976752  1
  H+  H54  1  0.77090251  0.89666560  0.49748671  1
  H+  H55  1  0.63325179  0.27998326  0.49293902  1
  H+  H56  1  0.35904239  0.19880472  -0.00354506  1
  H+  H57  1  0.34822060  0.87981136  0.68611931  1
  H+  H58  1  0.34114012  0.71630171  -0.00632786  1
  H+  H59  1  0.31324889  0.89400452  0.07106888  1
  H+  H60  1  0.63603259  0.36015540  0.66547080  1
  H+  H61  1  0.61921587  0.48790877  0.34030929  1
  H+  H62  1  0.48907277  0.76043358  0.28414336  1
  H+  H63  1  0.74034171  0.12679022  0.99674398  1
  H+  H64  1  0.88066782  0.77265175  0.16123730  1
  H+  H65  1  0.11362244  0.97307276  0.49019233  1
  H+  H66  1  0.38328052  0.02712778  0.50457691  1
  H+  H67  1  0.38967536  0.60731306  0.33007343  1
  H+  H68  1  0.40287753  0.61654390  0.65376916  1
  H+  H69  1  0.42585871  0.42034840  0.94047396  1
  H+  H70  1  0.37959122  0.29870992  0.65034310  1
  H+  H71  1  0.15560111  0.33369452  0.22929186  1
  H+  H72  1  0.91428826  0.66224235  0.34395821  1
  H+  H73  1  0.75979789  0.40396149  0.16062427  1
  H+  H74  1  0.85565610  0.63874758  0.17352735  1
  H+  H75  1  0.53058986  0.90803413  0.48912978  1
  H+  H76  1  0.62451821  0.58796633  0.53477648  1
  H+  H77  1  0.38628604  0.53607975  0.96494485  1
  H+  H78  1  0.63470826  0.36882116  0.49965754  1
  H+  H79  1  0.37792275  0.04539245  0.33556907  1
  H+  H80  1  0.62136593  0.89645857  0.81538360  1
  H+  H81  1  0.58270202  0.17337849  0.39092146  1
  H+  H82  1  0.26966632  0.88849854  0.50153943  1
  H+  H83  1  0.64771760  0.99748533  0.00745560  1
  H+  H84  1  0.23894934  0.12196140  0.32857920  1
  H+  H85  1  0.36328529  0.63873907  0.82385952  1
  H+  H86  1  0.07966709  0.93137409  0.29117615  1
  H+  H87  1  0.27435188  0.39129678  0.32207754  1
  H+  H88  1  0.77938695  0.88926944  -0.00877815  1
  H+  H89  1  0.38284221  0.11149506  0.84874469  1
  H+  H90  1  0.56582536  0.90666768  0.00115784  1
  H+  H91  1  0.13776189  0.28245469  0.32370342  1
  H+  H92  1  0.39306636  0.26062152  0.33410248  1
  H+  H93  1  0.63637466  0.12058917  0.32549220  1
  H+  H94  1  0.19840221  0.61157251  -0.00087545  1
  H+  H95  1  0.11746835  0.09998495  0.66336052  1
  H+  H96  1  0.37006003  0.39909955  0.81609436  1
  H+  H97  1  0.10422169  0.62412265  0.81261254  1
  H+  H98  1  0.26996346  0.62376254  0.66861317  1
  H+  H99  1  0.23066071  0.59020663  0.51510157  1
  H+  H100  1  0.76342880  0.62604198  0.78035938  1
  H+  H101  1  0.20926649  0.10524030  0.84814343  1
  H+  H102  1  0.77228302  0.64693998  0.16889656  1
  H+  H103  1  0.87147558  0.23875928  0.00403287  1
  H+  H104  1  0.37218039  0.09780110  0.66256275  1
  H+  H105  1  0.94300067  0.63306181  0.28367071  1
  H+  H106  1  0.62879323  0.78977110  0.95366768  1
  H+  H107  1  0.11336900  0.97514469  0.83479134  1
  H+  H108  1  0.73037434  0.37309908  0.32390750  1
  H+  H109  1  0.63736328  0.33253178  -0.01648211  1
  H+  H110  1  0.38476057  0.38838660  0.66219905  1
  H+  H111  1  0.88886946  0.61274166  0.96363281  1
  H+  H112  1  0.64431805  0.62587623  0.33849601  1
  H+  H113  1  1.02707392  0.39649770  0.15789034  1
  H+  H114  1  0.88226178  0.10550762  0.17997998  1
  H+  H115  1  0.36614002  0.48913527  0.66947433  1
  H+  H116  1  0.61319215  -0.02057661  0.82657907  1
  H+  H117  1  0.09469513  0.38313900  0.00038998  1
  H+  H118  1  0.34380658  0.10886211  0.01228195  1
  H+  H119  1  0.36557373  0.53962876  -0.00616619  1
  H+  H120  1  0.01549335  0.62231810  0.80492187  1
  H+  H121  1  0.37834103  0.01335318  0.66189556  1
  H+  H122  1  0.38647657  0.88517588  0.34835300  1
  H+  H123  1  0.26367058  0.87484431  0.17052598  1
  H+  H124  1  0.32470764  0.18069332  0.66315817  1
  H+  H125  1  0.48517122  0.31389309  -0.03663771  1
  H+  H126  1  0.14499405  0.03320437  0.32974154  1
  H+  H127  1  0.85630319  0.71409763  0.00717595  1
  H+  H128  1  0.35706257  0.98151812  0.83363777  1
  H+  H129  1  0.13139678  0.60446467  0.66034527  1
  H+  H130  1  0.47165367  0.85149938  0.16229600  1
  H+  H131  1  0.36907679  1.00827699  0.17830557  1
  H+  H132  1  0.63594395  0.42289089  0.15856986  1
  H+  H133  1  0.75448956  0.90126171  0.81686206  1
  H+  H134  1  0.25126424  0.87276176  0.01155120  1
  H+  H135  1  0.62860313  0.68669161  0.49093688  1
  H+  H136  1  0.96843609  0.36622863  0.99025344  1
  H+  H137  1  0.63367081  0.80379786  0.50047901  1
  H+  H138  1  0.10194522  0.46365903  0.49603372  1
  H+  H139  1  0.49896205  0.11800327  0.67680519  1
  H+  H140  1  0.10421595  0.21595501  0.67515218  1
  H+  H141  1  0.22158976  0.37142973  0.66315159  1
  H+  H142  1  0.34693486  0.84361649  0.98783934  1
  H+  H143  1  0.00968328  0.37637095  0.48927681  1
  H+  H144  1  0.84666212  0.22009499  0.67337564  1
  H+  H145  1  0.78928514  0.18776058  0.49988721  1
  H+  H146  1  0.12972781  0.51445629  0.82689513  1
  H+  H147  1  0.46178642  0.08720247  1.00041066  1
  H+  H148  1  0.60948810  -0.03264978  0.16337022  1
  H+  H149  1  0.58577267  0.18944593  0.17071352  1
  H+  H150  1  0.13517000  0.10931290  0.51085135  1
  H+  H151  1  0.52101848  0.13861604  0.48505597  1
  H+  H152  1  0.88008565  0.36568329  -0.01631432  1
  H+  H153  1  0.38115434  0.63313436  0.49901671  1
  H+  H154  1  0.43576665  0.85010562  0.98076879  1
  H+  H155  1  0.25389891  0.63295459  0.15560913  1
  H+  H156  1  0.02308670  0.89269555  0.15848264  1
  H+  H157  1  0.51782236  0.89386243  0.67680153  1
  H+  H158  1  0.62626104  0.26816586  0.67047160  1
  H+  H159  1  0.66702396  0.85996279  0.56266590  1
  H+  H160  1  0.12910566  0.86571598  -0.00541614  1
  H+  H161  1  0.13046323  0.36778066  0.32354576  1
  H+  H162  1  0.85522642  0.10708611  0.82037906  1
  H+  H163  1  0.35622587  0.72683526  0.15399905  1
  H+  H164  1  0.48135354  0.37009555  0.16923604  1
  H+  H165  1  0.37110798  -0.00047345  0.99948628  1
  H+  H166  1  0.07696771  0.41461953  0.39821050  1
  H+  H167  1  0.05994850  0.76165998  0.31487405  1
  H+  H168  1  0.72111350  0.32348660  0.97961328  1
  H+  H169  1  0.21231760  0.85556883  0.66367264  1
  H+  H170  1  0.11211972  0.73115620  0.17351022  1
  H+  H171  1  0.49691571  0.10559937  0.16391857  1
  H+  H172  1  0.61470899  -0.01823588  0.33751684  1
  H+  H173  1  0.89387272  0.25303556  0.83537255  1
  H+  H174  1  0.56249499  0.14871160  0.74234555  1
  H+  H175  1  0.88138411  0.02261527  0.51624745  1
  H+  H176  1  0.68164892  0.59329044  0.86183193  1
  H+  H177  1  0.11073650  0.52406688  0.99844621  1
  H+  H178  1  0.85930480  0.39771347  0.33149576  1
  H+  H179  1  0.22815068  0.11816546  0.17343555  1
  H+  H180  1  0.64956797  1.04855776  0.50229476  1
  H+  H181  1  0.48014434  0.36162181  0.80533912  1
  H+  H182  1  0.35525926  0.72247586  0.81596928  1
  H+  H183  1  0.60792471  0.22050033  0.81972878  1
  H+  H184  1  0.66594841  0.71152725  0.03489896  1
  H+  H185  1  0.41612941  0.83158884  0.55775486  1
  H+  H186  1  0.15900534  0.33558848  0.60476376  1
  H+  H187  1  0.75513182  0.62694133  0.50830150  1
  H+  H188  1  0.88748122  0.28877302  0.17292962  1
  H+  H189  1  0.41100744  0.33459287  0.75442997  1
  H+  H190  1  0.51765232  0.13158955  0.83129767  1
  H+  H191  1  0.37329787  0.76065821  0.68125592  1
  H+  H192  1  0.85156513  -0.02725911  0.15593065  1
  H+  H193  1  0.62367907  1.03224658  0.65758458  1
  H+  H194  1  0.45430834  0.54366384  0.51458395  1
  H+  H195  1  0.51954487  0.63597125  0.17162124  1
  H+  H196  1  0.63609064  0.57761252  1.03880551  1
  H+  H197  1  0.87477041  0.10869179  0.66339379  1
  H+  H198  1  0.61447252  0.23467006  0.33174999  1
  H+  H199  1  0.96644525  0.07715326  0.81685298  1
  H+  H200  1  0.52526061  0.65545047  0.49958276  1
  H+  H201  1  0.40553912  0.82342197  0.73642678  1
  H+  H202  1  -0.02708364  0.12044227  0.32895305  1
  H+  H203  1  0.53298940  0.62448859  0.66134734  1
  H+  H204  1  0.52712373  0.39370079  0.66904216  1
  H+  H205  1  0.71255802  0.12310377  0.66368696  1
  H+  H206  1  0.96065807  0.35464323  0.65465347  1
  H+  H207  1  0.14704194  0.61245250  0.33000249  1
  H+  H208  1  0.84714072  0.37891653  0.48110557  1
  H+  H209  1  0.11401043  0.47784799  0.34009107  1
  H+  H210  1  0.18266656  0.23654291  0.38975496  1
  H+  H211  1  0.36912546  0.23925498  0.49175500  1
  H+  H212  1  0.72909041  0.59212946  0.67362349  1
  H+  H213  1  0.09891239  0.87154383  0.68119269  1
  H+  H214  1  0.47796786  0.12386720  0.32485347  1
  H+  H215  1  0.89481331  0.92944585  0.83303924  1
  H+  H216  1  0.62091630  0.47782067  0.66986323  1
  H+  H217  1  0.72352360  0.86145289  0.16213613  1
  H+  H218  1  0.13259368  0.72422047  0.35546411  1
  H+  H219  1  0.19313172  0.34562947  0.99819834  1
  H+  H220  1  0.95811911  0.85159170  0.66667623  1
  H+  H221  1  0.13585162  0.72485490  0.50587933  1
  H+  H222  1  0.47924393  0.37715957  0.50116647  1
  H+  H223  1  0.39488702  0.52764422  0.17468809  1
  H+  H224  1  0.49198649  0.37329556  0.32428626  1
  H+  H225  1  0.88462025  0.85725961  0.99146245  1
  H+  H226  1  0.13852942  0.52612247  0.16721026  1
  H+  H227  1  0.33070759  0.62111628  -0.00442291  1
  H+  H228  1  0.73495297  0.62686232  0.34217006  1
  H+  H229  1  0.35476479  0.21832112  0.81622901  1
  H+  H230  1  0.21712241  0.60233680  0.82634515  1
  H+  H231  1  1.01354669  0.12986035  0.67287623  1
  H+  H232  1  0.89393832  0.11943138  0.00039614  1
  H+  H233  1  0.67021429  0.32155231  0.15409033  1
  H+  H234  1  0.52790500  0.64063250  0.34013749  1
  H+  H235  1  0.96984296  0.10931112  0.51880299  1
  H+  H236  1  0.39540194  0.27630951  0.16932628  1
  H+  H237  1  0.62857743  0.61695181  0.66386303  1
  H+  H238  1  0.14342342  0.15513757  0.34801628  1
  H+  H239  1  0.10569376  0.26295267  0.98463308  1
  H+  H240  1  0.63850183  0.88016819  0.65003078  1
  H+  H241  1  0.22738626  0.87223073  0.84746345  1
  H+  H242  1  0.21268219  0.35877157  0.51311238  1
  H+  H243  1  0.13003548  0.27383648  0.17001790  1
  H+  H244  1  0.72382934  0.87270368  0.64993143  1
  H+  H245  1  0.84123575  0.19323931  0.39990741  1
  H+  H246  1  0.12033918  0.35188647  0.50990817  1
  H+  H247  1  0.89235671  0.59569283  0.66993881  1
  H+  H248  1  0.39083847  0.76751778  0.50284650  1
  H+  H249  1  0.35290292  0.87415064  0.16678656  1
  H+  H250  1  0.78004340  0.90027788  0.34567362  1
  H+  H251  1  0.85004382  -0.02912221  0.67252544  1
  H+  H252  1  0.88843185  0.79697565  0.83118241  1
  H+  H253  1  0.11046329  0.37414430  0.81337289  1
  H+  H254  1  0.72493322  0.57965636  1.03406095  1
  H+  H255  1  0.12390393  0.77261172  -0.00232308  1
  H+  H256  1  0.87848211  0.49939622  -0.01712854  1
  H+  H257  1  0.99353459  0.88804606  0.34805255  1
  H+  H258  1  0.87292819  0.59672193  0.80143516  1
  H+  H259  1  0.84621342  0.71965378  0.50520582  1
  H+  H260  1  0.76375157  0.13114705  0.18183444  1
  H+  H261  1  -0.00648826  0.11749909  0.00717104  1
  H+  H262  1  0.61583080  0.38517438  0.81692330  1
  H+  H263  1  0.88548075  0.03079719  0.33322266  1
  H+  H264  1  0.15029757  0.60480750  0.51455914  1
  H+  H265  1  0.66381195  0.88466262  0.97527440  1
  H+  H266  1  0.87299809  0.35211170  0.66434975  1
  H+  H267  1  0.41763668  0.40320684  -0.02747793  1
  H+  H268  1  0.65010776  0.78474525  0.33411618  1
  H+  H269  1  0.40032422  0.54117845  0.84381616  1
  H+  H270  1  0.34125795  0.47543400  0.50087116  1
  H+  H271  1  0.04310596  0.64471800  0.35599561  1
  H+  H272  1  0.61736498  0.64733025  0.17903770  1
  H+  H273  1  0.07777137  0.91419051  0.06844662  1
  H+  H274  1  0.75305468  0.36786456  0.69787973  1
  H+  H275  1  0.60013240  0.19901994  0.00646938  1
  H+  H276  1  0.72281895  0.35188868  0.81207218  1
  H+  H277  1  0.61643749  0.48336594  0.50423439  1
  H+  H278  1  0.88691915  0.30158179  0.55340223  1
  H+  H279  1  0.01566759  0.88087676  0.00919348  1
  H+  H280  1  0.64177223  0.54345131  0.18998860  1
  H+  H281  1  0.13257201  0.87387282  0.84452475  1
  H+  H282  1  0.48494740  0.70834127  0.97577099  1
  H+  H283  1  0.10981079  0.47753454  0.67371618  1
  H+  H284  1  0.16217178  0.83896591  -0.08978705  1
  H+  H285  1  0.10734643  0.22124346  0.50725588  1
  H+  H286  1  0.09569020  0.64660119  1.01322581  1
  H+  H287  1  0.87374351  0.51839010  0.50907106  1
  H+  H288  1  0.62234656  0.48098847  0.10986965  1
  H+  H289  1  0.98452760  0.87023200  0.84130394  1
  H+  H290  1  0.88858691  0.28590650  0.32163690  1
  H+  H291  1  0.77358913  0.11971135  0.82800288  1
  H+  H292  1  0.07420063  0.15812930  0.07151420  1
  H+  H293  1  0.91275338  0.83042149  0.30648591  1
  H+  H294  1  0.11361676  0.39153109  0.15632390  1
  H+  H295  1  0.08051681  0.16293968  0.44818297  1
  H+  H296  1  0.33151220  0.16525324  0.09937561  1
  H+  H297  1  0.90004489  0.57256826  0.90078159  1
  H+  H298  1  0.10926645  0.66334994  0.44862566  1
  H+  H299  1  0.31843394  0.92106543  0.73710435  1
  H+  H300  1  0.29562553  0.38928924  0.07892303  1
  H+  H301  1  0.82688358  0.42326802  0.39075582  1
  H+  H302  1  0.11282020  0.86105239  0.32949578  1
  H+  H303  1  0.36006180  0.38498337  0.32455846  1
  H+  H304  1  0.31891133  0.66449281  0.09078527  1
  H+  H305  1  0.35733084  0.38429446  0.16616052  1
  H+  H306  1  0.42414127  0.58526612  0.23479113  1
  H+  H307  1  0.09681850  0.95954411  0.68162828  1
  H+  H308  1  0.58587678  0.43148244  0.43838944  1
  H+  H309  1  0.67373720  0.34870460  0.26352939  1
  H+  H310  1  0.42048386  0.35241081  0.56003862  1
  H+  H311  1  0.76209285  0.38568757  0.48245456  1
  H+  H312  1  0.90137449  0.84142689  0.21233437  1
  H+  H313  1  0.67558504  0.32596194  0.87873361  1
  H+  H314  1  0.59672257  0.66379865  0.08654621  1
  H+  H315  1  0.35409330  0.19038004  0.40200247  1
  H+  H316  1  0.91332891  0.07305436  0.23487797  1
  H+  H317  1  0.28607839  0.40460174  0.82783340  1
  H+  H318  1  0.84475103  0.66339464  0.06830453  1
  H+  H319  1  0.60437584  0.67630035  0.71710494  1
  H+  H320  1  0.72602323  0.12163837  0.32953105  1
  H+  H321  1  0.84988652  0.18474410  0.06573126  1
  H+  H322  1  0.11128644  0.13516439  0.16269573  1
  H+  H323  1  0.16168480  0.83283140  0.57032161  1
  H+  H324  1  0.58596797  0.92702940  0.39865979  1
  H+  H325  1  0.84655031  0.88082273  0.66957965  1
  H+  H326  1  0.91897440  0.58043081  0.60338418  1
  H+  H327  1  0.60142508  0.12385993  0.67456760  1
  H+  H328  1  0.58277355  0.68026591  0.40122505  1
  H+  H329  1  0.90990097  0.83204690  0.60344932  1
  H+  H330  1  0.08440159  0.91078417  0.77396389  1
  H+  H331  1  0.58583540  0.93150085  0.72909627  1
  H+  H332  1  0.16366955  0.33609039  0.89767361  1
  H+  H333  1  0.41085767  0.29317287  0.91699494  1
  H+  H334  1  0.41063229  0.07576103  0.90676231  1
  H+  H335  1  0.61941145  0.39836394  0.33712791  1
  H+  H336  1  0.72092008  0.57116219  0.93015635  1
  H+  H337  1  0.08084426  0.68670644  0.07260936  1
  H+  H338  1  0.67509590  0.57081870  0.60310178  1
  H+  H339  1  0.08774102  0.66039941  0.72362822  1
  H+  H340  1  0.07291609  0.41549775  0.06235501  1
  H+  H341  1  0.67117466  0.08619682  0.90147801  1
  H+  H342  1  0.31183196  0.14002978  0.77215296  1
  H+  H343  1  0.14900328  0.07133229  0.90593547  1
  H+  H344  1  0.82569015  0.91647853  0.05673121  1
  H+  H345  1  0.33441125  0.43442795  0.73205717  1
  H+  H346  1  0.17304987  0.09165136  0.23493595  1
  H+  H347  1  0.40372771  0.83021996  0.88324229  1
  H+  H348  1  0.22531647  0.11251587  0.50771876  1
  H+  H349  1  0.83398145  0.92846487  0.44052154  1
  H+  H350  1  0.69418549  0.85907997  0.87377529  1
  H+  H351  1  0.72788208  0.61623852  0.93291814  1
  H+  H352  1  0.32986945  0.65191003  0.72713648  1
  H+  H353  1  0.16135223  0.56546034  0.60429309  1
  H+  H354  1  0.41717584  0.08728912  0.56241507  1
  H+  H355  1  0.67715571  0.60367050  0.24976984  1
  H+  H356  1  0.23603143  0.09742813  0.67156906  1
  H+  H357  1  0.34211078  0.65619726  0.44170777  1
  H+  H358  1  0.43010488  0.33307561  0.26282130  1
  H+  H359  1  0.42727185  0.81232319  0.22513283  1
  H+  H360  1  0.35827656  0.88857075  0.48994762  1
  H+  H361  1  0.17408217  0.58416374  0.26809568  1
  H+  H362  1  0.58986295  0.41525307  0.75569557  1
  H+  H363  1  0.59458341  0.92027840  0.09849728  1
  H+  H364  1  0.07558038  0.40530804  0.73989699  1
  H+  H365  1  0.82537314  0.66432347  0.42034276  1
  H+  H366  1  0.08697162  0.91695632  0.43048631  1
  H+  H367  1  0.65608608  0.07079832  0.23826316  1
  H+  H368  1  0.45986378  0.62340677  0.88677610  1
  H+  H369  1  0.90809408  0.08151829  0.60492285  1
  H+  H370  1  0.31300792  0.94814540  0.41216910  1
  H+  H371  1  0.35148990  0.39287765  0.49693377  1
  H+  H372  1  0.57025757  0.14420338  0.06913505  1
  H+  H373  1  0.50618681  0.84542180  0.31649787  1
  H+  H374  1  0.92160002  0.35115198  0.22937243  1
  H+  H375  1  0.62754960  0.76296983  0.17074915  1
  H+  H376  1  0.86889393  0.60326045  0.51555183  1
  H+  H377  1  0.14610938  0.06497076  0.60474021  1
  H+  H378  1  0.66882087  0.10495945  0.56211001  1
  H+  H379  1  0.86577806  0.45222142  0.09002546  1
  H+  H380  1  0.43565438  0.58681689  0.59346544  1
  H+  H381  1  0.92109860  0.32142258  0.88944193  1
  H+  H382  1  0.55578944  0.35688691  0.05196615  1
  H+  H383  1  0.91593181  0.82783084  0.93396515  1
  O2-  O384  1  0.07847353  0.16213893  0.14580778  1
  O2-  O385  1  0.08050204  0.15996162  0.49291087  1
  O2-  O386  1  0.17430649  0.27115526  0.83114601  1
  O2-  O387  1  0.08702225  0.42596256  0.14174254  1
  O2-  O388  1  0.07061031  0.40517587  0.47661845  1
  O2-  O389  1  0.07485147  0.39828093  0.79758137  1
  O2-  O390  1  0.08500581  0.67020593  0.15773419  1
  O2-  O391  1  0.11768668  0.66545792  0.49301498  1
  O2-  O392  1  0.07702952  0.65564673  0.79436686  1
  O2-  O393  1  0.08493198  0.91995831  0.14798769  1
  O2-  O394  1  0.08346698  0.91271450  0.47486661  1
  O2-  O395  1  0.08656205  0.91229882  0.82036398  1
  O2-  O396  1  0.33444965  0.17039713  0.14499925  1
  O2-  O397  1  0.34111520  0.18017575  0.47317770  1
  O2-  O398  1  0.32259381  0.15448643  0.81581940  1
  O2-  O399  1  0.32840448  0.41600055  0.15258747  1
  O2-  O400  1  0.31151239  0.41475632  0.48893385  1
  O2-  O401  1  0.34499307  0.43677610  0.81063764  1
  O2-  O402  1  0.31761960  0.66607677  0.13685968  1
  O2-  O403  1  0.34593299  0.65958802  0.48688740  1
  O2-  O404  1  0.32924837  0.66225539  0.80275353  1
  O2-  O405  1  0.32254205  0.90400063  0.15197123  1
  O2-  O406  1  0.32921385  0.92232386  0.48316683  1
  O2-  O407  1  0.32247462  0.92099325  0.81747499  1
  O2-  O408  1  0.55954257  0.13444793  0.14964754  1
  O2-  O409  1  0.57910959  0.16918138  0.46630280  1
  O2-  O410  1  0.57435075  0.15670021  0.80973131  1
  O2-  O411  1  0.59820706  0.44677243  0.14793721  1
  O2-  O412  1  0.57870586  0.42341512  0.48274665  1
  O2-  O413  1  0.58573321  0.41560050  0.80196220  1
  O2-  O414  1  0.58501474  0.67300831  0.15851186  1
  O2-  O415  1  0.58460915  0.69885467  0.47638671  1
  O2-  O416  1  0.61092033  0.69640882  0.78247677  1
  O2-  O417  1  0.58198113  0.90916863  0.14288059  1
  O2-  O418  1  0.59045276  0.94278346  0.47454683  1
  O2-  O419  1  0.58248337  0.92079351  0.80805691  1
  O2-  O420  1  0.82813912  0.16730961  0.18549324  1
  O2-  O421  1  0.84965948  0.21842414  0.48403016  1
  O2-  O422  1  0.83187166  0.14494594  0.80971425  1
  O2-  O423  1  0.86113695  0.44752510  0.13542006  1
  O2-  O424  1  0.82396943  0.41500195  0.46673231  1
  O2-  O425  1  0.81192967  0.39991335  0.77818914  1
  O2-  O426  1  0.83176922  0.67059563  0.15171525  1
  O2-  O427  1  0.81548383  0.65962819  0.48954840  1
  O2-  O428  1  0.82202391  0.65033234  0.76247779  1
  O2-  O429  1  0.81852661  0.91458241  0.13616858  1
  O2-  O430  1  0.83258136  0.92023116  0.48532699  1
  O2-  O431  1  0.86935927  0.96174881  0.81348674  1
  O2-  O432  1  0.16802631  0.08721803  0.18959700  1
  O2-  O433  1  0.16562125  0.07723339  0.52226365  1
  O2-  O434  1  0.14933635  0.06674383  0.86103468  1
  O2-  O435  1  0.15924479  0.33469641  0.18352441  1
  O2-  O436  1  0.15162232  0.32483194  0.52863522  1
  O2-  O437  1  0.17686162  0.34570243  0.85250683  1
  O2-  O438  1  0.17145894  0.58743348  0.18280404  1
  O2-  O439  1  0.16970062  0.56253434  0.52794294  1
  O2-  O440  1  0.15686170  0.57444520  0.84029815  1
  O2-  O441  1  0.15989551  0.83195672  0.19636761  1
  O2-  O442  1  0.16985142  0.83498004  0.52500321  1
  O2-  O443  1  0.16592203  0.84379649  0.86309329  1
  O2-  O444  1  0.40212526  0.07089816  0.18904202  1
  O2-  O445  1  0.41546377  0.08905872  0.51749320  1
  O2-  O446  1  0.41457349  0.08148550  0.86135260  1
  O2-  O447  1  0.42376090  0.33539804  0.18761470  1
  O2-  O448  1  0.41671639  0.34503611  0.51554711  1
  O2-  O449  1  0.41574872  0.33171114  0.79854822  1
  O2-  O450  1  0.42926177  0.58785611  0.18925646  1
  O2-  O451  1  0.44596521  0.59145615  0.52579769  1
  O2-  O452  1  0.41747492  0.60121653  0.85395811  1
  O2-  O453  1  0.41376319  0.81888060  0.18163411  1
  O2-  O454  1  0.41538663  0.83014624  0.51348687  1
  O2-  O455  1  0.41386639  0.83891455  0.83891024  1
  O2-  O456  1  0.65580929  0.06581693  0.19236503  1
  O2-  O457  1  0.67742688  0.10918491  0.51755557  1
  O2-  O458  1  0.66865583  0.08197323  0.85633240  1
  O2-  O459  1  0.69858516  0.37598078  0.17580452  1
  O2-  O460  1  0.66792220  0.33940681  0.50791959  1
  O2-  O461  1  0.66438891  0.32310802  0.83475438  1
  O2-  O462  1  0.67405135  0.60455629  0.20350017  1
  O2-  O463  1  0.66469689  0.56688393  0.53713970  1
  O2-  O464  1  0.66613139  0.58579190  0.81873284  1
  O2-  O465  1  0.66183260  0.83059603  0.17850447  1
  O2-  O466  1  0.66794803  0.86413052  0.51524048  1
  O2-  O467  1  0.69332405  0.86332273  0.82882541  1
  O2-  O468  1  0.91078658  0.07165114  0.18929317  1
  O2-  O469  1  0.90960112  0.08226924  0.53252829  1
  O2-  O470  1  0.91396752  0.04771294  0.84161299  1
  O2-  O471  1  0.92151839  0.35031004  0.18318490  1
  O2-  O472  1  0.88942147  0.30714104  0.50814810  1
  O2-  O473  1  0.92708420  0.31510071  0.84550040  1
  O2-  O474  1  0.88131016  0.56879850  0.21390635  1
  O2-  O475  1  0.90162872  0.57534075  0.52877446  1
  O2-  O476  1  0.89608852  0.56448488  0.82322371  1
  O2-  O477  1  0.90811823  0.83710861  0.16879729  1
  O2-  O478  1  0.91004723  0.83017507  0.52045163  1
  O2-  O479  1  0.92348086  0.84881199  0.85509192  1
  O2-  O480  1  0.17878083  0.09716198  0.31556127  1
  O2-  O481  1  0.14438786  0.06389377  0.64984566  1
  O2-  O482  1  0.15331575  0.08026563  0.98802113  1
  O2-  O483  1  0.16046011  0.33933527  0.30405328  1
  O2-  O484  1  0.16011818  0.33948835  0.65046565  1
  O2-  O485  1  0.13851110  0.32412356  0.97346350  1
  O2-  O486  1  0.17560896  0.58111803  0.31294944  1
  O2-  O487  1  0.15912846  0.56754162  0.64998998  1
  O2-  O488  1  0.13655545  0.58688283  0.99354826  1
  O2-  O489  1  0.12030319  0.81098433  0.31508405  1
  O2-  O490  1  0.15302236  0.82493065  0.64733173  1
  O2-  O491  1  0.15853353  0.83458493  0.97909718  1
  O2-  O492  1  0.41623304  0.10033858  0.31211501  1
  O2-  O493  1  0.41028043  0.07544125  0.64829930  1
  O2-  O494  1  0.40194499  0.06025108  0.98479870  1
  O2-  O495  1  0.43008862  0.33443551  0.30888859  1
  O2-  O496  1  0.41912050  0.36005706  0.64757505  1
  O2-  O497  1  0.43304840  0.26665355  0.94456012  1
  O2-  O498  1  0.42506656  0.58476111  0.31126109  1
  O2-  O499  1  0.43138937  0.58385014  0.64126090  1
  O2-  O500  1  0.52667207  0.69630652  0.95665917  1
  O2-  O501  1  0.46145500  0.79427165  0.29246581  1
  O2-  O502  1  0.40260197  0.82420149  0.69202730  1
  O2-  O503  1  0.37737448  0.81608211  0.96559823  1
  O2-  O504  1  0.66681511  0.08911347  0.31242380  1
  O2-  O505  1  0.65116294  0.09545496  0.64720440  1
  O2-  O506  1  0.68027077  0.08958272  0.98193672  1
  O2-  O507  1  0.66795243  0.34232197  0.30792851  1
  O2-  O508  1  0.66731864  0.32786680  0.66060316  1
  O2-  O509  1  0.66124486  0.29708563  0.96658676  1
  O2-  O510  1  0.67619667  0.59671449  0.32313976  1
  O2-  O511  1  0.67003398  0.57302305  0.65123536  1
  O2-  O512  1  0.66240735  0.54069032  1.04348414  1
  O2-  O513  1  0.68377066  0.84566908  0.32094872  1
  O2-  O514  1  0.66494823  0.85023147  0.63009448  1
  O2-  O515  1  0.68192441  0.84737142  0.95425755  1
  O2-  O516  1  0.91403609  0.09093823  0.31365012  1
  O2-  O517  1  0.90895596  0.08197720  0.65126481  1
  O2-  O518  1  0.92389197  0.08741981  0.98785383  1
  O2-  O519  1  0.91910603  0.34470662  0.30391334  1
  O2-  O520  1  0.89990351  0.32359864  0.64209036  1
  O2-  O521  1  0.90772097  0.33153295  0.97397031  1
  O2-  O522  1  0.96448742  0.66341860  0.32240378  1
  O2-  O523  1  0.93280279  0.58317341  0.64780965  1
  O2-  O524  1  0.91014001  0.57686363  0.94581262  1
  O2-  O525  1  0.92540717  0.85076484  0.34817859  1
  O2-  O526  1  0.90150704  0.83114231  0.64795179  1
  O2-  O527  1  0.91275500  0.82399524  0.97934810  1
  O2-  O528  1  0.06999924  0.15470220  0.02537044  1
  O2-  O529  1  0.12898480  0.19643870  0.36946771  1
  O2-  O530  1  0.07535394  0.15440440  0.68467842  1
  O2-  O531  1  0.06570587  0.41381309  0.01735779  1
  O2-  O532  1  0.07859740  0.41631369  0.35262414  1
  O2-  O533  1  0.07776801  0.41287612  0.68753797  1
  O2-  O534  1  0.07668481  0.68742485  0.02812450  1
  O2-  O535  1  0.10353491  0.66293852  0.36693962  1
  O2-  O536  1  0.09210098  0.66227860  0.67702705  1
  O2-  O537  1  0.07686648  0.91501184  0.02309134  1
  O2-  O538  1  0.08747571  0.93534314  0.33530550  1
  O2-  O539  1  0.07181480  0.90216438  0.70131890  1
  O2-  O540  1  0.32135721  0.14807476  0.02271415  1
  O2-  O541  1  0.35708408  0.19255441  0.35500208  1
  O2-  O542  1  0.29967062  0.12706358  0.68562473  1
  O2-  O543  1  0.27832481  0.37096174  0.03583589  1
  O2-  O544  1  0.33444419  0.41972379  0.33672424  1
  O2-  O545  1  0.33130140  0.42880697  0.68659292  1
  O2-  O546  1  0.31838955  0.66125811  0.01722215  1
  O2-  O547  1  0.33726540  0.65690980  0.36115963  1
  O2-  O548  1  0.33154125  0.65612316  0.68144367  1
  O2-  O549  1  0.31263212  0.89504233  0.02568795  1
  O2-  O550  1  0.30068286  0.96918847  0.37344098  1
  O2-  O551  1  0.32144001  0.91652004  0.69201055  1
  O2-  O552  1  0.57161487  0.14000717  0.02406446  1
  O2-  O553  1  0.58252884  0.17311390  0.34493755  1
  O2-  O554  1  0.56098796  0.14743882  0.69459128  1
  O2-  O555  1  0.57880949  0.37660383  0.01118351  1
  O2-  O556  1  0.58546647  0.42549447  0.35112822  1
  O2-  O557  1  0.58602781  0.41520342  0.68425505  1
  O2-  O558  1  0.61045716  0.66007833  0.04209949  1
  O2-  O559  1  0.58798389  0.67439825  0.35618258  1
  O2-  O560  1  0.59616088  0.65408190  0.67221729  1
  O2-  O561  1  0.62131732  0.93480734  0.02152389  1
  O2-  O562  1  0.58825813  0.92194777  0.35314526  1
  O2-  O563  1  0.57989985  0.93317258  0.68393250  1
  O2-  O564  1  0.84642249  0.17800884  0.02160696  1
  O2-  O565  1  0.83467200  0.18154940  0.35549096  1
  O2-  O566  1  0.81030601  0.15931107  0.68698456  1
  O2-  O567  1  0.84646184  0.44436444  0.01160131  1
  O2-  O568  1  0.82572364  0.42460702  0.34488273  1
  O2-  O569  1  0.81359994  0.38889528  0.71482087  1
  O2-  O570  1  0.83276758  0.65522603  0.02421654  1
  O2-  O571  1  0.83562398  0.67548080  0.37406294  1
  O2-  O572  1  0.80359336  0.60055002  0.70575943  1
  O2-  O573  1  0.83636958  0.92076046  0.01198363  1
  O2-  O574  1  0.84100452  0.93886130  0.36144228  1
  O2-  O575  1  0.81323423  0.90910051  0.68235813  1
