# generated using pymatgen
data_H2O
_symmetry_space_group_name_H-M   'P 1'
_cell_length_a   17.99077883
_cell_length_b   18.00089130
_cell_length_c   22.00106636
_cell_angle_alpha   90.00703150
_cell_angle_beta   90.02272075
_cell_angle_gamma   120.00837675
_symmetry_Int_Tables_number   1
_chemical_formula_structural   H2O
_chemical_formula_sum   'H384 O192'
_cell_volume   6169.94947777
_cell_formula_units_Z   192
loop_
 _symmetry_equiv_pos_site_id
 _symmetry_equiv_pos_as_xyz
  1  'x, y, z'
loop_
 _atom_type_symbol
 _atom_type_oxidation_number
  H+  1.0
  O2-  -2.0
loop_
 _atom_site_type_symbol
 _atom_site_label
 _atom_site_symmetry_multiplicity
 _atom_site_fract_x
 _atom_site_fract_y
 _atom_site_fract_z
 _atom_site_occupancy
  H+  H0  1  0.50429816  0.34059540  0.47801111  1
  H+  H1  1  0.63060863  0.79573371  0.16232860  1
  H+  H2  1  1.03431018  0.15679968  0.18555020  1
  H+  H3  1  0.27495799  0.64457176  0.34183781  1
  H+  H4  1  0.36824197  0.59532748  0.86769913  1
  H+  H5  1  0.78852536  0.67511817  0.81118092  1
  H+  H6  1  0.12703566  0.76522045  0.49686780  1
  H+  H7  1  0.00970075  0.63754158  0.66302112  1
  H+  H8  1  0.62254274  0.15490605  0.34788772  1
  H+  H9  1  0.45338730  0.61041696  0.15891456  1
  H+  H10  1  0.12272837  -0.02344130  0.50421076  1
  H+  H11  1  0.37177308  0.78546463  0.67046619  1
  H+  H12  1  0.36735887  0.22847762  1.00732875  1
  H+  H13  1  0.04648634  0.64143981  -0.00059266  1
  H+  H14  1  0.10802260  0.40700432  0.66656232  1
  H+  H15  1  0.62222519  0.23407308  0.67855151  1
  H+  H16  1  0.36946314  0.61952998  0.16677363  1
  H+  H17  1  0.89768151  0.29911139  0.17782060  1
  H+  H18  1  0.23154003  0.86950919  0.32413124  1
  H+  H19  1  0.62387779  0.48114959  0.67612967  1
  H+  H20  1  0.11095851  0.52688901  0.64978743  1
  H+  H21  1  0.72909505  0.11248067  0.66847160  1
  H+  H22  1  0.38803695  0.61214149  0.50257430  1
  H+  H23  1  0.66854060  0.78300763  0.84035654  1
  H+  H24  1  0.77907329  0.86622838  0.29993137  1
  H+  H25  1  0.85888006  0.50721092  0.34704826  1
  H+  H26  1  0.35235505  0.13303313  0.15956118  1
  H+  H27  1  0.62374015  0.39099038  0.01137039  1
  H+  H28  1  0.40508322  0.54087175  0.66178840  1
  H+  H29  1  0.99264235  0.87558561  0.83762984  1
  H+  H30  1  0.36332763  0.64296405  0.34014443  1
  H+  H31  1  0.62130503  0.14460247  0.67888426  1
  H+  H32  1  0.62208849  0.97494735  0.49348030  1
  H+  H33  1  0.86517456  0.38902993  0.67536385  1
  H+  H34  1  1.04355235  0.40613886  1.00873881  1
  H+  H35  1  0.57332493  0.14859751  0.08908801  1
  H+  H36  1  0.49749497  0.61043253  0.04118836  1
  H+  H37  1  0.73529981  0.37469077  0.17811707  1
  H+  H38  1  0.51884984  0.64117624  0.33750367  1
  H+  H39  1  0.51833208  0.89046490  0.68297405  1
  H+  H40  1  0.07415234  0.22278718  0.02421580  1
  H+  H41  1  0.88526470  0.52633618  0.50909630  1
  H+  H42  1  0.36280099  0.37920541  0.83868732  1
  H+  H43  1  0.10096118  0.38042056  0.50253116  1
  H+  H44  1  0.87954228  0.36607959  0.51007587  1
  H+  H45  1  0.89982923  1.05172727  0.15670995  1
  H+  H46  1  0.07400049  0.83931869  0.19067885  1
  H+  H47  1  0.65352601  0.83497895  0.55655209  1
  H+  H48  1  0.48318139  0.12159674  0.32838513  1
  H+  H49  1  0.98624096  0.84582766  0.52665715  1
  H+  H50  1  0.86992713  0.93091061  0.75845777  1
  H+  H51  1  0.03107244  0.13966354  0.82179832  1
  H+  H52  1  0.61548888  0.48792329  0.34209259  1
  H+  H53  1  0.72596745  0.38390127  0.32758678  1
  H+  H54  1  0.36228646  0.76726297  0.99103345  1
  H+  H55  1  0.61625644  0.46960054  0.16446820  1
  H+  H56  1  0.39035922  0.37966310  0.30877686  1
  H+  H57  1  0.87057560  0.42574575  0.33781736  1
  H+  H58  1  0.36995011  0.72379672  0.49862199  1
  H+  H59  1  0.41175781  0.83426411  0.89598671  1
  H+  H60  1  0.78435924  0.13111061  0.49725938  1
  H+  H61  1  0.52916142  0.89046615  0.49206868  1
  H+  H62  1  0.21259649  0.09034499  0.33424867  1
  H+  H63  1  0.86851717  0.82178761  0.33218823  1
  H+  H64  1  0.78490829  0.91516647  0.47540930  1
  H+  H65  1  0.13707516  0.27972050  0.33156053  1
  H+  H66  1  0.90670709  0.28087109  -0.00353239  1
  H+  H67  1  0.33765462  0.98420845  0.48115315  1
  H+  H68  1  0.22664999  0.87292812  -0.00026617  1
  H+  H69  1  0.37104043  0.89381267  0.82800187  1
  H+  H70  1  0.47536902  1.00787187  0.12381421  1
  H+  H71  1  0.76220057  0.13584774  -0.00490271  1
  H+  H72  1  0.12522095  0.14300844  0.66940986  1
  H+  H73  1  0.20614348  0.61470827  0.84099934  1
  H+  H74  1  0.54434740  0.70131525  0.91919494  1
  H+  H75  1  0.12567495  0.61859771  0.17602714  1
  H+  H76  1  0.38883933  1.02825741  0.66808575  1
  H+  H77  1  0.38359196  0.09761752  0.33236545  1
  H+  H78  1  0.89479869  0.13615742  0.17018361  1
  H+  H79  1  0.90530059  0.13715412  0.50841002  1
  H+  H80  1  0.66997372  0.07078829  0.18782058  1
  H+  H81  1  0.60480207  0.88959374  0.12974406  1
  H+  H82  1  0.11468804  0.24736830  0.67521221  1
  H+  H83  1  0.64279424  0.36959870  0.66623119  1
  H+  H84  1  0.38337612  0.34934549  0.65520222  1
  H+  H85  1  0.86621248  0.88386920  0.66828675  1
  H+  H86  1  0.65792105  0.61444136  0.65517910  1
  H+  H87  1  0.29002729  0.39056219  0.18880244  1
  H+  H88  1  0.43793648  0.13294197  0.49477674  1
  H+  H89  1  0.09989950  0.85916391  0.68100427  1
  H+  H90  1  0.99998925  0.66210336  0.31271314  1
  H+  H91  1  0.09288701  0.43015860  0.10603937  1
  H+  H92  1  0.14285892  0.36364586  0.99684372  1
  H+  H93  1  0.24060276  0.34418133  0.49407066  1
  H+  H94  1  0.12006864  0.52945986  0.82182143  1
  H+  H95  1  0.23934083  0.10267277  0.50697575  1
  H+  H96  1  0.64058120  0.51624740  0.84699403  1
  H+  H97  1  0.38179712  0.65973023  0.63771251  1
  H+  H98  1  0.11329976  0.64075719  0.34126199  1
  H+  H99  1  0.21779365  0.10627614  0.17384867  1
  H+  H100  1  0.13706021  0.49096193  0.01209032  1
  H+  H101  1  0.12545700  0.75276870  0.83203613  1
  H+  H102  1  0.36526297  0.59773950  1.01029077  1
  H+  H103  1  0.11681798  0.97223341  0.01225612  1
  H+  H104  1  0.60899338  0.73056874  0.33769214  1
  H+  H105  1  0.27809530  0.66265302  0.73343176  1
  H+  H106  1  0.10918865  0.88123649  0.35042735  1
  H+  H107  1  0.39322018  1.03273756  -0.01086439  1
  H+  H108  1  0.23419892  0.61309733  0.50453866  1
  H+  H109  1  0.37479262  0.51130222  0.85896074  1
  H+  H110  1  0.47948514  0.46655951  0.44895177  1
  H+  H111  1  0.11025453  0.13508407  0.33655781  1
  H+  H112  1  0.39228631  0.25435648  0.17958293  1
  H+  H113  1  0.38556201  0.87723499  0.66464206  1
  H+  H114  1  0.88198580  0.27892232  0.50805144  1
  H+  H115  1  0.93068540  0.10425778  0.57044187  1
  H+  H116  1  0.12139340  0.32568669  0.71124874  1
  H+  H117  1  0.14437675  0.37797746  0.18410972  1
  H+  H118  1  0.24110953  0.84451391  0.13895949  1
  H+  H119  1  1.00052274  0.72154820  0.26019473  1
  H+  H120  1  0.16692080  0.62830900  0.64935108  1
  H+  H121  1  0.52334530  0.65166897  0.48806277  1
  H+  H122  1  0.76896204  0.39053873  0.49819936  1
  H+  H123  1  0.11923651  0.01265683  0.33034619  1
  H+  H124  1  0.02679616  0.24026970  0.54381039  1
  H+  H125  1  0.73621414  0.37656610  0.84254595  1
  H+  H126  1  0.63842632  0.37190022  0.17409451  1
  H+  H127  1  0.62051953  0.39313567  0.82960157  1
  H+  H128  1  0.79148593  0.93045325  0.13495607  1
  H+  H129  1  0.63908418  0.78431108  0.64640238  1
  H+  H130  1  0.22656902  0.86361956  0.49495755  1
  H+  H131  1  0.09608557  0.97231768  0.16582634  1
  H+  H132  1  0.95510207  0.87349326  0.17308961  1
  H+  H133  1  0.73291684  0.37263486  0.66410184  1
  H+  H134  1  0.63167396  0.86679757  0.49111431  1
  H+  H135  1  -0.02237877  0.11495131  0.66162438  1
  H+  H136  1  0.62602352  0.15044781  0.83339406  1
  H+  H137  1  0.48018434  0.86468522  0.31820006  1
  H+  H138  1  0.48330572  0.38246716  0.31955128  1
  H+  H139  1  0.58898169  0.90172357  0.00029866  1
  H+  H140  1  0.37549258  0.98596596  0.82978950  1
  H+  H141  1  0.02588899  0.88427938  0.00970933  1
  H+  H142  1  0.89642947  0.77744800  0.99050831  1
  H+  H143  1  0.37373184  0.97828072  0.33102128  1
  H+  H144  1  0.16900486  0.34638778  0.27569337  1
  H+  H145  1  0.12186179  0.73396553  0.34443919  1
  H+  H146  1  0.39715631  0.12120129  0.83799279  1
  H+  H147  1  0.53342441  0.39313542  0.67503102  1
  H+  H148  1  1.01446691  0.86698009  0.35842926  1
  H+  H149  1  0.68589446  0.06459264  0.58133915  1
  H+  H150  1  0.89357345  0.36907813  0.84428938  1
  H+  H151  1  0.23855403  0.87692701  0.84711769  1
  H+  H152  1  0.73216034  0.01887528  0.55224541  1
  H+  H153  1  0.62298156  0.86470234  0.65015364  1
  H+  H154  1  0.24680344  0.34161359  0.68514675  1
  H+  H155  1  0.64399405  0.64258233  0.82899923  1
  H+  H156  1  0.41679329  0.49405982  0.47671056  1
  H+  H157  1  0.45176745  0.85828934  0.98720470  1
  H+  H158  1  0.14509477  0.03065392  0.83467513  1
  H+  H159  1  0.52753679  0.14622275  0.99773635  1
  H+  H160  1  0.27775356  0.39415593  0.33778207  1
  H+  H161  1  0.89466677  0.98443511  0.67325731  1
  H+  H162  1  0.88330689  0.48486888  0.67610666  1
  H+  H163  1  0.14301230  0.28782714  0.19500834  1
  H+  H164  1  0.58623841  0.92336431  0.38921380  1
  H+  H165  1  0.71067289  0.78301341  0.17907741  1
  H+  H166  1  0.78682530  0.17554459  0.16258783  1
  H+  H167  1  0.63371430  0.37794647  0.32361172  1
  H+  H168  1  0.35375187  0.89085999  -0.00192951  1
  H+  H169  1  0.39758141  0.03610290  0.17415382  1
  H+  H170  1  1.01769182  0.64821117  0.49245905  1
  H+  H171  1  0.73185809  0.63613508  0.32169422  1
  H+  H172  1  0.12626164  0.73671850  1.00396779  1
  H+  H173  1  0.02775396  0.39879775  0.34519124  1
  H+  H174  1  0.11832740  0.14846992  0.18828371  1
  H+  H175  1  0.64325139  0.13806481  0.17289073  1
  H+  H176  1  0.63307891  0.27540142  0.51336303  1
  H+  H177  1  0.15306741  0.10973545  0.50453150  1
  H+  H178  1  0.62143037  0.60416947  1.01516214  1
  H+  H179  1  0.42199634  0.82443699  0.22546942  1
  H+  H180  1  0.34257257  0.72261455  0.15159997  1
  H+  H181  1  0.87179136  -0.05182973  0.30160748  1
  H+  H182  1  0.88299134  0.74708523  0.82389832  1
  H+  H183  1  1.01159638  0.63492455  0.14854562  1
  H+  H184  1  0.38938119  0.33777999  0.49762478  1
  H+  H185  1  0.56570953  0.12806556  0.49784468  1
  H+  H186  1  0.29602605  0.65759403  0.06553828  1
  H+  H187  1  0.02336279  0.38686681  0.82373251  1
  H+  H188  1  0.87753866  0.60669715  0.00265255  1
  H+  H189  1  0.88081402  0.85936339  0.22205319  1
  H+  H190  1  0.35206664  0.45353225  0.01465201  1
  H+  H191  1  0.89824551  0.03052120  0.82359256  1
  H+  H192  1  0.86070566  0.10100432  0.34024260  1
  H+  H193  1  0.61777676  0.14931834  0.99171871  1
  H+  H194  1  0.12527182  0.22081445  0.49193120  1
  H+  H195  1  0.61679292  0.58518150  0.16546467  1
  H+  H196  1  0.51772025  0.13166192  0.15170887  1
  H+  H197  1  0.36961399  0.14139058  1.00768643  1
  H+  H198  1  0.78020376  0.38241585  0.01351112  1
  H+  H199  1  0.65764788  0.08298591  0.79144097  1
  H+  H200  1  0.88427360  0.56093481  0.94412171  1
  H+  H201  1  0.38705945  0.53256151  0.31927332  1
  H+  H202  1  0.58657702  0.67444491  0.14122359  1
  H+  H203  1  0.29379053  0.65483017  0.90965388  1
  H+  H204  1  0.86002067  0.22705791  0.67397823  1
  H+  H205  1  0.87676678  0.62075179  0.16407477  1
  H+  H206  1  0.86712500  0.47116656  0.01672721  1
  H+  H207  1  0.26729107  0.87833177  0.68457026  1
  H+  H208  1  0.83002063  0.41736751  0.10641193  1
  H+  H209  1  1.03000337  0.40310243  0.16421663  1
  H+  H210  1  0.25532960  0.86394705  0.17002777  1
  H+  H211  1  0.89275017  0.69348010  0.32315378  1
  H+  H212  1  0.12462065  0.89800726  0.82664269  1
  H+  H213  1  0.64498356  0.28171619  0.99467055  1
  H+  H214  1  0.14034801  0.53079132  0.33104411  1
  H+  H215  1  0.86364965  0.22721346  0.82891047  1
  H+  H216  1  0.64900264  0.28628337  0.84494746  1
  H+  H217  1  0.60122807  0.36345453  0.47908552  1
  H+  H218  1  0.23497818  0.34829057  0.46060045  1
  H+  H219  1  0.61628695  0.47654790  1.01665129  1
  H+  H220  1  0.13338126  0.27271572  0.83717197  1
  H+  H221  1  0.89041147  0.67174662  0.66798224  1
  H+  H222  1  0.26833490  0.02653007  0.37820817  1
  H+  H223  1  0.63898442  0.62535388  0.32588023  1
  H+  H224  1  0.13358034  0.86508566  1.00144677  1
  H+  H225  1  0.88893002  0.11709085  0.66330872  1
  H+  H226  1  0.12157979  0.13995443  0.82619710  1
  H+  H227  1  0.02919485  0.88597295  0.67028612  1
  H+  H228  1  0.61700062  -0.01513200  0.33214479  1
  H+  H229  1  0.11377255  0.39046468  0.34330581  1
  H+  H230  1  0.87868684  0.11154608  0.96566377  1
  H+  H231  1  0.38736906  0.23368824  0.67563558  1
  H+  H232  1  0.25271931  0.14545040  0.65917256  1
  H+  H233  1  0.96629013  0.36422283  0.65917617  1
  H+  H234  1  0.84804482  0.73609162  0.16142506  1
  H+  H235  1  0.87732431  0.31266292  0.33003034  1
  H+  H236  1  0.69866379  0.87277815  1.00170828  1
  H+  H237  1  0.90484968  0.87749842  0.83697877  1
  H+  H238  1  0.73505872  0.11878130  0.33266402  1
  H+  H239  1  0.86693362  0.80930238  0.59569522  1
  H+  H240  1  0.56323055  0.67346824  0.92707546  1
  H+  H241  1  0.48174315  0.78804059  0.55718400  1
  H+  H242  1  0.73781230  0.60213074  0.65890596  1
  H+  H243  1  0.27858177  0.28257620  0.71097925  1
  H+  H244  1  0.58951637  -0.03108816  0.16462184  1
  H+  H245  1  0.63977845  0.86609472  0.31689522  1
  H+  H246  1  0.89308399  0.38527219  0.17863225  1
  H+  H247  1  0.33742479  0.63469120  0.62472951  1
  H+  H248  1  0.79658371  0.90038179  0.81298037  1
  H+  H249  1  0.22180231  0.36012320  0.84434447  1
  H+  H250  1  0.62032894  0.97749318  0.83169144  1
  H+  H251  1  0.77111700  0.63974250  0.01148822  1
  H+  H252  1  0.63719117  1.02398675  0.67002573  1
  H+  H253  1  0.86954738  1.00229531  0.47901084  1
  H+  H254  1  0.36957173  0.47930107  0.18488882  1
  H+  H255  1  0.47166890  0.81875391  0.16643858  1
  H+  H256  1  0.47748290  0.85810559  0.84050551  1
  H+  H257  1  0.48305880  0.36799179  0.84271717  1
  H+  H258  1  0.18411837  0.64170892  0.00282232  1
  H+  H259  1  -0.00663732  0.13401276  0.01464984  1
  H+  H260  1  0.62092184  0.76183797  0.49055358  1
  H+  H261  1  0.48867699  0.34170435  0.17875446  1
  H+  H262  1  0.22960652  0.10557308  0.99433171  1
  H+  H263  1  0.48858903  0.12460206  0.84049458  1
  H+  H264  1  0.25017756  0.63642499  0.15856211  1
  H+  H265  1  0.48034080  0.36162660  0.99717812  1
  H+  H266  1  0.71564549  0.85119415  0.89322440  1
  H+  H267  1  0.89857477  0.75827432  0.51739328  1
  H+  H268  1  0.37309122  0.23111580  0.83084726  1
  H+  H269  1  0.60472498  0.95874459  0.19414491  1
  H+  H270  1  0.76439444  0.64144094  0.16037895  1
  H+  H271  1  0.89720445  0.36363067  1.00146498  1
  H+  H272  1  0.14755829  0.50445512  0.49793914  1
  H+  H273  1  0.41908751  0.91052397  0.14738080  1
  H+  H274  1  0.68099509  0.34656550  0.93832129  1
  H+  H275  1  0.13500841  0.86535739  0.50534491  1
  H+  H276  1  0.63143220  0.60360768  0.48481456  1
  H+  H277  1  0.86597673  0.90849497  0.13896537  1
  H+  H278  1  0.88636274  0.19649487  0.34039765  1
  H+  H279  1  0.37702654  0.13994511  0.67833989  1
  H+  H280  1  0.62881736  0.03806051  0.96674979  1
  H+  H281  1  -0.02519543  0.09439578  0.32257289  1
  H+  H282  1  0.55359618  0.64258365  0.66906458  1
  H+  H283  1  0.11105074  0.65578969  0.81964899  1
  H+  H284  1  0.85763235  0.63216066  0.48852529  1
  H+  H285  1  0.45644595  0.50205665  0.63188348  1
  H+  H286  1  0.82766026  0.97121091  -0.02283209  1
  H+  H287  1  0.26796999  0.36416849  1.00216687  1
  H+  H288  1  0.08479247  0.15499267  0.73368419  1
  H+  H289  1  0.03864219  0.13619850  0.49420607  1
  H+  H290  1  0.09094361  0.91974180  0.76499166  1
  H+  H291  1  0.39071717  0.77534250  0.32277981  1
  H+  H292  1  0.77225526  0.13624066  0.82408495  1
  H+  H293  1  0.41634618  0.60004962  0.26463558  1
  H+  H294  1  0.42585009  0.33424717  0.90369202  1
  H+  H295  1  0.08463359  0.91602226  0.44472537  1
  H+  H296  1  0.31648162  0.11514203  0.41515372  1
  H+  H297  1  0.15565376  0.32414258  0.93612730  1
  H+  H298  1  0.83284201  0.67328485  0.06813578  1
  H+  H299  1  0.90479578  0.33197443  0.60025595  1
  H+  H300  1  0.58184103  0.68097074  0.42520060  1
  H+  H301  1  0.07745459  0.67424194  0.43257196  1
  H+  H302  1  0.60593350  0.78952211  0.98136154  1
  H+  H303  1  0.40495317  0.57105999  0.95601116  1
  H+  H304  1  0.48000029  0.11430660  0.67147084  1
  H+  H305  1  0.59709917  0.18225052  0.77530565  1
  H+  H306  1  1.01790105  0.57043993  0.62748890  1
  H+  H307  1  0.33672089  0.67246916  0.43455405  1
  H+  H308  1  0.34680612  0.17429187  0.76981355  1
  H+  H309  1  0.85616740  0.48534586  0.16201390  1
  H+  H310  1  0.08853545  0.75820914  0.18406939  1
  H+  H311  1  0.58282163  0.91352499  0.73935523  1
  H+  H312  1  0.68019495  0.11554978  0.27528101  1
  H+  H313  1  0.32675582  0.16647787  0.10028615  1
  H+  H314  1  0.56794309  0.17494892  0.43652353  1
  H+  H315  1  0.17093901  0.07509276  0.93554778  1
  H+  H316  1  0.17526466  0.84662791  0.90582182  1
  H+  H317  1  0.10606419  0.71382038  0.75145707  1
  H+  H318  1  0.59058221  0.42405081  0.77008573  1
  H+  H319  1  0.56001565  0.64811954  0.82506061  1
  H+  H320  1  0.67128228  0.09939262  0.91044809  1
  H+  H321  1  0.15727645  0.57979271  0.55754322  1
  H+  H322  1  0.55859893  0.95332321  0.04251608  1
  H+  H323  1  0.11343527  0.38954817  0.82231044  1
  H+  H324  1  0.62271584  0.88927516  0.83356480  1
  H+  H325  1  0.93129697  0.83994768  0.93369287  1
  H+  H326  1  0.35735006  0.93652119  0.05993296  1
  H+  H327  1  0.08205985  0.16155107  0.39672838  1
  H+  H328  1  0.34983392  0.71875131  0.85712835  1
  H+  H329  1  0.33401204  0.92134269  0.73852314  1
  H+  H330  1  0.65094175  0.81106690  0.26311691  1
  H+  H331  1  0.91124127  0.07816351  0.91071441  1
  H+  H332  1  0.81724473  0.91830936  0.03669323  1
  H+  H333  1  0.23413991  0.11924908  0.83808782  1
  H+  H334  1  0.61662598  0.68373025  0.72530159  1
  H+  H335  1  0.81272416  0.10545707  0.03785997  1
  H+  H336  1  0.82465147  0.75517955  0.65309895  1
  H+  H337  1  0.38771457  0.35705203  0.99291767  1
  H+  H338  1  0.42235853  0.32857886  0.59525024  1
  H+  H339  1  0.10251761  0.42270770  0.43415748  1
  H+  H340  1  0.66839212  0.33796429  0.57083897  1
  H+  H341  1  0.42004231  0.09347133  0.23403745  1
  H+  H342  1  0.65088941  0.58299282  0.95087792  1
  H+  H343  1  0.32503130  0.39610879  0.77901401  1
  H+  H344  1  0.73195085  0.58705889  0.87186862  1
  H+  H345  1  0.57447934  0.40778201  0.39125895  1
  H+  H346  1  0.93448710  0.52907265  0.84813981  1
  H+  H347  1  0.13068972  0.53125212  0.17682015  1
  H+  H348  1  0.32648341  0.92085611  0.42670649  1
  H+  H349  1  0.91794136  0.07618430  0.26246373  1
  H+  H350  1  0.84089471  0.19906102  0.10130944  1
  H+  H351  1  0.70756579  0.59098858  0.47011049  1
  H+  H352  1  0.85194818  0.67730169  0.73275181  1
  H+  H353  1  0.42963983  0.82927090  0.58039302  1
  H+  H354  1  0.61684215  0.24084518  0.34402191  1
  H+  H355  1  0.83640088  0.15738554  0.43432574  1
  H+  H356  1  0.42431277  0.09331468  0.93012389  1
  H+  H357  1  0.07927922  0.42747687  0.73029641  1
  H+  H358  1  0.35872799  0.42900469  0.38459846  1
  H+  H359  1  0.16263461  0.07415164  0.23554640  1
  H+  H360  1  0.09908256  0.30374804  0.58919345  1
  H+  H361  1  0.67173594  0.34735264  0.24165814  1
  H+  H362  1  0.59257785  0.82533007  0.07684970  1
  H+  H363  1  0.42704824  0.58007150  0.55739386  1
  H+  H364  1  0.92120046  0.60665854  0.22096494  1
  H+  H365  1  0.92832877  0.59039624  0.56493201  1
  H+  H366  1  0.92110520  0.36274417  0.26861495  1
  H+  H367  1  0.08491755  0.67298676  0.09705090  1
  H+  H368  1  0.23308852  0.71625214  0.71885911  1
  H+  H369  1  0.19351803  0.11474621  0.59891333  1
  H+  H370  1  0.92553007  0.33962461  0.90254877  1
  H+  H371  1  0.83638146  0.17058834  0.73529976  1
  H+  H372  1  0.15023023  0.83083685  0.27648575  1
  H+  H373  1  0.36659289  0.88613577  0.33101892  1
  H+  H374  1  0.59157743  0.41155790  0.10274246  1
  H+  H375  1  0.37873415  0.24281053  0.50513294  1
  H+  H376  1  0.16508859  0.59022590  0.27149112  1
  H+  H377  1  0.65813572  0.58206985  0.23011229  1
  H+  H378  1  0.42742013  0.32698564  0.25226226  1
  H+  H379  1  0.84265728  0.67516336  0.42962802  1
  H+  H380  1  0.06654279  0.91150210  0.10683434  1
  H+  H381  1  0.89342497  0.11912360  0.82639336  1
  H+  H382  1  0.82796926  0.42730982  0.43879709  1
  H+  H383  1  0.84500460  0.42878386  0.76609682  1
  O2-  O384  1  0.09522328  0.18686236  0.19752587  1
  O2-  O385  1  0.09773990  0.16174605  0.47655107  1
  O2-  O386  1  0.09260044  0.17052668  0.80786722  1
  O2-  O387  1  0.09121902  0.43279434  0.15138184  1
  O2-  O388  1  0.12667293  0.43302569  0.47651062  1
  O2-  O389  1  0.08147804  0.41678341  0.80437245  1
  O2-  O390  1  0.07490121  0.66823895  0.14190998  1
  O2-  O391  1  0.07838427  0.68080589  0.47764376  1
  O2-  O392  1  0.09011118  0.69702249  0.80916660  1
  O2-  O393  1  0.05697706  0.91145027  0.15202546  1
  O2-  O394  1  0.09021973  0.91501766  0.48981622  1
  O2-  O395  1  0.09373071  0.92685808  0.81046674  1
  O2-  O396  1  0.32256028  0.16431692  0.14599562  1
  O2-  O397  1  0.33667472  0.14445391  0.47748658  1
  O2-  O398  1  0.34328927  0.17066654  0.81542366  1
  O2-  O399  1  0.35321175  0.41876532  0.18757492  1
  O2-  O400  1  0.41839854  0.44709253  0.45416250  1
  O2-  O401  1  0.32871008  0.40594732  0.82332094  1
  O2-  O402  1  0.30712127  0.66269402  0.13614567  1
  O2-  O403  1  0.33573761  0.66572272  0.48015321  1
  O2-  O404  1  0.31045511  0.65678793  0.86700079  1
  O2-  O405  1  0.41623463  0.95856896  0.12715670  1
  O2-  O406  1  0.31853155  0.92353574  0.47116647  1
  O2-  O407  1  0.34046755  0.92490328  0.81586963  1
  O2-  O408  1  0.56283472  0.12382352  0.13121826  1
  O2-  O409  1  0.55544908  0.17227281  0.48121607  1
  O2-  O410  1  0.59672631  0.18350680  0.82094776  1
  O2-  O411  1  0.59138411  0.40902825  0.14912927  1
  O2-  O412  1  0.55498774  0.35736113  0.45170130  1
  O2-  O413  1  0.59014386  0.42415901  0.81602049  1
  O2-  O414  1  0.54771941  0.61677989  0.12297620  1
  O2-  O415  1  0.58376948  0.68710313  0.47176490  1
  O2-  O416  1  0.61962525  0.67683900  0.81089217  1
  O2-  O417  1  0.57711528  0.82831110  0.12058157  1
  O2-  O418  1  0.58477238  0.92130138  0.46991574  1
  O2-  O419  1  0.58725116  0.91419290  0.82025520  1
  O2-  O420  1  0.84649291  0.20091506  0.14596720  1
  O2-  O421  1  0.84055422  0.17125002  0.47833940  1
  O2-  O422  1  0.83633011  0.16878989  0.81112854  1
  O2-  O423  1  0.82788381  0.42205357  0.15222696  1
  O2-  O424  1  0.83022819  0.42323125  0.48344140  1
  O2-  O425  1  0.84224133  0.42559262  0.81281224  1
  O2-  O426  1  0.82516314  0.67617109  0.14658333  1
  O2-  O427  1  0.82842054  0.66299382  0.47304187  1
  O2-  O428  1  0.84713794  0.68614835  0.80817612  1
  O2-  O429  1  0.84732991  0.94641126  0.11770856  1
  O2-  O430  1  0.82098127  0.96723131  0.45218282  1
  O2-  O431  1  0.85890327  0.93196804  0.80507195  1
  O2-  O432  1  0.15809261  0.07413895  0.19038013  1
  O2-  O433  1  0.17908383  0.07823345  0.52401840  1
  O2-  O434  1  0.17298795  0.09049691  0.85141254  1
  O2-  O435  1  0.17434737  0.35154523  0.20462381  1
  O2-  O436  1  0.08157391  0.29507511  0.54626185  1
  O2-  O437  1  0.15894938  0.33288424  0.85294105  1
  O2-  O438  1  0.15849344  0.59191260  0.19305559  1
  O2-  O439  1  0.17124167  0.57522895  0.51345821  1
  O2-  O440  1  0.14482452  0.59114770  0.83062691  1
  O2-  O441  1  0.08092932  0.79525355  0.21419763  1
  O2-  O442  1  0.16559935  0.83044288  0.51329345  1
  O2-  O443  1  0.17724636  0.84773502  0.86036389  1
  O2-  O444  1  0.41736114  0.09514979  0.18842951  1
  O2-  O445  1  0.37594494  0.09647799  0.50409018  1
  O2-  O446  1  0.42725971  0.09058114  0.85370952  1
  O2-  O447  1  0.44166738  0.29878827  0.20464121  1
  O2-  O448  1  0.40946329  0.30429892  0.52057885  1
  O2-  O449  1  0.42276916  0.33524085  0.85776538  1
  O2-  O450  1  0.40869520  0.60404963  0.18784722  1
  O2-  O451  1  0.42676775  0.58861476  0.51298198  1
  O2-  O452  1  0.40350157  0.56894054  0.87808433  1
  O2-  O453  1  0.42092442  0.82143072  0.17958199  1
  O2-  O454  1  0.44836587  0.81308078  0.54143173  1
  O2-  O455  1  0.41509505  0.83010577  0.85095830  1
  O2-  O456  1  0.68863692  0.13126946  0.19589446  1
  O2-  O457  1  0.70120363  0.04845286  0.54066220  1
  O2-  O458  1  0.67266955  0.08574920  0.83430149  1
  O2-  O459  1  0.67311925  0.34439674  0.19439793  1
  O2-  O460  1  0.66924250  0.33640909  0.52538133  1
  O2-  O461  1  0.67712793  0.34739913  0.85964620  1
  O2-  O462  1  0.65829550  0.57198310  0.18521575  1
  O2-  O463  1  0.64445287  0.56251640  0.46573487  1
  O2-  O464  1  0.67284080  0.57521596  0.86767721  1
  O2-  O465  1  0.65069001  0.76326702  0.18867655  1
  O2-  O466  1  0.65753267  0.83290879  0.50918874  1
  O2-  O467  1  0.69325014  0.84448618  0.85195745  1
  O2-  O468  1  0.91755723  0.09977892  0.18561693  1
  O2-  O469  1  0.94595263  0.12033038  0.52634650  1
  O2-  O470  1  0.92737134  0.09163673  0.83970985  1
  O2-  O471  1  0.92600226  0.35850295  0.19547289  1
  O2-  O472  1  0.90820170  0.33593785  0.52764620  1
  O2-  O473  1  0.92268591  0.33731872  0.85723396  1
  O2-  O474  1  0.90638328  0.58884288  0.17753218  1
  O2-  O475  1  0.91619964  0.58850469  0.52084484  1
  O2-  O476  1  0.87896714  0.51633341  0.83094730  1
  O2-  O477  1  0.89099153  0.84659777  0.17993771  1
  O2-  O478  1  0.93553923  0.80101077  0.54820446  1
  O2-  O479  1  0.93173161  0.84414762  0.85266270  1
  O2-  O480  1  0.15563734  0.07236639  0.31521944  1
  O2-  O481  1  0.20231570  0.14374976  0.63897067  1
  O2-  O482  1  0.16981144  0.06834071  0.98019168  1
  O2-  O483  1  0.16750957  0.34219538  0.32231256  1
  O2-  O484  1  0.14008278  0.31479925  0.67215680  1
  O2-  O485  1  0.16084597  0.32355693  0.98103275  1
  O2-  O486  1  0.16901913  0.59167330  0.31695034  1
  O2-  O487  1  0.12422701  0.57901889  0.62542042  1
  O2-  O488  1  0.21466998  0.60926673  0.99285925  1
  O2-  O489  1  0.16747112  0.83792540  0.32018899  1
  O2-  O490  1  0.15537724  0.79962107  0.67836615  1
  O2-  O491  1  0.16691091  0.83781452  0.98400729  1
  O2-  O492  1  0.42528405  0.08562663  0.30997021  1
  O2-  O493  1  0.42084840  0.08923388  0.65556264  1
  O2-  O494  1  0.42613376  0.09409961  0.97585832  1
  O2-  O495  1  0.42343530  0.34862724  0.30172637  1
  O2-  O496  1  0.43244938  0.34467820  0.63943986  1
  O2-  O497  1  0.42285772  0.32986693  0.97810703  1
  O2-  O498  1  0.41763645  0.59561554  0.31001265  1
  O2-  O499  1  0.45133376  0.55368554  0.63308146  1
  O2-  O500  1  0.40287907  0.57373960  1.00172051  1
  O2-  O501  1  0.42008546  0.83294147  0.30239058  1
  O2-  O502  1  0.41356193  0.84221744  0.65321813  1
  O2-  O503  1  0.39140792  0.82558636  0.97256971  1
  O2-  O504  1  0.67558815  0.10122842  0.31933891  1
  O2-  O505  1  0.66904257  0.08254343  0.65130756  1
  O2-  O506  1  0.66862798  0.09894465  0.95595554  1
  O2-  O507  1  0.66713078  0.34854852  0.31040685  1
  O2-  O508  1  0.67256656  0.33915937  0.64978256  1
  O2-  O509  1  0.68041337  0.34411758  0.98387041  1
  O2-  O510  1  0.67197581  0.59965000  0.30805540  1
  O2-  O511  1  0.67677928  0.57281644  0.64591558  1
  O2-  O512  1  0.65703692  0.58268771  0.99554767  1
  O2-  O513  1  0.66427023  0.82872621  0.30616168  1
  O2-  O514  1  0.64436128  0.83451614  0.62373505  1
  O2-  O515  1  0.63095225  0.84135016  1.00640279  1
  O2-  O516  1  0.91480317  0.05970299  0.30618145  1
  O2-  O517  1  0.91869380  0.08883739  0.64395357  1
  O2-  O518  1  0.89589276  0.06927698  0.95563152  1
  O2-  O519  1  0.91956394  0.36900135  0.31465535  1
  O2-  O520  1  0.90509897  0.33092770  0.64677887  1
  O2-  O521  1  0.93262438  0.34075379  0.98297396  1
  O2-  O522  1  0.95985733  0.67056848  0.28535448  1
  O2-  O523  1  0.97311047  0.58441160  0.63973393  1
  O2-  O524  1  0.90387004  0.57264505  0.98627082  1
  O2-  O525  1  0.89874745  0.79709463  0.35623991  1
  O2-  O526  1  0.82443977  0.80065718  0.62828532  1
  O2-  O527  1  0.93116861  0.83830900  0.97885182  1
  O2-  O528  1  0.02257925  0.17878603  0.04541271  1
  O2-  O529  1  0.07764427  0.16288788  0.35167592  1
  O2-  O530  1  0.08086751  0.15656645  0.68789251  1
  O2-  O531  1  0.10169736  0.43172517  0.02717977  1
  O2-  O532  1  0.08764092  0.42502129  0.35972469  1
  O2-  O533  1  0.07479969  0.43110636  0.68447555  1
  O2-  O534  1  0.10379881  0.67514909  0.01760855  1
  O2-  O535  1  0.08313430  0.67201187  0.35489630  1
  O2-  O536  1  0.12163582  0.71698576  0.70131868  1
  O2-  O537  1  0.08448062  0.91230467  0.02993442  1
  O2-  O538  1  0.07593334  0.90832718  0.36591877  1
  O2-  O539  1  0.08443923  0.90410208  0.68940969  1
  O2-  O540  1  0.33737640  0.16864044  0.02409801  1
  O2-  O541  1  0.29850402  0.08826050  0.37071851  1
  O2-  O542  1  0.35084168  0.17606480  0.69322896  1
  O2-  O543  1  0.32878360  0.39114766  0.01592937  1
  O2-  O544  1  0.34196291  0.42752589  0.34136536  1
  O2-  O545  1  0.29956683  0.34283037  0.70098584  1
  O2-  O546  1  0.30245184  0.66024746  0.01849807  1
  O2-  O547  1  0.33562136  0.67504440  0.35716183  1
  O2-  O548  1  0.27145034  0.69698647  0.70194500  1
  O2-  O549  1  0.33593056  0.92973967  0.01730018  1
  O2-  O550  1  0.33757484  0.91776246  0.34551278  1
  O2-  O551  1  0.32956789  0.91784471  0.69303854  1
  O2-  O552  1  0.58839908  0.17574290  0.01393641  1
  O2-  O553  1  0.58744245  0.18126525  0.36008659  1
  O2-  O554  1  0.59346463  0.17527248  0.69682507  1
  O2-  O555  1  0.58962808  0.41538648  0.02994433  1
  O2-  O556  1  0.58139599  0.42469350  0.34613574  1
  O2-  O557  1  0.59134266  0.42062739  0.69399018  1
  O2-  O558  1  0.55853517  0.63757246  0.05727671  1
  O2-  O559  1  0.57899786  0.67066500  0.35452785  1
  O2-  O560  1  0.61320737  0.68427444  0.68044845  1
  O2-  O561  1  0.55803084  0.93582892  0.00049131  1
  O2-  O562  1  0.58807016  0.92325845  0.34397721  1
  O2-  O563  1  0.58038743  0.91790817  0.69412859  1
  O2-  O564  1  0.81738055  0.15644474  0.01850617  1
  O2-  O565  1  0.84007561  0.14137836  0.35465619  1
  O2-  O566  1  0.83311338  0.16673830  0.68951066  1
  O2-  O567  1  0.83954182  0.41048963  0.03173426  1
  O2-  O568  1  0.83197873  0.44576662  0.35492524  1
  O2-  O569  1  0.84366402  0.42695706  0.69267488  1
  O2-  O570  1  0.83247520  0.66593556  0.02316065  1
  O2-  O571  1  0.84980101  0.70398820  0.34581355  1
  O2-  O572  1  0.84105659  0.66950201  0.68765216  1
  O2-  O573  1  0.79124022  0.91272111  -0.00390598  1
  O2-  O574  1  0.84045799  0.88513538  0.29256360  1
  O2-  O575  1  0.89728747  0.93760111  0.69456306  1
