# generated using pymatgen
data_H2O
_symmetry_space_group_name_H-M   'P 1'
_cell_length_a   17.98821433
_cell_length_b   17.98883527
_cell_length_c   21.99787413
_cell_angle_alpha   90.01686896
_cell_angle_beta   90.00420547
_cell_angle_gamma   119.97917877
_symmetry_Int_Tables_number   1
_chemical_formula_structural   H2O
_chemical_formula_sum   'H384 O192'
_cell_volume   6165.85759778
_cell_formula_units_Z   192
loop_
 _symmetry_equiv_pos_site_id
 _symmetry_equiv_pos_as_xyz
  1  'x, y, z'
loop_
 _atom_type_symbol
 _atom_type_oxidation_number
  H+  1.0
  O2-  -2.0
loop_
 _atom_site_type_symbol
 _atom_site_label
 _atom_site_symmetry_multiplicity
 _atom_site_fract_x
 _atom_site_fract_y
 _atom_site_fract_z
 _atom_site_occupancy
  H+  H0  1  0.44524268  0.11667595  0.61122918  1
  H+  H1  1  0.89833833  0.52111908  0.82636339  1
  H+  H2  1  0.82928056  0.66687146  0.40521114  1
  H+  H3  1  0.87324420  0.35909217  0.32589499  1
  H+  H4  1  0.86939918  0.38441095  0.81847201  1
  H+  H5  1  0.76079394  0.36638884  0.49331495  1
  H+  H6  1  0.88795950  0.10195676  0.84567500  1
  H+  H7  1  0.37048964  0.75013430  0.84167857  1
  H+  H8  1  0.63129192  0.27003371  0.32488153  1
  H+  H9  1  0.78567683  0.37800984  1.03887531  1
  H+  H10  1  0.22222767  0.10573553  0.33402850  1
  H+  H11  1  0.10308062  0.22460673  0.83584305  1
  H+  H12  1  0.63045350  0.38850419  0.80815913  1
  H+  H13  1  0.39501128  0.86060510  0.16437252  1
  H+  H14  1  0.30058141  0.52417115  0.74040975  1
  H+  H15  1  0.04900925  0.38666168  -0.01639890  1
  H+  H16  1  0.71723114  0.61435699  0.33836125  1
  H+  H17  1  0.87611736  0.08670298  0.66757550  1
  H+  H18  1  0.11148990  0.96605422  0.82974006  1
  H+  H19  1  0.48112992  0.11798517  0.85211073  1
  H+  H20  1  0.09855516  0.21239749  0.67746281  1
  H+  H21  1  0.34761512  0.69498052  0.50603703  1
  H+  H22  1  -0.00819330  0.62512898  0.49095564  1
  H+  H23  1  0.09425855  0.39100780  0.45796069  1
  H+  H24  1  0.66858715  0.86500769  0.65945033  1
  H+  H25  1  0.88785310  0.76592959  0.85347282  1
  H+  H26  1  0.11379532  -0.02742596  0.34179304  1
  H+  H27  1  0.24976910  0.57984180  0.82022764  1
  H+  H28  1  0.93655265  0.80962543  0.16384380  1
  H+  H29  1  0.90069146  0.12197193  0.17811176  1
  H+  H30  1  0.37253972  0.35313840  0.69996262  1
  H+  H31  1  0.87244455  0.96459679  0.82117075  1
  H+  H32  1  0.89696249  0.86825451  0.34128876  1
  H+  H33  1  0.27910705  0.86026796  0.48242948  1
  H+  H34  1  0.37303768  0.09245591  0.17149056  1
  H+  H35  1  0.77268781  0.64100612  0.49920754  1
  H+  H36  1  0.63751616  0.98274824  0.81388093  1
  H+  H37  1  0.63563489  0.39256815  0.65804783  1
  H+  H38  1  0.14343075  0.89981785  0.14595402  1
  H+  H39  1  0.61635201  0.38657771  0.33352859  1
  H+  H40  1  0.37895027  0.08576205  0.33198641  1
  H+  H41  1  0.92964798  0.89386607  0.16188598  1
  H+  H42  1  0.36249012  0.92518185  -0.02350432  1
  H+  H43  1  0.59078340  -0.09282000  1.06022217  1
  H+  H44  1  0.89062742  0.77724376  0.33785546  1
  H+  H45  1  0.00830355  0.37671790  0.67069305  1
  H+  H46  1  0.30627381  0.64456690  1.07488133  1
  H+  H47  1  0.07912772  0.68646355  0.70945110  1
  H+  H48  1  0.90417064  0.40728464  0.16951927  1
  H+  H49  1  0.86239546  0.73863154  0.66601730  1
  H+  H50  1  0.12898931  0.17206072  0.17020004  1
  H+  H51  1  0.87940116  0.98694756  0.16440167  1
  H+  H52  1  0.51660224  0.12934143  0.34222015  1
  H+  H53  1  1.06014127  0.60045633  0.97319802  1
  H+  H54  1  0.69928491  0.33746913  0.94716539  1
  H+  H55  1  0.46132846  1.08882952  0.51113439  1
  H+  H56  1  0.11505312  0.52226690  0.84099062  1
  H+  H57  1  0.11977139  0.72835684  0.15836427  1
  H+  H58  1  0.60241911  1.00615265  0.36342659  1
  H+  H59  1  0.13783950  1.03264546  0.51003061  1
  H+  H60  1  0.87432095  0.61061067  0.50068195  1
  H+  H61  1  0.12138108  0.52930281  0.66905861  1
  H+  H62  1  0.60399639  0.63673723  0.34325819  1
  H+  H63  1  0.39021711  0.32534606  0.32801702  1
  H+  H64  1  0.37745481  0.60293509  -0.00020465  1
  H+  H65  1  0.92394787  0.20996633  0.51960143  1
  H+  H66  1  0.12699200  0.61757762  -0.07959621  1
  H+  H67  1  0.39399881  0.29396715  0.84706951  1
  H+  H68  1  0.02286578  0.90338617  0.49710784  1
  H+  H69  1  0.64535573  0.85159540  -0.00904709  1
  H+  H70  1  0.08371937  0.71634463  0.50953383  1
  H+  H71  1  0.87877396  0.34318496  0.64716049  1
  H+  H72  1  0.43571496  0.91338832  0.65566132  1
  H+  H73  1  0.05192576  0.39236774  0.17629156  1
  H+  H74  1  0.66306762  0.52422320  0.18458148  1
  H+  H75  1  0.70702193  1.04616097  0.67936674  1
  H+  H76  1  0.96005536  0.35890647  0.34054482  1
  H+  H77  1  0.87418878  0.87691719  0.82890709  1
  H+  H78  1  0.30142968  0.40866225  0.11054471  1
  H+  H79  1  0.99601232  0.03964021  0.96543912  1
  H+  H80  1  0.42657345  0.91168955  0.86124093  1
  H+  H81  1  0.13529407  0.11134017  0.33852276  1
  H+  H82  1  0.62852073  0.72346969  0.67606670  1
  H+  H83  1  0.11456377  0.30137171  1.00238274  1
  H+  H84  1  0.85275125  0.47375050  0.33704889  1
  H+  H85  1  0.23498048  0.86381159  0.17200355  1
  H+  H86  1  0.02552767  0.88280545  0.34606929  1
  H+  H87  1  0.62732861  0.84536543  0.50793284  1
  H+  H88  1  0.88435677  0.11417138  0.33476066  1
  H+  H89  1  0.99664780  0.14025652  0.18273349  1
  H+  H90  1  0.08577418  0.24710943  0.33454675  1
  H+  H91  1  0.35052025  0.81801154  0.52020670  1
  H+  H92  1  0.63009180  0.25383518  0.67417495  1
  H+  H93  1  0.95662287  0.30105466  0.48826575  1
  H+  H94  1  0.38499209  0.59471685  0.84272402  1
  H+  H95  1  0.31226220  0.63950145  0.41702619  1
  H+  H96  1  0.06287936  0.80111245  0.56688263  1
  H+  H97  1  0.64564619  0.52178493  0.65067532  1
  H+  H98  1  0.96654565  0.61137548  0.33511090  1
  H+  H99  1  0.41317955  0.06721252  0.27006499  1
  H+  H100  1  0.12418589  0.00900013  0.67515573  1
  H+  H101  1  0.45828366  0.11674300  0.99912840  1
  H+  H102  1  0.52315223  0.63096746  0.00697410  1
  H+  H103  1  0.78012225  0.87662804  0.00983510  1
  H+  H104  1  0.73123992  0.61270751  1.00147278  1
  H+  H105  1  0.61582836  0.47111915  0.48817819  1
  H+  H106  1  0.01356969  0.12226919  0.67926641  1
  H+  H107  1  0.35728020  0.72406010  0.15870766  1
  H+  H108  1  0.52237984  0.91445996  0.35729653  1
  H+  H109  1  0.89661108  0.85664673  1.00423424  1
  H+  H110  1  0.24002638  0.05135989  0.12684479  1
  H+  H111  1  0.64571496  0.25755246  0.83690268  1
  H+  H112  1  0.20359806  0.59550861  0.34262782  1
  H+  H113  1  -0.02119061  0.85442754  0.85086905  1
  H+  H114  1  0.03172251  0.15987943  0.01462827  1
  H+  H115  1  0.13432563  0.86278810  0.32617743  1
  H+  H116  1  0.84762485  0.20385419  0.67094287  1
  H+  H117  1  0.18576523  0.60149629  1.00198374  1
  H+  H118  1  0.61857831  0.12842476  0.83237032  1
  H+  H119  1  0.37540878  0.83038679  1.00893325  1
  H+  H120  1  0.53185396  0.88343622  0.15269632  1
  H+  H121  1  0.39901245  0.52519935  0.50810837  1
  H+  H122  1  0.19863322  0.33871673  0.63452381  1
  H+  H123  1  0.62274003  0.72140488  0.82846115  1
  H+  H124  1  0.77837344  0.63507285  0.83906305  1
  H+  H125  1  0.11129627  0.51297878  0.34079023  1
  H+  H126  1  0.86425727  0.63133102  0.01242202  1
  H+  H127  1  0.19033382  0.92796360  0.66948777  1
  H+  H128  1  0.02644500  0.86822470  0.00718372  1
  H+  H129  1  0.52432693  0.86009719  0.00729215  1
  H+  H130  1  0.87126133  0.72336560  0.01196126  1
  H+  H131  1  0.20321489  0.34717499  0.83903430  1
  H+  H132  1  0.36367993  0.03566635  0.99859173  1
  H+  H133  1  -0.00795462  0.62131466  0.18067231  1
  H+  H134  1  0.91900191  0.28519470  0.18230784  1
  H+  H135  1  0.64187455  0.60947737  0.65683996  1
  H+  H136  1  0.77877096  0.64654291  0.65677983  1
  H+  H137  1  0.41698410  0.43995649  0.37209654  1
  H+  H138  1  0.36531994  0.61731295  0.50179448  1
  H+  H139  1  0.89213648  0.04898250  0.50796810  1
  H+  H140  1  0.89366347  0.00698824  0.66065436  1
  H+  H141  1  0.87997539  0.61488001  0.64955882  1
  H+  H142  1  0.64888863  0.86634001  0.17345335  1
  H+  H143  1  0.61691804  0.73309370  0.49574837  1
  H+  H144  1  0.27820028  0.13669235  0.49972607  1
  H+  H145  1  0.36620122  0.95396628  0.32972426  1
  H+  H146  1  0.61892568  0.25974386  0.17429261  1
  H+  H147  1  0.36321279  0.48399512  0.01373180  1
  H+  H148  1  0.49469899  0.14779520  0.67560001  1
  H+  H149  1  0.33176700  0.36753670  0.82602256  1
  H+  H150  1  0.19115896  0.87372822  0.61390098  1
  H+  H151  1  0.00642335  0.63635144  0.65834931  1
  H+  H152  1  0.31589822  0.92069362  0.67617961  1
  H+  H153  1  0.37355689  0.66372766  0.61962659  1
  H+  H154  1  0.61504381  0.01833768  0.97522043  1
  H+  H155  1  0.77825282  0.89886216  0.49642945  1
  H+  H156  1  0.21928976  0.85369862  0.31987905  1
  H+  H157  1  0.77987535  0.37978309  0.80661136  1
  H+  H158  1  0.78292242  0.89119950  0.34615154  1
  H+  H159  1  0.10425066  0.63850551  0.35060632  1
  H+  H160  1  0.37040981  0.25122874  0.01755827  1
  H+  H161  1  0.85281428  0.63282541  0.34491511  1
  H+  H162  1  0.32960419  0.62742597  0.61200914  1
  H+  H163  1  0.49858589  0.99724080  0.43738337  1
  H+  H164  1  0.16197010  0.07359596  0.76911314  1
  H+  H165  1  0.87011538  -0.01900397  0.34768302  1
  H+  H166  1  0.59546196  0.66389274  0.73649273  1
  H+  H167  1  0.34555783  0.72629709  0.68985611  1
  H+  H168  1  0.74126820  0.85611600  0.83544556  1
  H+  H169  1  0.34594025  0.38773134  0.50555812  1
  H+  H170  1  0.31639636  0.70647284  0.36923856  1
  H+  H171  1  0.37335777  0.14676446  0.50241377  1
  H+  H172  1  0.86131137  0.73214584  0.50330235  1
  H+  H173  1  0.23864541  0.44586558  0.37130263  1
  H+  H174  1  0.28546515  0.38853411  0.00446378  1
  H+  H175  1  0.73648916  0.86462869  0.17523409  1
  H+  H176  1  0.26673562  0.11913047  0.67896963  1
  H+  H177  1  0.36401586  0.19736643  0.33851693  1
  H+  H178  1  0.91687300  0.58566991  0.27199111  1
  H+  H179  1  0.74433515  0.36357745  0.65048939  1
  H+  H180  1  0.86646256  0.15582859  -0.00228229  1
  H+  H181  1  0.11269362  0.85691981  1.00042431  1
  H+  H182  1  0.60778287  0.72452367  0.16147607  1
  H+  H183  1  0.89364989  0.49139385  0.16962474  1
  H+  H184  1  0.23876640  0.86747481  0.83642922  1
  H+  H185  1  0.97666435  0.36469506  0.83739495  1
  H+  H186  1  0.80739968  0.65302532  0.17331759  1
  H+  H187  1  0.26518081  0.87183794  -0.00241588  1
  H+  H188  1  0.40104290  0.84075129  0.31369400  1
  H+  H189  1  0.37205373  0.98807311  0.83091104  1
  H+  H190  1  1.07050098  0.35820711  0.35676335  1
  H+  H191  1  0.36341400  0.72666390  0.87122358  1
  H+  H192  1  0.80773359  0.20373148  0.48929836  1
  H+  H193  1  0.35839887  0.34370976  0.17434240  1
  H+  H194  1  0.71715060  0.11238069  0.17353346  1
  H+  H195  1  0.41006651  0.50418512  0.30203119  1
  H+  H196  1  -0.02426188  0.89387348  0.68162565  1
  H+  H197  1  0.11954606  0.61627255  0.65612240  1
  H+  H198  1  0.63659906  0.60573178  0.50202932  1
  H+  H199  1  -0.11502737  0.87454731  0.51335868  1
  H+  H200  1  0.17203266  0.40488945  1.00246301  1
  H+  H201  1  0.57461574  0.11538085  0.00243497  1
  H+  H202  1  0.39962883  0.53455254  0.66303155  1
  H+  H203  1  0.21295738  0.38059073  0.49647288  1
  H+  H204  1  0.87262761  0.96309686  0.00687728  1
  H+  H205  1  0.52922027  0.66534608  0.34037964  1
  H+  H206  1  0.41384873  0.37278680  0.71755517  1
  H+  H207  1  0.06060811  0.87011283  0.68331744  1
  H+  H208  1  0.06542292  -0.08006662  0.14146060  1
  H+  H209  1  0.68329934  0.83879535  0.27061698  1
  H+  H210  1  0.15236813  0.41052906  0.16457982  1
  H+  H211  1  0.38561670  0.53605800  0.18587100  1
  H+  H212  1  0.65365278  0.78434425  0.33110076  1
  H+  H213  1  0.84762584  0.41484649  0.72057523  1
  H+  H214  1  0.22908600  0.43253688  0.33857966  1
  H+  H215  1  0.62948782  0.52453022  0.33179613  1
  H+  H216  1  0.43403887  0.83441005  0.22071510  1
  H+  H217  1  0.40184176  1.00505178  0.68421941  1
  H+  H218  1  0.12204584  0.73436809  0.80896174  1
  H+  H219  1  0.86021874  0.39419725  0.48421535  1
  H+  H220  1  0.69159519  0.09942578  0.75755138  1
  H+  H221  1  0.35897801  0.15782049  0.00615620  1
  H+  H222  1  0.61472771  -0.02414191  0.15775268  1
  H+  H223  1  0.59741085  0.12660939  0.89999629  1
  H+  H224  1  1.03253127  0.64623400  0.80698976  1
  H+  H225  1  0.50850139  0.37442418  0.16367812  1
  H+  H226  1  0.13282305  0.61581055  0.82340439  1
  H+  H227  1  0.10227682  0.38478661  0.82586490  1
  H+  H228  1  0.64483427  0.51924734  0.83774542  1
  H+  H229  1  0.48882423  0.38058611  0.00638889  1
  H+  H230  1  0.10785105  0.72990801  0.34294622  1
  H+  H231  1  0.52318528  0.37350553  0.33072175  1
  H+  H232  1  0.47004589  0.10890814  0.17378941  1
  H+  H233  1  0.07120434  0.67626964  0.43510912  1
  H+  H234  1  0.01583577  0.12504893  0.35255598  1
  H+  H235  1  0.65593766  0.86264200  0.83903007  1
  H+  H236  1  0.86849403  0.63730742  0.83293448  1
  H+  H237  1  0.50146210  0.59828063  0.65670323  1
  H+  H238  1  0.87640781  0.22929311  0.83340775  1
  H+  H239  1  0.89457710  0.25323989  0.01086080  1
  H+  H240  1  0.87715878  0.50657672  -0.00205933  1
  H+  H241  1  0.13607486  0.10481400  0.67176654  1
  H+  H242  1  0.85311879  0.22343363  0.34359911  1
  H+  H243  1  0.12101758  0.15230636  0.50429336  1
  H+  H244  1  0.39295998  0.65037983  0.32865706  1
  H+  H245  1  0.61210869  0.35196181  0.17709539  1
  H+  H246  1  0.28183125  0.14596876  0.81599418  1
  H+  H247  1  0.63914282  0.60787369  0.99919137  1
  H+  H248  1  0.20666002  0.57351067  0.51343171  1
  H+  H249  1  0.86907725  0.51633924  0.49618242  1
  H+  H250  1  0.10395005  0.39573878  0.66757840  1
  H+  H251  1  0.12718424  0.18290212  1.01169864  1
  H+  H252  1  0.61548625  0.71692266  1.00424375  1
  H+  H253  1  0.38697254  0.27191464  0.48760253  1
  H+  H254  1  0.11864910  0.64006613  0.16266481  1
  H+  H255  1  0.37110314  0.13364833  0.67476414  1
  H+  H256  1  0.59482664  0.21290799  0.00339132  1
  H+  H257  1  0.61683506  0.62985170  0.82990221  1
  H+  H258  1  0.44601906  0.78129819  0.30501204  1
  H+  H259  1  0.60829717  0.13535995  0.16272653  1
  H+  H260  1  0.23409913  0.15398845  -0.00333077  1
  H+  H261  1  0.54415545  0.38202666  0.65312949  1
  H+  H262  1  0.60801073  0.31497448  0.92784825  1
  H+  H263  1  0.48240888  0.61575978  0.84867851  1
  H+  H264  1  0.37291109  0.14800494  0.82316747  1
  H+  H265  1  0.16538325  0.37278997  0.58127283  1
  H+  H266  1  0.57286718  0.91254613  0.66907721  1
  H+  H267  1  0.93562676  0.06316637  0.92896524  1
  H+  H268  1  0.36978116  0.97256775  0.15895234  1
  H+  H269  1  0.14586747  0.74969970  0.97304578  1
  H+  H270  1  0.23039625  0.61326897  0.18593073  1
  H+  H271  1  0.62596787  0.48441977  0.01740781  1
  H+  H272  1  0.21510932  0.12211547  0.18159869  1
  H+  H273  1  0.36577555  0.47943673  0.28842746  1
  H+  H274  1  0.63847088  0.12346270  0.32398737  1
  H+  H275  1  0.35693446  0.63523962  0.16339288  1
  H+  H276  1  0.12825769  0.28970673  0.50004947  1
  H+  H277  1  0.27673006  0.88105972  0.51181542  1
  H+  H278  1  0.51937473  0.63231810  0.49556247  1
  H+  H279  1  0.14676773  0.86420530  0.83616700  1
  H+  H280  1  0.40090374  0.38372955  1.00924821  1
  H+  H281  1  0.55171495  0.90320461  0.83515398  1
  H+  H282  1  0.50852359  0.85151941  0.49923070  1
  H+  H283  1  0.26032393  0.45953599  0.68389467  1
  H+  H284  1  0.40277180  0.27377716  0.63976753  1
  H+  H285  1  0.89545827  0.37360355  -0.00041999  1
  H+  H286  1  0.61912462  0.39181932  0.01492755  1
  H+  H287  1  0.86973644  0.47382388  0.66153064  1
  H+  H288  1  0.13789489  0.49968697  0.17901569  1
  H+  H289  1  0.58601763  0.16915225  0.39611176  1
  H+  H290  1  0.30755171  0.13905467  0.09540324  1
  H+  H291  1  0.72325306  0.35931230  0.32161711  1
  H+  H292  1  0.57534948  0.16335835  0.10284082  1
  H+  H293  1  0.30205766  0.40942551  0.77238860  1
  H+  H294  1  0.65989387  0.08440851  0.23429054  1
  H+  H295  1  0.91227317  0.85019137  0.57529442  1
  H+  H296  1  0.92382106  0.82902236  0.94179506  1
  H+  H297  1  0.41227215  0.34825723  0.90723202  1
  H+  H298  1  0.61435280  0.91673164  0.73337954  1
  H+  H299  1  0.83565188  0.15960626  0.09727029  1
  H+  H300  1  0.50653413  0.95277652  0.60455602  1
  H+  H301  1  0.68115688  0.82537832  0.93300625  1
  H+  H302  1  0.91853973  0.34078462  0.89756270  1
  H+  H303  1  0.16203819  0.10395721  0.24338052  1
  H+  H304  1  0.74882183  0.85036211  0.65295149  1
  H+  H305  1  0.43604243  0.32198510  0.57785618  1
  H+  H306  1  0.17937031  0.13675043  0.93699492  1
  H+  H307  1  0.16697844  0.83759026  0.22723200  1
  H+  H308  1  0.66548255  0.57120945  0.90152938  1
  H+  H309  1  0.41612864  0.82857981  0.57155593  1
  H+  H310  1  0.85235521  0.16900596  0.77459254  1
  H+  H311  1  0.33869974  0.91504306  0.09848385  1
  H+  H312  1  0.15106721  0.56354545  0.56976359  1
  H+  H313  1  0.33819959  0.16595206  0.73971480  1
  H+  H314  1  0.62053401  0.16685078  0.70072614  1
  H+  H315  1  0.14648359  0.33824587  0.90045749  1
  H+  H316  1  0.47886716  0.36324378  0.48661497  1
  H+  H317  1  0.65303134  0.32295610  0.23868539  1
  H+  H318  1  0.84601760  0.92472138  0.10582485  1
  H+  H319  1  0.80496831  0.15939079  0.39922277  1
  H+  H320  1  0.86204928  0.42577586  0.08668862  1
  H+  H321  1  0.16358252  0.57744843  0.24561917  1
  H+  H322  1  0.69753488  0.22271685  0.48841247  1
  H+  H323  1  0.90691010  0.29734563  0.59571900  1
  H+  H324  1  0.33302344  0.14767955  0.40220701  1
  H+  H325  1  0.92269944  0.09139405  0.27639496  1
  H+  H326  1  0.66925458  0.81813248  0.56380227  1
  H+  H327  1  0.93710084  0.33722333  0.24427972  1
  H+  H328  1  0.51293357  0.18797322  0.52528423  1
  H+  H329  1  0.41409733  0.95430037  0.47630018  1
  H+  H330  1  0.03033490  0.15007563  0.50399627  1
  H+  H331  1  0.73996673  0.12027798  0.81890839  1
  H+  H332  1  0.36657440  0.74174470  0.99346869  1
  H+  H333  1  0.68212846  0.31798629  0.59176097  1
  H+  H334  1  0.84015111  0.93018088  0.43911191  1
  H+  H335  1  0.10724944  0.91269516  0.06869675  1
  H+  H336  1  0.17063049  0.08534862  0.57189505  1
  H+  H337  1  0.41506586  0.58117997  0.93980585  1
  H+  H338  1  0.39628785  0.36617428  0.42065602  1
  H+  H339  1  0.40683652  0.30222060  0.26111298  1
  H+  H340  1  0.68916788  0.58196936  0.24306125  1
  H+  H341  1  0.81741163  0.41053478  0.39453068  1
  H+  H342  1  0.09908356  0.20245419  0.10902901  1
  H+  H343  1  0.83115423  0.53102814  0.94868622  1
  H+  H344  1  0.07632680  0.16763452  0.77464660  1
  H+  H345  1  0.53895898  -0.00398081  0.93147405  1
  H+  H346  1  0.57853008  0.41073097  0.10999211  1
  H+  H347  1  0.90525920  0.62447157  0.17996872  1
  H+  H348  1  0.64633826  0.27955370  0.76950845  1
  H+  H349  1  0.60305465  0.42723804  0.75495101  1
  H+  H350  1  0.92319254  0.09283770  0.57175750  1
  H+  H351  1  0.08439739  0.92684074  0.43947829  1
  H+  H352  1  0.66494007  0.57746848  0.56301810  1
  H+  H353  1  0.08848134  0.74294006  0.60782469  1
  H+  H354  1  0.12347475  0.31865231  0.28299978  1
  H+  H355  1  0.60654662  0.33224396  0.49193637  1
  H+  H356  1  0.93457587  0.57621123  0.88653534  1
  H+  H357  1  0.57978687  0.66953069  0.42854150  1
  H+  H358  1  0.44284027  0.86135163  0.91533326  1
  H+  H359  1  0.43349639  0.64584146  0.26481394  1
  H+  H360  1  0.90410692  0.57624210  0.59226873  1
  H+  H361  1  0.58626266  0.41582545  0.42579303  1
  H+  H362  1  0.47578157  0.62371485  0.17168751  1
  H+  H363  1  0.85953618  0.89718327  0.72888908  1
  H+  H364  1  0.07090117  0.90637971  0.77282501  1
  H+  H365  1  0.08043783  0.16528802  0.40994122  1
  H+  H366  1  0.17928543  0.30540648  0.16644931  1
  H+  H367  1  0.72395975  0.11643236  0.32522934  1
  H+  H368  1  0.32753818  0.41506638  0.44445015  1
  H+  H369  1  0.13951711  0.11804962  0.82114896  1
  H+  H370  1  0.17101776  0.82263767  0.92408389  1
  H+  H371  1  0.30653425  0.63901145  0.76791684  1
  H+  H372  1  0.33289546  0.88686238  0.38293998  1
  H+  H373  1  0.36031005  0.25757147  0.16489492  1
  H+  H374  1  0.40759314  0.09277368  0.90063944  1
  H+  H375  1  0.36029781  0.92762100  0.77478110  1
  H+  H376  1  0.44095627  0.57663270  0.57077757  1
  H+  H377  1  0.85513650  0.67848926  0.11017655  1
  H+  H378  1  0.78746445  0.06814401  0.12540904  1
  H+  H379  1  0.57522632  0.66426028  0.10280701  1
  H+  H380  1  -0.02328278  0.10345688  0.84104732  1
  H+  H381  1  0.57539894  0.91466989  0.45167377  1
  H+  H382  1  0.07194199  0.41479207  0.76590601  1
  H+  H383  1  0.24607665  0.66056568  0.69223952  1
  O2-  O384  1  0.10535810  0.20975150  0.15397521  1
  O2-  O385  1  0.09060677  0.18156234  0.48782521  1
  O2-  O386  1  0.07893053  0.16404445  0.81971447  1
  O2-  O387  1  0.11119472  0.43295879  0.15892682  1
  O2-  O388  1  0.04119721  0.38725159  0.44034564  1
  O2-  O389  1  0.07300631  0.41671432  0.81138495  1
  O2-  O390  1  0.08653934  0.66686643  0.14693961  1
  O2-  O391  1  0.05823186  0.66505749  0.48105510  1
  O2-  O392  1  0.09049924  0.67796190  0.78779701  1
  O2-  O393  1  0.12507894  0.93707441  0.12286784  1
  O2-  O394  1  0.08376279  0.93405129  0.48443480  1
  O2-  O395  1  0.08157494  0.90482472  0.81834362  1
  O2-  O396  1  0.29207931  0.10705876  0.13514510  1
  O2-  O397  1  0.33680859  0.16567415  0.48088159  1
  O2-  O398  1  0.34378626  0.17709434  0.80335643  1
  O2-  O399  1  0.30416226  0.40436710  0.15606125  1
  O2-  O400  1  0.32244616  0.42272281  0.48866312  1
  O2-  O401  1  0.28190359  0.36286404  0.80271855  1
  O2-  O402  1  0.32069044  0.66097230  0.14963264  1
  O2-  O403  1  0.32599807  0.63772926  0.48720624  1
  O2-  O404  1  0.29951111  0.59064161  0.79494332  1
  O2-  O405  1  0.34003313  0.91192980  0.14315230  1
  O2-  O406  1  0.45893650  1.00950951  0.46131753  1
  O2-  O407  1  0.35198025  0.92710787  0.81969191  1
  O2-  O408  1  0.57694303  0.16593685  0.14820245  1
  O2-  O409  1  0.68585668  0.29489419  0.52387212  1
  O2-  O410  1  0.59034653  0.15015589  0.86123999  1
  O2-  O411  1  0.57077979  0.40105846  0.15507249  1
  O2-  O412  1  0.58239872  0.41163231  0.47126211  1
  O2-  O413  1  0.60662564  0.42617231  0.79991422  1
  O2-  O414  1  0.56814603  0.66499310  0.14751591  1
  O2-  O415  1  0.58220177  0.66807583  0.47663816  1
  O2-  O416  1  0.58834374  0.66129213  0.81335436  1
  O2-  O417  1  0.59366354  0.91750653  0.14064200  1
  O2-  O418  1  0.57042369  0.88600520  0.49145858  1
  O2-  O419  1  0.60495145  0.91856707  0.81224588  1
  O2-  O420  1  0.81486062  0.12843046  0.13739750  1
  O2-  O421  1  0.75652391  0.15453032  0.46975879  1
  O2-  O422  1  0.84934355  0.16768619  0.81957327  1
  O2-  O423  1  0.87046975  0.43188057  0.15253030  1
  O2-  O424  1  0.81983050  0.41348256  0.47362146  1
  O2-  O425  1  0.84273897  0.41610645  0.79919127  1
  O2-  O426  1  0.86545225  0.68779503  0.15457489  1
  O2-  O427  1  0.83419599  0.67308062  0.48578522  1
  O2-  O428  1  0.84044426  0.67220399  0.82951536  1
  O2-  O429  1  0.84796737  0.92623548  0.15116667  1
  O2-  O430  1  0.83938271  0.93376963  0.48523052  1
  O2-  O431  1  0.84666605  0.90490513  0.80514472  1
  O2-  O432  1  0.16185987  0.11567594  0.19891967  1
  O2-  O433  1  0.17301785  0.09306201  0.52745738  1
  O2-  O434  1  0.17199917  0.08674660  0.81264313  1
  O2-  O435  1  0.21512287  0.36961943  0.17881898  1
  O2-  O436  1  0.15078535  0.35258602  0.50655546  1
  O2-  O437  1  0.14251625  0.32600126  0.85640393  1
  O2-  O438  1  0.16827272  0.57694511  0.20007194  1
  O2-  O439  1  0.14670676  0.54749669  0.52653978  1
  O2-  O440  1  0.14893735  0.58398579  0.85275967  1
  O2-  O441  1  0.17301888  0.83978141  0.18191752  1
  O2-  O442  1  0.10334616  0.77995921  0.56977384  1
  O2-  O443  1  0.17764017  0.83339361  0.84943788  1
  O2-  O444  1  0.41044748  0.07185023  0.18936908  1
  O2-  O445  1  0.45825123  0.13393975  0.53535504  1
  O2-  O446  1  0.41782138  0.09448285  0.85594855  1
  O2-  O447  1  0.39233864  0.31484806  0.18279807  1
  O2-  O448  1  0.41458342  0.33629830  0.49186171  1
  O2-  O449  1  0.40415666  0.34914731  0.86297466  1
  O2-  O450  1  0.41539802  0.59861137  0.19116499  1
  O2-  O451  1  0.43617392  0.58495263  0.52366640  1
  O2-  O452  1  0.42571713  0.58800529  0.86918168  1
  O2-  O453  1  0.42499010  0.82839251  0.17571866  1
  O2-  O454  1  0.39278178  0.80131446  0.53114329  1
  O2-  O455  1  0.47191700  0.91037053  0.88682658  1
  O2-  O456  1  0.65703589  0.08446571  0.18824736  1
  O2-  O457  1  0.69916273  0.18718580  0.45269394  1
  O2-  O458  1  0.67999642  0.09138907  0.80224245  1
  O2-  O459  1  0.64529461  0.32095238  0.19139684  1
  O2-  O460  1  0.60418267  0.27566609  0.49454933  1
  O2-  O461  1  0.66845651  0.30805263  0.80936834  1
  O2-  O462  1  0.71143882  0.57351873  0.20411213  1
  O2-  O463  1  0.66638024  0.57571404  0.51657575  1
  O2-  O464  1  0.66932424  0.57782910  0.85676031  1
  O2-  O465  1  0.67583103  0.83366427  0.18942637  1
  O2-  O466  1  0.66186033  0.81575483  0.51842077  1
  O2-  O467  1  0.68275804  0.82913961  0.85388878  1
  O2-  O468  1  0.93666798  0.10041942  0.19622929  1
  O2-  O469  1  0.92730113  0.10612671  0.52764027  1
  O2-  O470  1  0.91612869  0.06779100  0.85626686  1
  O2-  O471  1  0.95315140  0.34251777  0.19949320  1
  O2-  O472  1  0.91376705  0.25923104  0.51711863  1
  O2-  O473  1  0.91514060  0.33221876  0.85268629  1
  O2-  O474  1  0.93140499  0.59087546  0.19702307  1
  O2-  O475  1  0.90441817  0.57739186  0.51110294  1
  O2-  O476  1  0.93233124  0.58124552  0.84213504  1
  O2-  O477  1  0.97123614  0.87301656  0.16313716  1
  O2-  O478  1  0.91203943  0.84209831  0.53069720  1
  O2-  O479  1  0.91938506  0.82890859  0.86746257  1
  O2-  O480  1  0.16259221  0.08114098  0.31837129  1
  O2-  O481  1  0.16676816  0.07262337  0.66381395  1
  O2-  O482  1  0.17434363  0.13244038  0.98104434  1
  O2-  O483  1  0.08041534  0.29500775  0.31494452  1
  O2-  O484  1  0.17699317  0.37764248  0.62658447  1
  O2-  O485  1  0.12798788  0.35568638  0.98006653  1
  O2-  O486  1  0.14552039  0.57149385  0.32341977  1
  O2-  O487  1  0.15603705  0.58896428  0.65385359  1
  O2-  O488  1  0.21382031  0.56961541  1.01826679  1
  O2-  O489  1  0.15844260  0.82741943  0.30731242  1
  O2-  O490  1  0.22858555  0.91912225  0.64288759  1
  O2-  O491  1  0.16737725  0.81248462  0.96963009  1
  O2-  O492  1  0.41393581  0.06093428  0.31506585  1
  O2-  O493  1  0.43638063  0.10994178  0.65671920  1
  O2-  O494  1  0.39934995  0.09323715  0.98089873  1
  O2-  O495  1  0.41855653  0.29867369  0.30492652  1
  O2-  O496  1  0.45402875  0.30425488  0.61463223  1
  O2-  O497  1  0.42770793  0.35105972  0.99278129  1
  O2-  O498  1  0.44704336  0.67602295  0.30496232  1
  O2-  O499  1  0.44875045  0.55655927  0.63416507  1
  O2-  O500  1  0.41227478  0.57728584  0.98641096  1
  O2-  O501  1  0.45148237  0.83836650  0.29814990  1
  O2-  O502  1  0.47492144  0.90127153  0.62941353  1
  O2-  O503  1  0.40434886  0.80436927  0.98715151  1
  O2-  O504  1  0.66313125  0.08765379  0.30995531  1
  O2-  O505  1  0.72999648  0.10936016  0.68427679  1
  O2-  O506  1  0.58498230  0.04492131  0.95545967  1
  O2-  O507  1  0.66186547  0.32879474  0.30598939  1
  O2-  O508  1  0.68275357  0.33367359  0.63679190  1
  O2-  O509  1  0.64189483  0.31767392  0.96344206  1
  O2-  O510  1  0.65713995  0.58663657  0.32180200  1
  O2-  O511  1  0.67151461  0.58249106  0.63524945  1
  O2-  O512  1  0.67099902  0.57775788  0.98624006  1
  O2-  O513  1  0.68668276  0.84341019  0.31570424  1
  O2-  O514  1  0.68799136  0.82679037  0.64089857  1
  O2-  O515  1  0.67843516  0.82293459  0.97849469  1
  O2-  O516  1  0.91715643  0.08578304  0.32145364  1
  O2-  O517  1  0.91619684  0.06897526  0.65094705  1
  O2-  O518  1  0.95359940  0.05770310  0.97171193  1
  O2-  O519  1  0.90623892  0.32940317  0.31553768  1
  O2-  O520  1  0.90292853  0.30436607  0.64014433  1
  O2-  O521  1  0.92745824  0.34932261  0.97672934  1
  O2-  O522  1  0.90802139  0.58012314  0.31760009  1
  O2-  O523  1  0.90608113  0.57840026  0.63736252  1
  O2-  O524  1  0.88591222  0.55458010  0.96999031  1
  O2-  O525  1  0.92759751  0.83830291  0.32701679  1
  O2-  O526  1  0.91052415  0.86119484  0.66074656  1
  O2-  O527  1  0.92827438  0.82820848  0.98783838  1
  O2-  O528  1  0.08908662  0.20388795  0.02930876  1
  O2-  O529  1  0.07795533  0.15946660  0.36466401  1
  O2-  O530  1  0.07467271  0.15523263  0.69507610  1
  O2-  O531  1  0.01603352  0.41738646  -0.01080273  1
  O2-  O532  1  0.05730175  0.40381217  0.37479587  1
  O2-  O533  1  0.06667201  0.41435438  0.68779755  1
  O2-  O534  1  0.11981225  0.63843343  -0.03855685  1
  O2-  O535  1  0.07797614  0.67294086  0.36484233  1
  O2-  O536  1  0.06985748  0.67680504  0.66456248  1
  O2-  O537  1  0.09025906  0.89403659  0.01720388  1
  O2-  O538  1  0.08893926  0.91323668  0.35830936  1
  O2-  O539  1  0.05927830  0.91928735  0.70074347  1
  O2-  O540  1  0.33262417  0.18813757  0.02707912  1
  O2-  O541  1  0.32939943  0.13932054  0.35715866  1
  O2-  O542  1  0.33034314  0.15548807  0.69110632  1
  O2-  O543  1  0.33269548  0.42322630  0.03210500  1
  O2-  O544  1  0.37295269  0.38260028  0.38480519  1
  O2-  O545  1  0.30970845  0.48613313  0.71160926  1
  O2-  O546  1  0.30329594  0.63825302  0.02895959  1
  O2-  O547  1  0.30479674  0.64750285  0.37167186  1
  O2-  O548  1  0.29646556  0.70269565  0.71715627  1
  O2-  O549  1  0.32617768  0.91107259  0.01255796  1
  O2-  O550  1  0.33503130  0.89025134  0.33865926  1
  O2-  O551  1  0.37447569  0.94263179  0.69403793  1
  O2-  O552  1  0.56053839  0.15637856  0.02338337  1
  O2-  O553  1  0.57875244  0.16920833  0.35199997  1
  O2-  O554  1  0.59486140  0.20332288  0.70386524  1
  O2-  O555  1  0.59348782  0.42323531  0.03397419  1
  O2-  O556  1  0.58134843  0.41226422  0.34793334  1
  O2-  O557  1  0.60156130  0.41948475  0.67182158  1
  O2-  O558  1  0.58374563  0.65745864  0.02123093  1
  O2-  O559  1  0.58112416  0.67243323  0.36236425  1
  O2-  O560  1  0.59774397  0.66321560  0.69074899  1
  O2-  O561  1  0.58599507  0.89919240  0.01518869  1
  O2-  O562  1  0.55583509  0.95924372  0.38790156  1
  O2-  O563  1  0.62810485  0.92813303  0.68906491  1
  O2-  O564  1  0.86999751  0.19502636  0.02949629  1
  O2-  O565  1  0.82339153  0.16186046  0.35597185  1
  O2-  O566  1  0.82382508  0.14595539  0.69205385  1
  O2-  O567  1  0.84755405  0.41653833  0.03947121  1
  O2-  O568  1  0.82019523  0.41146099  0.34907107  1
  O2-  O569  1  0.84575369  0.41297298  0.67506346  1
  O2-  O570  1  0.83756331  0.66376561  0.02873533  1
  O2-  O571  1  0.82283219  0.66312286  0.36022834  1
  O2-  O572  1  0.84095095  0.67648737  0.66681054  1
  O2-  O573  1  0.83983026  0.90628047  0.02715228  1
  O2-  O574  1  0.84200825  0.92211305  0.36531524  1
  O2-  O575  1  0.86126693  0.90202116  0.68274210  1
