# generated using pymatgen
data_H2O
_symmetry_space_group_name_H-M   'P 1'
_cell_length_a   17.96782242
_cell_length_b   17.96965042
_cell_length_c   21.96738314
_cell_angle_alpha   89.93951122
_cell_angle_beta   90.04939275
_cell_angle_gamma   120.03456404
_symmetry_Int_Tables_number   1
_chemical_formula_structural   H2O
_chemical_formula_sum   'H384 O192'
_cell_volume   6140.33960681
_cell_formula_units_Z   192
loop_
 _symmetry_equiv_pos_site_id
 _symmetry_equiv_pos_as_xyz
  1  'x, y, z'
loop_
 _atom_type_symbol
 _atom_type_oxidation_number
  H+  1.0
  O2-  -2.0
loop_
 _atom_site_type_symbol
 _atom_site_label
 _atom_site_symmetry_multiplicity
 _atom_site_fract_x
 _atom_site_fract_y
 _atom_site_fract_z
 _atom_site_occupancy
  H+  H0  1  0.15908313  0.59283696  1.00885650  1
  H+  H1  1  0.12438776  0.19811785  0.40940836  1
  H+  H2  1  0.87211968  0.64190777  0.81877211  1
  H+  H3  1  0.60687337  0.21651805  0.16788118  1
  H+  H4  1  0.72719871  0.46239024  0.11105347  1
  H+  H5  1  0.64364511  0.86559025  0.32987995  1
  H+  H6  1  0.47559834  0.86148202  0.65428794  1
  H+  H7  1  0.87120984  0.64924306  0.14561666  1
  H+  H8  1  0.41984742  0.88403496  0.33224461  1
  H+  H9  1  0.46994463  0.09785209  0.66144610  1
  H+  H10  1  0.20007031  0.93955313  0.64111824  1
  H+  H11  1  0.48041823  0.09321803  -0.00770251  1
  H+  H12  1  0.61575682  0.47756571  0.81140896  1
  H+  H13  1  0.36389357  0.57121262  0.49630046  1
  H+  H14  1  0.13786821  1.02911979  0.50110886  1
  H+  H15  1  0.97516417  0.36992794  0.17186005  1
  H+  H16  1  0.37704585  0.12804974  -0.00507425  1
  H+  H17  1  0.27931919  0.64737819  0.15490602  1
  H+  H18  1  0.07781369  0.88327001  0.68269757  1
  H+  H19  1  0.03082829  0.89623637  0.02076775  1
  H+  H20  1  0.86729788  0.73462576  -0.00412424  1
  H+  H21  1  0.63894775  0.88703232  0.17913196  1
  H+  H22  1  0.58828745  0.21179068  0.66503290  1
  H+  H23  1  0.72883920  0.35066422  0.99783685  1
  H+  H24  1  0.82302734  0.10345122  0.51715444  1
  H+  H25  1  0.88870926  0.33690938  0.71820703  1
  H+  H26  1  0.08975533  0.41222107  0.76864867  1
  H+  H27  1  0.63608490  0.65088968  0.80092106  1
  H+  H28  1  0.13881627  0.35773830  0.65434142  1
  H+  H29  1  0.52628628  0.89209904  0.16887991  1
  H+  H30  1  -0.10569483  0.63933373  0.65473831  1
  H+  H31  1  0.82509436  0.62973918  0.43801679  1
  H+  H32  1  0.61459381  0.46918031  0.34854502  1
  H+  H33  1  0.27843684  0.38490594  0.82488442  1
  H+  H34  1  -0.02869038  0.11585375  0.18599363  1
  H+  H35  1  0.60156368  0.58114933  0.20787774  1
  H+  H36  1  0.38324117  0.61064691  0.16908007  1
  H+  H37  1  0.11814156  0.37055948  1.00839572  1
  H+  H38  1  0.62279812  0.50189372  0.65657407  1
  H+  H39  1  0.38069513  0.62067533  0.32828145  1
  H+  H40  1  0.77086629  0.89085839  0.00869237  1
  H+  H41  1  0.84743639  0.89024180  0.49518548  1
  H+  H42  1  0.73181295  0.36534988  0.80545996  1
  H+  H43  1  0.10584036  0.12967910  0.66861253  1
  H+  H44  1  0.88989401  0.10914413  0.34598071  1
  H+  H45  1  0.85850466  0.20743108  0.68729460  1
  H+  H46  1  0.71798465  0.10335636  0.67172908  1
  H+  H47  1  0.63948134  0.41246208  0.49809475  1
  H+  H48  1  0.90493894  0.46576219  0.47302200  1
  H+  H49  1  0.34023070  0.33597233  0.19287668  1
  H+  H50  1  0.09724723  0.23119865  0.81510674  1
  H+  H51  1  0.33628519  0.41496670  0.76474316  1
  H+  H52  1  1.04398174  0.73668325  0.52370362  1
  H+  H53  1  0.82853869  0.66803391  0.72479239  1
  H+  H54  1  0.60153686  0.73310170  0.49671279  1
  H+  H55  1  0.86598892  0.23002959  0.01173496  1
  H+  H56  1  0.96857122  0.87149009  0.82866807  1
  H+  H57  1  0.32963318  0.14721575  0.39524607  1
  H+  H58  1  0.10151379  0.96770998  0.17648322  1
  H+  H59  1  0.36098152  0.45400202  1.00674674  1
  H+  H60  1  0.79463261  0.17876847  0.51577134  1
  H+  H61  1  0.77887933  0.12750932  0.35555301  1
  H+  H62  1  0.58902512  0.03593676  0.50317607  1
  H+  H63  1  0.96822288  0.47405659  0.68080375  1
  H+  H64  1  0.24099035  0.88028046  0.65456896  1
  H+  H65  1  0.66942795  0.31189680  0.48433186  1
  H+  H66  1  0.05648082  0.13615956  0.54433634  1
  H+  H67  1  0.34985197  0.13004871  0.19104238  1
  H+  H68  1  0.10042829  0.80045783  0.85755714  1
  H+  H69  1  0.96051815  0.35106157  0.35028246  1
  H+  H70  1  0.61668513  0.62045405  0.50882525  1
  H+  H71  1  0.39202187  0.00260442  0.98317379  1
  H+  H72  1  0.86453654  0.02185084  0.51061421  1
  H+  H73  1  0.62944773  0.97262064  0.35264692  1
  H+  H74  1  0.22779951  0.33977367  -0.00303704  1
  H+  H75  1  0.38440873  0.37117047  0.34390443  1
  H+  H76  1  0.53445361  0.38733471  0.00246339  1
  H+  H77  1  0.60847551  -0.04986844  0.50828254  1
  H+  H78  1  0.59107571  0.66674602  0.04805480  1
  H+  H79  1  0.23488799  0.37143678  0.32571728  1
  H+  H80  1  0.35887198  0.83705139  0.49769995  1
  H+  H81  1  0.60588064  0.87818005  0.44219976  1
  H+  H82  1  0.12902980  0.00254428  0.32920353  1
  H+  H83  1  0.21430534  0.11398785  0.84923441  1
  H+  H84  1  0.27284577  0.38062039  0.66902571  1
  H+  H85  1  0.52143173  0.39380513  0.15569688  1
  H+  H86  1  0.17510144  0.12596565  1.02517228  1
  H+  H87  1  0.88796746  0.53070930  0.16796526  1
  H+  H88  1  0.38134394  0.01173248  0.67164861  1
  H+  H89  1  0.38450501  0.26785752  0.65393880  1
  H+  H90  1  0.36577350  0.64249700  0.82584904  1
  H+  H91  1  0.38171638  0.52604119  0.83472627  1
  H+  H92  1  0.89357185  1.02864202  0.00285865  1
  H+  H93  1  0.26067681  0.87651220  0.20477954  1
  H+  H94  1  0.72562995  0.60672214  0.65542194  1
  H+  H95  1  0.37786289  0.20267118  0.49519138  1
  H+  H96  1  0.57787918  0.42383088  0.72509374  1
  H+  H97  1  0.86746414  0.39581267  0.16337520  1
  H+  H98  1  0.68882319  0.05761546  0.51783455  1
  H+  H99  1  0.48374490  0.37467660  0.17708714  1
  H+  H100  1  0.98318429  0.36081936  0.99498340  1
  H+  H101  1  0.12797879  0.10327015  0.18636160  1
  H+  H102  1  0.46822368  0.61833687  0.32223477  1
  H+  H103  1  0.60449973  0.34549759  0.64430655  1
  H+  H104  1  0.13348026  0.26604679  0.65106896  1
  H+  H105  1  0.63719545  0.86093641  0.99590970  1
  H+  H106  1  0.13486008  0.40860140  0.33190192  1
  H+  H107  1  0.63991319  0.61416798  -0.02387223  1
  H+  H108  1  0.54036846  0.88467004  0.35198174  1
  H+  H109  1  0.19216894  0.83828919  0.49592488  1
  H+  H110  1  -0.00282302  0.34818887  0.46396197  1
  H+  H111  1  0.89373419  0.36359668  0.84139691  1
  H+  H112  1  0.13371064  0.36156647  0.17317296  1
  H+  H113  1  0.61061210  0.64701006  0.34604616  1
  H+  H114  1  0.92946946  0.53557514  0.67823372  1
  H+  H115  1  0.38588090  0.60805309  0.65418993  1
  H+  H116  1  0.34938519  0.21652001  0.34476227  1
  H+  H117  1  0.33456861  0.66807789  0.73034582  1
  H+  H118  1  0.64649013  0.30688384  0.27358863  1
  H+  H119  1  0.16949119  0.16203717  0.47596408  1
  H+  H120  1  0.71644172  0.10686029  0.84377254  1
  H+  H121  1  0.60119147  0.71421462  0.12965939  1
  H+  H122  1  0.94454658  0.71162002  0.30228920  1
  H+  H123  1  0.87380284  0.39309664  0.00879177  1
  H+  H124  1  0.59967710  0.97197458  0.82887075  1
  H+  H125  1  0.61590628  0.48832077  0.49673157  1
  H+  H126  1  0.35403888  0.46787273  0.16009221  1
  H+  H127  1  0.63962423  0.77419229  0.31494608  1
  H+  H128  1  0.77566544  0.38727278  0.65746629  1
  H+  H129  1  0.14081296  0.50098233  0.33266256  1
  H+  H130  1  0.39062211  0.76658669  0.65267959  1
  H+  H131  1  0.64216182  0.35127336  -0.00914724  1
  H+  H132  1  0.14016312  0.85867171  0.34015461  1
  H+  H133  1  0.89231093  0.81870453  0.23297934  1
  H+  H134  1  0.59641666  0.20138816  0.34953247  1
  H+  H135  1  0.13803289  0.02583206  1.01346744  1
  H+  H136  1  0.88448450  0.28406692  0.17622882  1
  H+  H137  1  0.15101775  0.62746271  0.31470572  1
  H+  H138  1  0.75904231  0.89283100  0.48855291  1
  H+  H139  1  0.85846550  0.14022717  0.17069862  1
  H+  H140  1  0.50945325  0.88546806  0.83025226  1
  H+  H141  1  0.49320921  0.35650951  0.50438183  1
  H+  H142  1  0.36165801  0.38126234  0.66880840  1
  H+  H143  1  0.71474872  0.86475841  0.83783274  1
  H+  H144  1  0.29212466  0.13287154  0.99469733  1
  H+  H145  1  0.87084609  0.48052113  0.00608103  1
  H+  H146  1  0.22156704  0.35804522  0.16942290  1
  H+  H147  1  0.01186322  0.85101905  0.35241052  1
  H+  H148  1  0.91283619  0.07588000  0.89964267  1
  H+  H149  1  0.13273163  0.25570261  0.99217791  1
  H+  H150  1  0.85906472  0.83781474  0.33017045  1
  H+  H151  1  0.60479652  -0.02243875  0.67346579  1
  H+  H152  1  0.61565576  0.38809472  0.80006362  1
  H+  H153  1  0.83586773  0.67896087  0.05690722  1
  H+  H154  1  0.25344070  0.62106169  -0.00828085  1
  H+  H155  1  0.33121849  0.40323874  0.10250981  1
  H+  H156  1  1.05265555  0.17539012  0.53976451  1
  H+  H157  1  0.14254276  0.61827337  0.16173263  1
  H+  H158  1  0.88619067  0.34794652  0.31386812  1
  H+  H159  1  0.11594625  0.46998304  0.82856191  1
  H+  H160  1  0.61250964  0.21550601  1.01152728  1
  H+  H161  1  0.70811077  0.62934002  0.49695104  1
  H+  H162  1  0.05108119  0.64153952  0.48444849  1
  H+  H163  1  0.38255997  0.02664037  0.83507789  1
  H+  H164  1  0.38724016  0.86306273  0.19771270  1
  H+  H165  1  0.58209190  0.40950358  0.40534137  1
  H+  H166  1  0.98450314  0.61927488  0.83873386  1
  H+  H167  1  0.39666698  0.57534010  0.23224345  1
  H+  H168  1  0.65102238  0.35678865  0.17171159  1
  H+  H169  1  0.11821933  0.89045085  0.83309076  1
  H+  H170  1  0.62754789  0.73424661  0.80763324  1
  H+  H171  1  0.76228228  0.34210217  0.66720693  1
  H+  H172  1  0.25000997  0.11629913  0.18349686  1
  H+  H173  1  0.27276119  0.63545291  0.67165925  1
  H+  H174  1  0.12763969  0.47014011  0.48983984  1
  H+  H175  1  0.94922379  0.68853417  0.49709110  1
  H+  H176  1  0.10944235  0.22638183  0.16665926  1
  H+  H177  1  0.04077595  0.09980110  -0.02272267  1
  H+  H178  1  0.73255721  0.61044476  0.82478541  1
  H+  H179  1  0.51539970  0.13055114  0.17216859  1
  H+  H180  1  0.33114293  0.21912405  0.19515558  1
  H+  H181  1  0.38584982  0.46497027  0.50896289  1
  H+  H182  1  0.62188991  0.47673661  0.99159392  1
  H+  H183  1  0.97090580  0.10523765  0.65827125  1
  H+  H184  1  0.87382365  0.10444490  0.84532992  1
  H+  H185  1  0.23960114  0.87649464  0.99215087  1
  H+  H186  1  0.84718787  0.88201036  0.81691479  1
  H+  H187  1  0.12645719  0.76581350  0.17406477  1
  H+  H188  1  0.36917896  0.86222492  0.83806560  1
  H+  H189  1  0.13063785  0.46381904  1.00438251  1
  H+  H190  1  0.08845069  0.41481270  0.10206580  1
  H+  H191  1  0.87192378  0.78095245  0.50012105  1
  H+  H192  1  0.63137944  0.10839225  0.66547011  1
  H+  H193  1  0.33140300  0.94081648  0.48849868  1
  H+  H194  1  0.27563520  0.63827660  0.82430951  1
  H+  H195  1  0.92942167  0.61267811  0.21503124  1
  H+  H196  1  0.61819521  0.33923540  0.33225733  1
  H+  H197  1  0.51063985  0.58124857  0.19757834  1
  H+  H198  1  0.37412247  0.02108190  0.20160331  1
  H+  H199  1  0.88576124  0.37005249  0.46445296  1
  H+  H200  1  0.11742036  0.76473763  -0.00056546  1
  H+  H201  1  0.87013102  0.14420276  0.01371967  1
  H+  H202  1  0.09617353  0.98931790  0.82339184  1
  H+  H203  1  0.45174696  0.05948440  0.50780213  1
  H+  H204  1  0.23499096  0.60204154  0.51144268  1
  H+  H205  1  0.39248851  0.77867786  0.18072961  1
  H+  H206  1  0.13737526  0.61620703  0.65466699  1
  H+  H207  1  0.86467978  0.73570234  0.15180588  1
  H+  H208  1  0.12229368  0.68232753  -0.01632438  1
  H+  H209  1  0.37705463  0.74128730  0.34676169  1
  H+  H210  1  0.13782699  0.60554767  0.83920004  1
  H+  H211  1  0.36456863  0.72729669  0.49578854  1
  H+  H212  1  0.21845486  0.09348769  0.32931952  1
  H+  H213  1  0.85673766  0.11818593  0.68208327  1
  H+  H214  1  0.85010873  0.97190179  0.82185269  1
  H+  H215  1  0.14030534  0.72616243  0.81996288  1
  H+  H216  1  0.76223964  0.36797106  0.33121137  1
  H+  H217  1  -0.13012656  0.85840647  0.65500905  1
  H+  H218  1  0.11573736  0.43096004  0.42190872  1
  H+  H219  1  -0.02102877  0.35639051  0.84050948  1
  H+  H220  1  0.40649739  0.73325789  0.00296456  1
  H+  H221  1  0.39491824  0.37175486  0.84048612  1
  H+  H222  1  0.51428402  0.39216798  0.66426982  1
  H+  H223  1  0.47701477  0.60362574  0.99004034  1
  H+  H224  1  0.38493047  0.59186247  1.00182935  1
  H+  H225  1  0.25425081  0.89393477  0.82522693  1
  H+  H226  1  0.52037427  0.13706355  0.82390106  1
  H+  H227  1  0.37407154  0.77565102  0.84254679  1
  H+  H228  1  0.26747042  0.13153520  0.66287584  1
  H+  H229  1  0.62358187  0.85987616  0.84153025  1
  H+  H230  1  0.61466097  0.98429168  0.16771963  1
  H+  H231  1  0.52282088  0.64863333  0.65242986  1
  H+  H232  1  0.11920863  0.47980831  0.15837782  1
  H+  H233  1  0.40163738  0.26825678  0.98964853  1
  H+  H234  1  0.15431126  0.36792766  0.49679607  1
  H+  H235  1  0.90042794  1.02727000  0.33571359  1
  H+  H236  1  0.38901268  0.52201001  0.65621868  1
  H+  H237  1  0.59000968  0.15377048  0.50525020  1
  H+  H238  1  0.74561267  0.62085639  0.18009010  1
  H+  H239  1  0.61579910  0.73067964  -0.00758440  1
  H+  H240  1  0.12229321  0.89940454  0.01853105  1
  H+  H241  1  0.48136765  0.36759869  0.83591954  1
  H+  H242  1  0.06870752  0.15775887  0.11271742  1
  H+  H243  1  0.72411107  0.11514400  0.17956686  1
  H+  H244  1  0.86601144  0.72848539  0.81666965  1
  H+  H245  1  0.85755465  0.21943646  0.83373963  1
  H+  H246  1  0.61463529  -0.03143796  1.00868387  1
  H+  H247  1  -0.03461730  0.86264594  0.18068155  1
  H+  H248  1  0.72753934  0.61650348  0.36583405  1
  H+  H249  1  0.64424081  0.71705825  0.13413409  1
  H+  H250  1  0.13157749  0.73527724  0.34130716  1
  H+  H251  1  0.85722591  0.89280417  0.16628971  1
  H+  H252  1  0.73641785  0.88799386  0.17795153  1
  H+  H253  1  0.11395888  0.00911009  0.66204049  1
  H+  H254  1  0.90083818  0.83144743  0.56505099  1
  H+  H255  1  0.35552411  0.13025589  0.66081630  1
  H+  H256  1  0.02570401  0.15294828  0.35297264  1
  H+  H257  1  0.63148166  0.10973455  0.18195595  1
  H+  H258  1  0.57323506  0.64023061  0.28116106  1
  H+  H259  1  0.86334601  0.98600523  0.16916640  1
  H+  H260  1  0.26912147  0.79661256  0.70604885  1
  H+  H261  1  0.92181041  0.33248252  0.93657010  1
  H+  H262  1  0.85164316  0.73041931  0.66611647  1
  H+  H263  1  0.87275473  0.47961869  0.83226379  1
  H+  H264  1  1.02883493  0.38410661  0.67731507  1
  H+  H265  1  0.98128130  0.62979950  0.98946484  1
  H+  H266  1  0.12351039  0.75084408  0.67056063  1
  H+  H267  1  0.77747000  0.89020340  0.33818479  1
  H+  H268  1  0.76258680  0.38350602  0.49922256  1
  H+  H269  1  0.35523969  0.85119353  0.66996406  1
  H+  H270  1  0.14294558  0.36118520  0.84097252  1
  H+  H271  1  0.17948326  0.25864497  0.47832651  1
  H+  H272  1  0.23629464  0.10529683  0.50559439  1
  H+  H273  1  0.63768844  0.09989471  0.33644241  1
  H+  H274  1  0.75638273  -0.11458969  0.66267200  1
  H+  H275  1  0.36105146  0.10621707  0.49566104  1
  H+  H276  1  0.01270950  0.89442075  0.49654597  1
  H+  H277  1  0.11545541  0.47564661  0.67141185  1
  H+  H278  1  0.64113803  0.27708360  0.80523180  1
  H+  H279  1  0.35440628  0.13910480  0.83877683  1
  H+  H280  1  0.11466169  0.25180922  0.34077004  1
  H+  H281  1  0.63529848  0.10585267  -0.00038635  1
  H+  H282  1  0.73061982  0.34887772  0.18277415  1
  H+  H283  1  0.36340873  0.48812348  0.34206356  1
  H+  H284  1  0.28343400  0.41919398  0.50080580  1
  H+  H285  1  0.32448922  0.91317691  0.26041181  1
  H+  H286  1  0.11952786  0.85197962  0.18343155  1
  H+  H287  1  0.62008789  0.77549751  0.63999012  1
  H+  H288  1  0.64778878  0.32304860  0.59004651  1
  H+  H289  1  0.97297235  0.92583452  0.95053173  1
  H+  H290  1  0.67847895  0.52373030  0.18078753  1
  H+  H291  1  0.81050803  0.90883273  0.72554422  1
  H+  H292  1  0.14458389  0.59718002  0.50166177  1
  H+  H293  1  0.65714051  0.07764604  0.90252073  1
  H+  H294  1  0.57295047  0.16076948  0.72942939  1
  H+  H295  1  0.17146210  0.32478989  0.89730740  1
  H+  H296  1  0.36628514  0.36795389  0.00766552  1
  H+  H297  1  0.83595640  0.42219719  0.10382033  1
  H+  H298  1  0.15547771  0.07119319  0.60145537  1
  H+  H299  1  0.73004296  0.61782127  0.97941420  1
  H+  H300  1  0.42052681  0.07824184  0.89639913  1
  H+  H301  1  0.09898982  0.88826566  0.49819431  1
  H+  H302  1  0.00596337  0.14421818  0.81528972  1
  H+  H303  1  0.40278969  0.82274136  0.55775061  1
  H+  H304  1  0.72576654  0.10954953  0.99673324  1
  H+  H305  1  0.24285756  0.63378788  0.31773298  1
  H+  H306  1  0.66193283  0.58168853  0.59450634  1
  H+  H307  1  0.69592456  0.59015545  0.29782753  1
  H+  H308  1  0.17816960  0.59569388  0.22223242  1
  H+  H309  1  0.66996455  0.58253558  0.88200760  1
  H+  H310  1  0.85770877  0.71726780  0.39750791  1
  H+  H311  1  0.09049676  0.68010712  0.08980397  1
  H+  H312  1  0.07103010  0.16902844  0.72174751  1
  H+  H313  1  0.89235015  0.88817775  -0.00686999  1
  H+  H314  1  0.57659762  0.15457742  0.07076888  1
  H+  H315  1  0.67443712  0.85281128  0.24381692  1
  H+  H316  1  0.87804242  0.44570133  0.76908762  1
  H+  H317  1  0.94671955  0.63597805  0.59596089  1
  H+  H318  1  1.02146351  0.73380397  0.25730317  1
  H+  H319  1  0.91379493  0.08729833  0.24586786  1
  H+  H320  1  0.33572258  0.43921698  0.40535107  1
  H+  H321  1  0.06214475  0.92951833  0.75797585  1
  H+  H322  1  0.03374898  0.66593568  0.66910278  1
  H+  H323  1  0.80578509  0.12451736  0.42277778  1
  H+  H324  1  0.34614589  0.69182867  0.10035601  1
  H+  H325  1  0.87432627  0.33075155  0.64877613  1
  H+  H326  1  0.88807659  0.61911742  0.98905655  1
  H+  H327  1  0.63635683  0.43390984  0.08279142  1
  H+  H328  1  0.39758491  0.04264201  0.56906236  1
  H+  H329  1  -0.03550408  0.86779355  0.66110651  1
  H+  H330  1  0.91635492  0.26924445  0.43104168  1
  H+  H331  1  0.87868727  0.01457413  0.66077704  1
  H+  H332  1  0.92452894  0.59345869  0.89805860  1
  H+  H333  1  0.09497890  0.67440072  0.76082370  1
  H+  H334  1  0.33968679  0.67260491  0.40178048  1
  H+  H335  1  0.66925072  0.07547916  0.27597630  1
  H+  H336  1  0.55325695  0.53515973  0.09355398  1
  H+  H337  1  0.43918025  0.84018916  0.27634555  1
  H+  H338  1  0.34961269  0.83930417  0.93040945  1
  H+  H339  1  0.90509994  0.83246020  0.88620629  1
  H+  H340  1  0.82799015  0.92176560  0.07060303  1
  H+  H341  1  0.66687299  0.83610387  0.93293375  1
  H+  H342  1  0.50826238  0.52693222  0.09719969  1
  H+  H343  1  0.82544720  0.15400855  0.77669691  1
  H+  H344  1  0.51538163  0.10379268  0.35081298  1
  H+  H345  1  0.17181152  0.57904687  0.89883060  1
  H+  H346  1  0.59712482  0.68724941  0.70389629  1
  H+  H347  1  0.02492793  0.63794610  0.14545887  1
  H+  H348  1  0.41243143  0.08300509  0.25537918  1
  H+  H349  1  0.17601174  0.33899921  0.26392080  1
  H+  H350  1  0.41813564  0.32848670  0.59590119  1
  H+  H351  1  0.07631093  0.91217030  0.11556499  1
  H+  H352  1  0.15428936  0.06704271  0.24763594  1
  H+  H353  1  0.89356228  0.07690296  0.57349385  1
  H+  H354  1  0.16399566  0.86898443  0.93978969  1
  H+  H355  1  0.17842853  0.33705164  0.56035411  1
  H+  H356  1  -0.00105898  0.03661346  0.44135633  1
  H+  H357  1  0.07487823  0.90738092  0.40537390  1
  H+  H358  1  0.83103077  0.91602940  0.40010823  1
  H+  H359  1  0.31080226  0.89774303  0.42374522  1
  H+  H360  1  0.46962817  0.36301291  0.33755090  1
  H+  H361  1  0.16315427  0.84663073  0.56284008  1
  H+  H362  1  0.64881297  0.84512676  0.56387063  1
  H+  H363  1  0.37021758  0.31210686  0.25816083  1
  H+  H364  1  0.00561871  0.01172669  0.41676137  1
  H+  H365  1  0.09641299  0.64708301  0.42075865  1
  H+  H366  1  0.31240497  0.90308585  0.76746227  1
  H+  H367  1  0.04185072  0.65537107  0.32706788  1
  H+  H368  1  0.42783310  0.33589910  0.93436755  1
  H+  H369  1  0.40665738  0.57854442  0.89595738  1
  H+  H370  1  0.33361724  0.75692737  0.00327076  1
  H+  H371  1  0.39787347  0.33310206  0.48944498  1
  H+  H372  1  0.56636810  0.12157808  0.43590009  1
  H+  H373  1  0.15400228  0.07893173  0.90623408  1
  H+  H374  1  0.83063444  0.16785940  0.10925482  1
  H+  H375  1  0.62177085  0.86897188  0.64682820  1
  H+  H376  1  0.58778090  0.91226124  0.06850643  1
  H+  H377  1  0.16642643  0.57860957  0.59863828  1
  H+  H378  1  0.16523924  0.83085290  0.27924611  1
  H+  H379  1  0.60762909  0.13356381  0.82525263  1
  H+  H380  1  0.50817157  0.65416898  0.49504484  1
  H+  H381  1  0.83542359  0.41052604  0.37926849  1
  H+  H382  1  0.35663369  0.22800888  0.84030262  1
  H+  H383  1  0.57032027  0.91080202  0.72997933  1
  O2-  O384  1  0.07641015  0.16256885  0.15681736  1
  O2-  O385  1  0.17640723  0.21248990  0.45072576  1
  O2-  O386  1  0.05112272  0.18790608  0.78888502  1
  O2-  O387  1  0.08790152  0.41753148  0.14728856  1
  O2-  O388  1  0.10636261  0.41485391  0.46722035  1
  O2-  O389  1  0.08516270  0.40924669  0.81394085  1
  O2-  O390  1  0.08763493  0.67021469  0.13445460  1
  O2-  O391  1  0.09845235  0.63772783  0.46542671  1
  O2-  O392  1  0.09694527  0.66895252  0.80631842  1
  O2-  O393  1  0.06986965  0.90683632  0.16089207  1
  O2-  O394  1  0.07325350  0.92242013  0.48187966  1
  O2-  O395  1  0.06530145  0.92888258  0.80643690  1
  O2-  O396  1  0.31501716  0.15591945  0.17459573  1
  O2-  O397  1  0.33895668  0.14384006  0.48010800  1
  O2-  O398  1  0.31914821  0.16624679  0.83106768  1
  O2-  O399  1  0.32484625  0.40591526  0.14748074  1
  O2-  O400  1  0.34147998  0.46663304  0.48450430  1
  O2-  O401  1  0.33909165  0.41837708  0.81019711  1
  O2-  O402  1  0.34245538  0.68028119  0.14464873  1
  O2-  O403  1  0.33722222  0.66214361  0.47946866  1
  O2-  O404  1  0.33579899  0.67409069  0.80999338  1
  O2-  O405  1  0.32296388  0.90931167  0.21533007  1
  O2-  O406  1  0.29934067  0.88381544  0.46741718  1
  O2-  O407  1  0.31418696  0.91432504  0.81158859  1
  O2-  O408  1  0.57348416  0.15512356  0.15403503  1
  O2-  O409  1  0.55712713  0.10227107  0.48070116  1
  O2-  O410  1  0.57972284  0.16389485  0.80620119  1
  O2-  O411  1  0.66829575  0.44472960  0.12266965  1
  O2-  O412  1  0.59540685  0.42714851  0.48506949  1
  O2-  O413  1  0.58075040  0.41789906  0.79456393  1
  O2-  O414  1  0.55015051  0.57831051  0.22701975  1
  O2-  O415  1  0.56851433  0.67053681  0.48782840  1
  O2-  O416  1  0.62574629  0.69222635  0.77804992  1
  O2-  O417  1  0.58706662  0.92228639  0.15351161  1
  O2-  O418  1  0.59213523  0.86766064  0.48694931  1
  O2-  O419  1  0.56845817  0.91159175  0.81310328  1
  O2-  O420  1  0.82667155  0.16823023  0.15450297  1
  O2-  O421  1  0.77506309  0.11996893  0.50279483  1
  O2-  O422  1  0.82417594  0.15740356  0.82228382  1
  O2-  O423  1  0.83366012  0.42489966  0.14911014  1
  O2-  O424  1  0.85793922  0.40752702  0.46583152  1
  O2-  O425  1  0.85322975  0.42444152  0.81025532  1
  O2-  O426  1  0.83786181  0.67753390  0.13223891  1
  O2-  O427  1  0.81827148  0.68015777  0.43532072  1
  O2-  O428  1  0.83921387  0.66804814  0.80120629  1
  O2-  O429  1  0.82960076  0.92628936  0.15133852  1
  O2-  O430  1  0.82092429  0.92228658  0.47659022  1
  O2-  O431  1  0.81644283  0.91277123  0.80421187  1
  O2-  O432  1  0.15516436  0.06956746  0.19944005  1
  O2-  O433  1  0.17572105  0.08891591  0.51637208  1
  O2-  O434  1  0.15213206  0.08112426  0.86176181  1
  O2-  O435  1  0.16185406  0.32794942  0.18686395  1
  O2-  O436  1  0.19071777  0.34489758  0.51539114  1
  O2-  O437  1  0.17367510  0.32981829  0.85241495  1
  O2-  O438  1  0.17538190  0.59047489  0.17642889  1
  O2-  O439  1  0.17382803  0.56988405  0.52504609  1
  O2-  O440  1  0.16817185  0.57551196  0.85385205  1
  O2-  O441  1  0.14576935  0.81818059  0.19990119  1
  O2-  O442  1  0.14104629  0.82702799  0.52084537  1
  O2-  O443  1  0.14756827  0.85927352  0.85319000  1
  O2-  O444  1  0.40639455  0.08413021  0.21053488  1
  O2-  O445  1  0.39255744  0.03727818  0.52368401  1
  O2-  O446  1  0.41765039  0.08558038  0.85134165  1
  O2-  O447  1  0.33693752  0.28923881  0.21920274  1
  O2-  O448  1  0.43122944  0.31680602  0.51551163  1
  O2-  O449  1  0.42532860  0.34252607  0.85767340  1
  O2-  O450  1  0.40064606  0.57092189  0.18711209  1
  O2-  O451  1  0.39575583  0.63453031  0.50407755  1
  O2-  O452  1  0.40538150  0.58508827  0.85163549  1
  O2-  O453  1  0.42530629  0.83737813  0.19939245  1
  O2-  O454  1  0.39602928  0.81452532  0.51287944  1
  O2-  O455  1  0.39827497  0.83508142  0.85965178  1
  O2-  O456  1  0.66384687  0.08083920  0.19609042  1
  O2-  O457  1  0.62255277  0.01158807  0.52374839  1
  O2-  O458  1  0.65504769  0.07722441  0.85697229  1
  O2-  O459  1  0.66829057  0.31941735  0.19373191  1
  O2-  O460  1  0.70096463  0.36107077  0.51116661  1
  O2-  O461  1  0.67021811  0.33945352  0.79576936  1
  O2-  O462  1  0.69538793  0.57730723  0.20376569  1
  O2-  O463  1  0.65398675  0.59379344  0.51892091  1
  O2-  O464  1  0.67065128  0.58045311  0.83671974  1
  O2-  O465  1  0.67532516  0.86026015  0.19558406  1
  O2-  O466  1  0.65361644  0.84436962  0.51254837  1
  O2-  O467  1  0.65674287  0.83285285  0.85720577  1
  O2-  O468  1  0.91044560  0.08525341  0.20020136  1
  O2-  O469  1  0.88319376  0.07939428  0.52875274  1
  O2-  O470  1  0.90500833  0.07242558  0.85512204  1
  O2-  O471  1  0.91414008  0.34689760  0.18251717  1
  O2-  O472  1  0.93282526  0.31256532  0.46342042  1
  O2-  O473  1  0.91878578  0.32812922  0.85649843  1
  O2-  O474  1  0.92157472  0.59539643  0.17139846  1
  O2-  O475  1  0.98773198  0.68081919  0.52430023  1
  O2-  O476  1  0.92407136  0.59147535  0.85230544  1
  O2-  O477  1  0.90165734  0.83237320  0.18841070  1
  O2-  O478  1  0.90221224  0.83816139  0.51910610  1
  O2-  O479  1  0.90577353  0.83211356  0.84147570  1
  O2-  O480  1  0.15784647  0.06234916  0.31347050  1
  O2-  O481  1  0.15554989  0.07097228  0.64646887  1
  O2-  O482  1  0.16367372  0.08403443  0.99324941  1
  O2-  O483  1  0.17490658  0.34199412  0.30939767  1
  O2-  O484  1  0.16766280  0.32772886  0.63697983  1
  O2-  O485  1  0.16759360  0.31620173  0.98058098  1
  O2-  O486  1  0.18512106  0.60152704  0.29809850  1
  O2-  O487  1  0.16335383  0.58063757  0.64474363  1
  O2-  O488  1  0.19249087  0.57860658  0.98111522  1
  O2-  O489  1  0.17441953  0.83314791  0.32376041  1
  O2-  O490  1  0.19023027  0.88116471  0.63638340  1
  O2-  O491  1  0.16812508  0.86014611  0.98370205  1
  O2-  O492  1  0.40986285  0.03402635  0.33254464  1
  O2-  O493  1  0.40817125  0.06270756  0.64600345  1
  O2-  O494  1  0.42250126  0.06453719  0.97240485  1
  O2-  O495  1  0.40695323  0.33383947  0.32849266  1
  O2-  O496  1  0.41642983  0.33094046  0.64089789  1
  O2-  O497  1  0.42803588  0.33149794  0.98005122  1
  O2-  O498  1  0.40588041  0.58575673  0.31186007  1
  O2-  O499  1  0.41700075  0.58014076  0.63774069  1
  O2-  O500  1  0.41397347  0.56516113  0.98180435  1
  O2-  O501  1  0.44202299  0.84475344  0.32200076  1
  O2-  O502  1  0.41490813  0.82731725  0.63745242  1
  O2-  O503  1  0.30663468  0.81464662  0.96415899  1
  O2-  O504  1  0.67034986  0.07227028  0.32136787  1
  O2-  O505  1  0.65979029  0.07526126  0.65343459  1
  O2-  O506  1  0.66558901  0.07669842  0.98177089  1
  O2-  O507  1  0.64163170  0.30206093  0.31880514  1
  O2-  O508  1  0.60481144  0.29765624  0.62259490  1
  O2-  O509  1  0.66853363  0.31502386  0.98438669  1
  O2-  O510  1  0.67645785  0.58198685  0.34051725  1
  O2-  O511  1  0.66468957  0.57100556  0.63920548  1
  O2-  O512  1  0.67089603  0.58424109  0.96243362  1
  O2-  O513  1  0.67384544  0.83882519  0.30726199  1
  O2-  O514  1  0.65157385  0.84180296  0.62535480  1
  O2-  O515  1  0.66951591  0.83237540  0.97879288  1
  O2-  O516  1  0.92681171  0.08920190  0.32465821  1
  O2-  O517  1  0.90768802  0.07647197  0.64792447  1
  O2-  O518  1  0.92722909  0.08823113  0.98418952  1
  O2-  O519  1  0.91648298  0.31558726  0.32071289  1
  O2-  O520  1  0.90873758  0.32405840  0.68040012  1
  O2-  O521  1  0.92200282  0.33416221  0.98210007  1
  O2-  O522  1  0.97283877  0.68488878  0.27725529  1
  O2-  O523  1  0.93605432  0.62125480  0.63994955  1
  O2-  O524  1  0.92106033  0.59106702  0.97542428  1
  O2-  O525  1  0.86004940  0.78966628  0.30740965  1
  O2-  O526  1  0.90336312  0.83091163  0.64111015  1
  O2-  O527  1  0.93288192  0.87294801  0.97181757  1
  O2-  O528  1  0.01638117  0.12227387  0.00739001  1
  O2-  O529  1  0.08331678  0.19946586  0.36800470  1
  O2-  O530  1  0.07560915  0.16289284  0.67621463  1
  O2-  O531  1  0.09230018  0.40607526  0.02133425  1
  O2-  O532  1  0.11325050  0.44329993  0.35240567  1
  O2-  O533  1  0.09033336  0.41583691  0.68803431  1
  O2-  O534  1  0.08877705  0.69919372  0.00905414  1
  O2-  O535  1  0.09694284  0.66984363  0.34675350  1
  O2-  O536  1  0.09505097  0.69078776  0.68390478  1
  O2-  O537  1  0.08879085  0.92546674  0.03899814  1
  O2-  O538  1  0.07350300  0.89626579  0.36073490  1
  O2-  O539  1  0.05324900  0.91972946  0.69096168  1
  O2-  O540  1  0.35227285  0.16406116  0.00805349  1
  O2-  O541  1  0.32251235  0.15390744  0.35134281  1
  O2-  O542  1  0.33079832  0.16742632  0.66814511  1
  O2-  O543  1  0.33095154  0.39414610  0.02256852  1
  O2-  O544  1  0.33530451  0.42894632  0.36091778  1
  O2-  O545  1  0.33257482  0.41178102  0.68545951  1
  O2-  O546  1  0.34837897  0.71183760  0.01844110  1
  O2-  O547  1  0.34023015  0.67885106  0.35644784  1
  O2-  O548  1  0.33396998  0.66775357  0.68473440  1
  O2-  O549  1  0.31545674  0.88859519  -0.00040088  1
  O2-  O550  1  0.36988545  0.94978117  0.34124509  1
  O2-  O551  1  0.30691430  0.85584635  0.69293612  1
  O2-  O552  1  0.58030592  0.15360699  0.02571676  1
  O2-  O553  1  0.57538442  0.14188381  0.36609588  1
  O2-  O554  1  0.56797566  0.15396654  0.68387456  1
  O2-  O555  1  0.59748524  0.41990634  0.01214522  1
  O2-  O556  1  0.57892020  0.40737986  0.36011484  1
  O2-  O557  1  0.57695529  0.42549891  0.67776243  1
  O2-  O558  1  0.58490451  0.66680112  0.00385665  1
  O2-  O559  1  0.58178509  0.67156520  0.32198793  1
  O2-  O560  1  0.58561038  0.68943918  0.65959807  1
  O2-  O561  1  0.58795630  0.90818148  0.02368756  1
  O2-  O562  1  0.60133111  0.91114162  0.36708234  1
  O2-  O563  1  0.57137138  0.91369695  0.68465594  1
  O2-  O564  1  0.83576688  0.16981056  0.02790113  1
  O2-  O565  1  0.82946271  0.14143847  0.38134138  1
  O2-  O566  1  0.82566234  0.14691177  0.70032461  1
  O2-  O567  1  0.84215150  0.42190672  0.02387987  1
  O2-  O568  1  0.82463404  0.40774258  0.33524775  1
  O2-  O569  1  0.93854251  0.49618018  0.70526301  1
  O2-  O570  1  0.83560093  0.67545365  0.01083439  1
  O2-  O571  1  0.91223211  0.76538966  0.34617710  1
  O2-  O572  1  0.82424291  0.66789281  0.67913424  1
  O2-  O573  1  0.83139222  0.92375140  0.02516556  1
  O2-  O574  1  0.83687481  0.91465654  0.35471700  1
  O2-  O575  1  0.81523328  0.91027257  0.68007219  1
