# generated using pymatgen
data_H2O
_symmetry_space_group_name_H-M   'P 1'
_cell_length_a   17.99032409
_cell_length_b   17.98841412
_cell_length_c   21.99882085
_cell_angle_alpha   89.98324854
_cell_angle_beta   90.01685998
_cell_angle_gamma   119.96326393
_symmetry_Int_Tables_number   1
_chemical_formula_structural   H2O
_chemical_formula_sum   'H384 O192'
_cell_volume   6167.68976878
_cell_formula_units_Z   192
loop_
 _symmetry_equiv_pos_site_id
 _symmetry_equiv_pos_as_xyz
  1  'x, y, z'
loop_
 _atom_type_symbol
 _atom_type_oxidation_number
  H+  1.0
  O2-  -2.0
loop_
 _atom_site_type_symbol
 _atom_site_label
 _atom_site_symmetry_multiplicity
 _atom_site_fract_x
 _atom_site_fract_y
 _atom_site_fract_z
 _atom_site_occupancy
  H+  H0  1  0.13862448  0.36549155  0.33946934  1
  H+  H1  1  0.36677747  0.40272711  0.15917412  1
  H+  H2  1  0.94907464  0.91760648  0.02089495  1
  H+  H3  1  0.12215560  0.28467461  0.84030323  1
  H+  H4  1  0.61601751  0.63405674  0.34234591  1
  H+  H5  1  0.63784308  0.86443381  0.51519656  1
  H+  H6  1  0.26477575  0.67894421  0.08347583  1
  H+  H7  1  0.04056137  0.89226635  0.16096117  1
  H+  H8  1  1.00285456  0.38643054  0.82280728  1
  H+  H9  1  0.13175339  0.53093721  0.65126656  1
  H+  H10  1  0.64933751  0.86339083  0.32729239  1
  H+  H11  1  0.09676302  0.83828175  0.63447052  1
  H+  H12  1  0.62109632  0.64309160  0.49387975  1
  H+  H13  1  0.33403900  0.77259374  1.01269931  1
  H+  H14  1  0.10871762  0.22783140  0.01378709  1
  H+  H15  1  0.57147441  0.86149194  0.00414756  1
  H+  H16  1  0.59825338  0.97744049  0.50377010  1
  H+  H17  1  0.36940634  0.72979905  0.34264769  1
  H+  H18  1  0.23488575  0.86531066  0.33264060  1
  H+  H19  1  0.11492783  0.70722173  0.82017557  1
  H+  H20  1  0.73592601  0.61674350  0.33201240  1
  H+  H21  1  0.79401885  0.86375669  -0.00208685  1
  H+  H22  1  0.98787997  0.61342002  0.83352300  1
  H+  H23  1  1.01694990  0.61882077  0.16935632  1
  H+  H24  1  0.36459014  0.13922281  0.82990879  1
  H+  H25  1  0.88209477  0.35499833  0.99155385  1
  H+  H26  1  0.89656275  0.37200610  0.84059883  1
  H+  H27  1  0.47235913  0.62857742  0.17186789  1
  H+  H28  1  0.63732497  0.12315674  0.51564143  1
  H+  H29  1  0.52939961  0.60681209  1.00404988  1
  H+  H30  1  0.08453045  0.43214226  0.76179825  1
  H+  H31  1  0.11615737  0.21833031  0.52224788  1
  H+  H32  1  0.37727790  0.37918638  0.66208927  1
  H+  H33  1  0.64368557  0.28341322  0.83072533  1
  H+  H34  1  0.87344350  0.26096418  0.00126912  1
  H+  H35  1  0.61973331  0.47767543  0.33392078  1
  H+  H36  1  0.82467933  0.40397438  0.10824094  1
  H+  H37  1  0.91230511  0.53818916  -0.01713097  1
  H+  H38  1  0.91058189  0.62501223  0.99343963  1
  H+  H39  1  0.38609112  0.40332742  0.81480185  1
  H+  H40  1  0.13920801  0.10684485  0.65139347  1
  H+  H41  1  0.98892769  0.86002200  0.82606180  1
  H+  H42  1  0.61004474  0.97960981  0.83039654  1
  H+  H43  1  0.47925729  0.87342088  0.33203847  1
  H+  H44  1  0.48674033  0.86926625  1.01160703  1
  H+  H45  1  0.10912993  0.39972465  0.82517862  1
  H+  H46  1  0.13129659  0.11846267  0.33297585  1
  H+  H47  1  0.28155423  0.90182517  0.16826117  1
  H+  H48  1  0.98457440  0.11985502  0.99534047  1
  H+  H49  1  0.87078785  0.07504101  0.51311016  1
  H+  H50  1  0.36315253  0.23421281  0.17181772  1
  H+  H51  1  0.87832969  0.00986644  0.17924906  1
  H+  H52  1  0.63615156  0.61835146  0.64674230  1
  H+  H53  1  0.05074630  0.66583397  1.01712353  1
  H+  H54  1  0.37871487  0.46776590  0.64958773  1
  H+  H55  1  0.48168735  0.37675688  0.32329420  1
  H+  H56  1  1.11831941  1.00927055  0.34308098  1
  H+  H57  1  0.41920012  0.06207708  0.60545665  1
  H+  H58  1  0.32048637  0.12881048  0.50175373  1
  H+  H59  1  0.02172447  0.39235582  0.49370925  1
  H+  H60  1  0.09843755  0.90430693  0.10139491  1
  H+  H61  1  0.02111861  0.64743829  0.49097257  1
  H+  H62  1  0.00866418  0.93862962  0.49230821  1
  H+  H63  1  0.75490084  0.11172164  0.34830705  1
  H+  H64  1  0.35335522  0.85808821  0.65474888  1
  H+  H65  1  0.39135688  0.49390370  0.98683138  1
  H+  H66  1  0.38974952  0.76478451  0.50323215  1
  H+  H67  1  0.02509129  0.39286923  0.66900010  1
  H+  H68  1  0.14687536  0.78203737  0.32456577  1
  H+  H69  1  0.57785461  0.93858901  0.41134532  1
  H+  H70  1  0.90275287  0.77830947  0.33052563  1
  H+  H71  1  0.62982431  0.48814418  0.82154692  1
  H+  H72  1  0.38795233  0.11437750  1.00955026  1
  H+  H73  1  0.67205026  0.34009688  0.92810218  1
  H+  H74  1  0.22741683  0.36503356  0.33835237  1
  H+  H75  1  0.37804766  0.51238932  0.52516536  1
  H+  H76  1  0.93170664  0.99705618  0.01949799  1
  H+  H77  1  0.73627831  0.86038029  0.32974468  1
  H+  H78  1  0.51615855  0.12712756  0.67194006  1
  H+  H79  1  0.88261634  0.61316632  0.65302586  1
  H+  H80  1  0.36525069  0.48060809  0.34412664  1
  H+  H81  1  0.02500004  0.13889959  0.82750987  1
  H+  H82  1  0.14430263  0.61938628  0.33476825  1
  H+  H83  1  0.15931957  0.96885117  -0.00780375  1
  H+  H84  1  0.63800272  0.02313210  0.17032969  1
  H+  H85  1  0.10154299  0.45840017  0.01730119  1
  H+  H86  1  0.43112070  0.10593561  0.51457608  1
  H+  H87  1  0.79848002  0.66045451  0.16454467  1
  H+  H88  1  0.38941204  0.87540774  0.17695208  1
  H+  H89  1  0.52898664  0.13535543  0.37640936  1
  H+  H90  1  0.66269255  0.15157611  0.32601311  1
  H+  H91  1  0.22823092  0.84551687  0.60770571  1
  H+  H92  1  0.11226207  0.73538049  0.49456688  1
  H+  H93  1  0.88764412  0.60738517  0.17733376  1
  H+  H94  1  0.72776191  0.10962723  0.16713084  1
  H+  H95  1  0.49232088  0.61770835  0.83998979  1
  H+  H96  1  0.87547974  0.76353685  0.63944292  1
  H+  H97  1  0.52981680  0.38687978  0.48318857  1
  H+  H98  1  0.21594115  0.59647184  0.99790992  1
  H+  H99  1  0.62609109  0.35104533  0.17094174  1
  H+  H100  1  0.69874399  0.33801339  0.32802210  1
  H+  H101  1  0.69973998  0.56393297  0.11536347  1
  H+  H102  1  0.76848481  0.38836747  0.51474585  1
  H+  H103  1  0.38551745  0.24933567  0.65460439  1
  H+  H104  1  0.36679134  0.39302046  0.34389453  1
  H+  H105  1  0.21700644  0.85066720  0.83665446  1
  H+  H106  1  1.01597413  0.84522405  0.99881848  1
  H+  H107  1  0.66855760  0.57636788  0.10326569  1
  H+  H108  1  0.39658372  0.65696156  0.99896980  1
  H+  H109  1  0.60505242  -0.03132954  0.67207425  1
  H+  H110  1  0.62818774  0.63750262  0.00774512  1
  H+  H111  1  0.67619494  0.25237929  0.51017684  1
  H+  H112  1  0.61220397  0.22395562  0.16497569  1
  H+  H113  1  0.59495708  0.10127991  0.84473630  1
  H+  H114  1  0.85419778  0.42607356  -0.06909230  1
  H+  H115  1  0.93705195  0.20931044  0.12021591  1
  H+  H116  1  0.92538534  0.54682592  0.33363550  1
  H+  H117  1  0.87632760  0.73136782  0.82273669  1
  H+  H118  1  0.35353359  0.62892135  0.49863134  1
  H+  H119  1  0.34148198  0.89163436  1.00743811  1
  H+  H120  1  0.69036888  0.98888995  0.79703354  1
  H+  H121  1  0.51097282  0.12934214  1.01788626  1
  H+  H122  1  0.47546652  0.86959585  0.17555196  1
  H+  H123  1  0.65204763  0.61829395  0.83564651  1
  H+  H124  1  0.61102378  0.74074856  0.15268554  1
  H+  H125  1  0.90108364  0.28227647  0.82458843  1
  H+  H126  1  0.09250847  0.67907013  0.40032834  1
  H+  H127  1  0.20929224  0.34925673  0.66806742  1
  H+  H128  1  0.86564763  0.96306671  0.35108873  1
  H+  H129  1  0.13917688  0.52665930  0.33269275  1
  H+  H130  1  0.74216451  0.62061456  0.83647934  1
  H+  H131  1  0.78027465  0.88147036  0.84076845  1
  H+  H132  1  0.37875952  0.62754209  0.02588373  1
  H+  H133  1  0.64448355  0.86155474  0.83779543  1
  H+  H134  1  0.89325752  0.73599020  0.16636316  1
  H+  H135  1  0.28024685  0.64060182  0.34242159  1
  H+  H136  1  0.26741936  0.62741073  0.64925957  1
  H+  H137  1  0.22668915  0.11726196  0.18431718  1
  H+  H138  1  1.04173494  0.65381053  0.33713995  1
  H+  H139  1  0.86238925  0.99275369  0.67213808  1
  H+  H140  1  0.11268515  0.22574295  0.34984980  1
  H+  H141  1  0.31078382  0.36055529  0.02117772  1
  H+  H142  1  0.88991267  0.73581782  1.00725239  1
  H+  H143  1  0.64714540  0.81238365  0.89689141  1
  H+  H144  1  0.41497236  0.34624473  0.97363982  1
  H+  H145  1  0.75704623  0.11554232  0.00965994  1
  H+  H146  1  0.61693129  0.72264783  0.33719797  1
  H+  H147  1  0.35797871  0.11538402  0.67312171  1
  H+  H148  1  0.95931554  0.83913666  0.93813313  1
  H+  H149  1  0.65137635  0.20309400  0.44535716  1
  H+  H150  1  0.23715703  0.86001372  0.51502712  1
  H+  H151  1  0.65331488  0.37376979  -0.01049276  1
  H+  H152  1  0.73343924  0.87527626  0.16817770  1
  H+  H153  1  0.86660949  0.39063457  0.65931043  1
  H+  H154  1  0.65868810  0.66252782  0.18108887  1
  H+  H155  1  0.88167044  0.36397849  0.50664616  1
  H+  H156  1  0.88094614  0.85240753  0.64658630  1
  H+  H157  1  1.01871385  0.63472561  0.67254971  1
  H+  H158  1  0.29309321  0.62968717  0.80179467  1
  H+  H159  1  0.40123206  0.00567427  0.51473513  1
  H+  H160  1  0.31238986  0.24973375  0.98168448  1
  H+  H161  1  0.38468334  0.75520202  0.64851645  1
  H+  H162  1  0.61335818  0.89288786  0.15774933  1
  H+  H163  1  0.38807923  0.02682399  0.85464389  1
  H+  H164  1  0.08710616  0.37033524  0.17933795  1
  H+  H165  1  0.37864994  1.00035862  0.66193651  1
  H+  H166  1  0.79958039  0.83147170  0.11535898  1
  H+  H167  1  0.88340681  0.53342410  0.50343860  1
  H+  H168  1  0.55160442  0.41158359  -0.00403168  1
  H+  H169  1  0.46893987  0.36226753  0.17205055  1
  H+  H170  1  0.88565271  0.26491198  0.33387652  1
  H+  H171  1  0.96746426  0.35411718  0.18426037  1
  H+  H172  1  0.15951748  0.62170555  0.83793666  1
  H+  H173  1  0.13207269  0.62178298  0.49712112  1
  H+  H174  1  0.35412077  0.64865103  0.16191415  1
  H+  H175  1  0.80357352  0.87209512  0.96434437  1
  H+  H176  1  0.76933649  0.63766860  0.66776845  1
  H+  H177  1  1.02515426  0.13562264  0.35027906  1
  H+  H178  1  0.89509949  0.86254735  0.33185936  1
  H+  H179  1  0.61959185  0.35647373  0.32505557  1
  H+  H180  1  0.01802661  0.12227903  0.16846863  1
  H+  H181  1  0.35708340  0.73914545  0.16753043  1
  H+  H182  1  0.02391292  0.38977723  0.34299958  1
  H+  H183  1  0.28016441  0.14689439  0.82977073  1
  H+  H184  1  0.89044097  0.27097774  0.65423670  1
  H+  H185  1  0.54081294  0.39761062  0.81591143  1
  H+  H186  1  0.28594557  0.01871527  0.29620875  1
  H+  H187  1  0.11742586  0.26516130  0.18693384  1
  H+  H188  1  0.40157038  0.28041399  0.82586835  1
  H+  H189  1  0.91636461  0.59358923  0.56161528  1
  H+  H190  1  0.62041600  0.72408068  0.81443390  1
  H+  H191  1  0.37063924  0.59706560  0.62117822  1
  H+  H192  1  0.47883460  0.61331761  0.32520177  1
  H+  H193  1  0.88267847  0.23185282  0.16362668  1
  H+  H194  1  0.63192468  0.53025173  0.65311650  1
  H+  H195  1  0.78412593  0.39529765  0.84411836  1
  H+  H196  1  0.83860436  0.35601403  0.34520235  1
  H+  H197  1  0.20162944  0.36237542  0.00044461  1
  H+  H198  1  0.10420170  0.76307561  0.03892929  1
  H+  H199  1  0.14382889  0.04278389  0.85468475  1
  H+  H200  1  0.75072330  0.62786000  0.99351600  1
  H+  H201  1  0.90456645  0.86194265  0.17754055  1
  H+  H202  1  0.60578537  0.45962239  0.15592086  1
  H+  H203  1  0.13461374  0.11315135  1.00184442  1
  H+  H204  1  0.27285537  0.37995698  0.49539504  1
  H+  H205  1  0.47726481  0.11511929  0.18494469  1
  H+  H206  1  0.22013954  0.61777443  0.49855685  1
  H+  H207  1  0.38829231  0.35206143  0.50345244  1
  H+  H208  1  0.12735158  0.83749721  0.81607984  1
  H+  H209  1  0.36810995  0.49317458  0.15869700  1
  H+  H210  1  0.88277902  0.52368051  0.64798529  1
  H+  H211  1  0.20084035  0.17134765  0.48980446  1
  H+  H212  1  0.85356828  0.12170690  0.66890416  1
  H+  H213  1  0.19550296  0.69407952  0.04561123  1
  H+  H214  1  0.59604625  0.71579589  0.66113019  1
  H+  H215  1  0.07870530  0.18759154  0.66992013  1
  H+  H216  1  0.52525684  0.01883748  0.87799811  1
  H+  H217  1  0.87327163  0.64338571  0.33944233  1
  H+  H218  1  0.68242100  0.84051109  0.99081703  1
  H+  H219  1  0.72981818  0.61420688  0.49841938  1
  H+  H220  1  0.89242510  0.04142130  0.57273330  1
  H+  H221  1  0.36836312  0.88647173  0.34602788  1
  H+  H222  1  0.85751810  -0.06226833  0.50356876  1
  H+  H223  1  0.08505821  0.67020174  0.11535812  1
  H+  H224  1  0.74330590  0.84400465  0.68175070  1
  H+  H225  1  0.11822268  0.94934640  0.77441048  1
  H+  H226  1  0.50618304  0.45601886  0.69433609  1
  H+  H227  1  0.63175505  0.10612541  0.67006511  1
  H+  H228  1  0.10835908  0.35033010  1.00627229  1
  H+  H229  1  0.34580563  0.86550885  0.84725718  1
  H+  H230  1  0.15949913  0.88471206  0.17818131  1
  H+  H231  1  0.45949793  0.44509447  0.95411860  1
  H+  H232  1  0.87488738  0.48660511  0.84473819  1
  H+  H233  1  0.11104489  0.13298363  0.16682624  1
  H+  H234  1  0.59937102  0.22472594  0.34806156  1
  H+  H235  1  0.22096282  0.10863633  0.00768798  1
  H+  H236  1  0.23688452  0.52709425  0.97199062  1
  H+  H237  1  0.14145679  0.02673749  0.17423703  1
  H+  H238  1  0.00623266  0.37464955  0.02236608  1
  H+  H239  1  0.87989093  0.92038642  0.09640236  1
  H+  H240  1  0.26902648  0.04829678  0.06310588  1
  H+  H241  1  0.87030934  0.65246190  0.49093781  1
  H+  H242  1  0.90628537  0.86656558  0.84429903  1
  H+  H243  1  0.77879011  0.38527132  0.64462587  1
  H+  H244  1  0.86920996  0.08104524  0.34100312  1
  H+  H245  1  0.08983780  1.03408427  0.49106486  1
  H+  H246  1  0.38830911  1.02719694  0.17585907  1
  H+  H247  1  0.36130650  0.14508484  0.34228388  1
  H+  H248  1  0.64368885  0.35275169  0.62358517  1
  H+  H249  1  0.39547833  0.22582108  0.50036371  1
  H+  H250  1  0.60833241  1.00413869  0.00035612  1
  H+  H251  1  0.42137174  0.82345440  0.56317960  1
  H+  H252  1  0.39019480  0.02993218  0.99989312  1
  H+  H253  1  0.89132938  0.84316590  0.54793192  1
  H+  H254  1  0.60473917  0.74630968  0.99214390  1
  H+  H255  1  0.88851543  0.10303917  0.17917754  1
  H+  H256  1  0.38216147  0.76203589  0.84727061  1
  H+  H257  1  0.95554264  0.07535127  0.67027063  1
  H+  H258  1  0.88722353  0.10099040  -0.00617097  1
  H+  H259  1  0.61550520  0.13512763  0.16499405  1
  H+  H260  1  0.39150075  0.61626174  0.32804544  1
  H+  H261  1  0.76551727  0.06507798  0.88035150  1
  H+  H262  1  0.74585173  0.02769547  0.90178284  1
  H+  H263  1  0.11937922  0.15180154  0.82961088  1
  H+  H264  1  0.36741023  0.87389854  0.49815126  1
  H+  H265  1  0.12233393  0.40989118  0.67126010  1
  H+  H266  1  0.12901234  0.61991832  0.18187848  1
  H+  H267  1  0.23328622  0.12031826  0.64578377  1
  H+  H268  1  0.59940580  0.11712233  0.01859726  1
  H+  H269  1  0.88786731  0.27731565  0.50252729  1
  H+  H270  1  0.37880834  0.62697900  0.80332701  1
  H+  H271  1  0.78220548  0.14371876  0.51012360  1
  H+  H272  1  0.52039091  0.15099910  0.82288923  1
  H+  H273  1  0.46996351  0.34456928  0.65523031  1
  H+  H274  1  0.82079799  0.43253895  0.33623046  1
  H+  H275  1  0.13865682  0.33476663  0.90264864  1
  H+  H276  1  0.32071322  0.26061806  0.01530464  1
  H+  H277  1  0.16870689  0.59267959  0.24737426  1
  H+  H278  1  0.54408230  0.05904903  0.53937088  1
  H+  H279  1  0.83467245  0.89362616  0.40653731  1
  H+  H280  1  0.47141574  0.84821418  0.65929543  1
  H+  H281  1  1.02902618  0.90324246  0.35102405  1
  H+  H282  1  0.62966892  0.85370506  0.66307124  1
  H+  H283  1  0.64924059  0.37508268  0.82781816  1
  H+  H284  1  0.01409847  0.84932829  0.64015925  1
  H+  H285  1  0.10958260  0.48393056  0.49187407  1
  H+  H286  1  0.76947482  0.13013565  0.66925556  1
  H+  H287  1  0.87116427  0.34464068  0.18339964  1
  H+  H288  1  0.44275445  0.35223690  0.87881499  1
  H+  H289  1  0.73614377  0.72175881  0.22345748  1
  H+  H290  1  0.82885074  0.90157464  0.77877817  1
  H+  H291  1  0.33532935  0.64493943  0.70330606  1
  H+  H292  1  0.16968680  0.13368004  0.55757277  1
  H+  H293  1  0.33901199  0.93089804  0.10591417  1
  H+  H294  1  0.60413595  0.21501200  0.65861923  1
  H+  H295  1  0.82579379  0.15044607  0.06382135  1
  H+  H296  1  0.40505602  0.52853547  0.83486670  1
  H+  H297  1  0.58287455  0.41032107  0.09384572  1
  H+  H298  1  0.84905891  0.17616938  0.75950074  1
  H+  H299  1  0.33087695  0.15362211  0.72971274  1
  H+  H300  1  0.35330001  0.91842196  0.78816670  1
  H+  H301  1  0.87593421  0.64297141  0.82017502  1
  H+  H302  1  0.86177724  0.73828533  0.48416853  1
  H+  H303  1  0.06995107  0.87121059  0.73026835  1
  H+  H304  1  0.58288325  0.91246346  0.73140435  1
  H+  H305  1  0.06098687  0.40344769  0.11912596  1
  H+  H306  1  0.61638594  0.47704027  0.48226551  1
  H+  H307  1  0.73823000  0.03047752  0.38623610  1
  H+  H308  1  0.52426252  0.88215072  0.49517904  1
  H+  H309  1  0.64120562  0.49288208  0.00882694  1
  H+  H310  1  0.85574282  0.67650073  0.06675799  1
  H+  H311  1  0.19616664  0.58620444  0.89160397  1
  H+  H312  1  0.93762523  0.84047911  0.24008385  1
  H+  H313  1  0.33700665  0.41840706  0.43939824  1
  H+  H314  1  0.37754952  0.06469324  0.26591660  1
  H+  H315  1  0.15592189  0.08068732  0.27231701  1
  H+  H316  1  0.10873511  0.63947503  0.66764236  1
  H+  H317  1  0.84132731  0.67359500  0.39803117  1
  H+  H318  1  0.90852156  0.06561878  0.28012728  1
  H+  H319  1  0.92131374  0.33198458  0.59586715  1
  H+  H320  1  0.31744457  0.13972046  0.09299491  1
  H+  H321  1  0.28016368  0.85468121  0.69740838  1
  H+  H322  1  0.15838989  0.58726942  0.58956697  1
  H+  H323  1  0.58844778  0.67360360  0.43812093  1
  H+  H324  1  0.32051421  0.42458803  0.07391911  1
  H+  H325  1  0.41489627  0.59506247  0.23177819  1
  H+  H326  1  0.26782330  0.91969526  0.01324925  1
  H+  H327  1  0.58279644  0.65860001  0.75753495  1
  H+  H328  1  0.68006747  0.60169770  0.27316150  1
  H+  H329  1  0.51194916  0.62501380  0.64958712  1
  H+  H330  1  0.56885963  1.00202037  0.36648237  1
  H+  H331  1  0.76019638  0.37521727  0.16446679  1
  H+  H332  1  0.67127652  0.58142204  0.55778376  1
  H+  H333  1  0.23149810  0.63050453  0.18488912  1
  H+  H334  1  0.58454918  0.41801712  0.39389798  1
  H+  H335  1  0.57179616  0.91319845  0.09977604  1
  H+  H336  1  0.18845932  0.85302442  0.23806639  1
  H+  H337  1  0.57872449  0.17197698  0.76269913  1
  H+  H338  1  0.18554924  0.36720051  0.60251041  1
  H+  H339  1  0.67846580  0.84683361  0.22962901  1
  H+  H340  1  0.42128098  0.32288640  0.56123646  1
  H+  H341  1  0.43749751  0.55117507  0.92529058  1
  H+  H342  1  0.63757533  0.77491459  0.51279193  1
  H+  H343  1  0.65125650  0.32280061  0.23423176  1
  H+  H344  1  0.81971759  0.14091435  0.44692247  1
  H+  H345  1  0.07812986  0.95596588  0.41473554  1
  H+  H346  1  0.66133249  0.82731568  0.60128782  1
  H+  H347  1  0.17772123  0.10336908  0.91105471  1
  H+  H348  1  0.08044939  0.16491049  0.07272143  1
  H+  H349  1  0.89348378  0.02516932  0.84178017  1
  H+  H350  1  0.57536604  0.15601477  0.08295551  1
  H+  H351  1  0.13276206  0.37325392  0.50815182  1
  H+  H352  1  0.42073295  0.09511089  0.90861052  1
  H+  H353  1  0.37392824  0.18642361  0.40725936  1
  H+  H354  1  0.78533779  0.79718690  0.71644156  1
  H+  H355  1  0.42115055  0.83957987  0.27123367  1
  H+  H356  1  0.33723068  0.91012669  0.44206372  1
  H+  H357  1  0.36768614  0.14573800  0.17773926  1
  H+  H358  1  0.63190326  0.06805408  0.94433272  1
  H+  H359  1  0.93762294  0.60353260  0.89550490  1
  H+  H360  1  0.64303154  0.07217296  0.60761877  1
  H+  H361  1  0.14885107  0.32385621  0.24656653  1
  H+  H362  1  0.35424541  0.96883726  0.34623364  1
  H+  H363  1  0.39662146  0.28765742  0.32929695  1
  H+  H364  1  0.07192961  0.14860053  0.73562977  1
  H+  H365  1  0.68951601  0.59622029  0.93409473  1
  H+  H366  1  0.69008034  0.12012831  0.26646786  1
  H+  H367  1  0.80918659  0.40549910  0.44784956  1
  H+  H368  1  0.83507503  0.67185839  0.72526464  1
  H+  H369  1  0.36392691  0.44151628  0.75852059  1
  H+  H370  1  0.92488915  0.58409426  0.26717408  1
  H+  H371  1  0.78430716  0.39700581  -0.01919050  1
  H+  H372  1  0.41534062  0.34250451  0.23455012  1
  H+  H373  1  0.28805474  0.71930618  0.86880575  1
  H+  H374  1  0.37068882  0.80787067  0.94716347  1
  H+  H375  1  0.33598008  0.66274830  0.43515237  1
  H+  H376  1  0.57309209  0.43771740  0.72975988  1
  H+  H377  1  0.90493228  0.31962488  0.27345063  1
  H+  H378  1  0.58368426  0.66975107  0.09937398  1
  H+  H379  1  0.92549004  0.08589959  0.89990489  1
  H+  H380  1  0.08136997  0.42171745  0.40307748  1
  H+  H381  1  0.88318082  0.15323811  0.81991714  1
  H+  H382  1  0.87694632  0.51216971  0.17874127  1
  H+  H383  1  0.08239730  0.64558245  0.76293308  1
  O2-  O384  1  0.07612844  0.15845043  0.15133251  1
  O2-  O385  1  0.08881233  0.25440877  0.53017130  1
  O2-  O386  1  0.08403451  0.17241223  0.80904306  1
  O2-  O387  1  0.05371546  0.39847727  0.16401987  1
  O2-  O388  1  0.08275027  0.42205503  0.47918992  1
  O2-  O389  1  0.07952873  0.43058440  0.80748474  1
  O2-  O390  1  0.07886304  0.65026390  0.15855045  1
  O2-  O391  1  0.08179366  0.67695256  0.47574238  1
  O2-  O392  1  0.08681868  0.64480693  0.80904027  1
  O2-  O393  1  0.09954706  0.92611080  0.14420800  1
  O2-  O394  1  0.06946914  0.97353102  0.48012218  1
  O2-  O395  1  0.07664221  0.88825532  0.77547447  1
  O2-  O396  1  0.33291790  0.17090659  0.16185391  1
  O2-  O397  1  0.37958972  0.16512802  0.48846027  1
  O2-  O398  1  0.33759448  0.16992596  0.81037795  1
  O2-  O399  1  0.34220997  0.43541331  0.13979938  1
  O2-  O400  1  0.33447972  0.41199538  0.48497833  1
  O2-  O401  1  0.36066979  0.43917028  0.80345846  1
  O2-  O402  1  0.32052670  0.67824293  0.15308812  1
  O2-  O403  1  0.32935543  0.66270047  0.48046714  1
  O2-  O404  1  0.34969229  0.65368089  0.78156318  1
  O2-  O405  1  0.34475432  0.93156143  0.15077376  1
  O2-  O406  1  0.33723985  0.90685982  0.48775695  1
  O2-  O407  1  0.34175218  0.91607621  0.83162573  1
  O2-  O408  1  0.58152645  0.16213745  0.15060540  1
  O2-  O409  1  0.68321926  0.20948926  0.48325631  1
  O2-  O410  1  0.58019550  0.17393759  0.80833185  1
  O2-  O411  1  0.57497550  0.40150356  0.13952934  1
  O2-  O412  1  0.58672312  0.41884932  0.46352936  1
  O2-  O413  1  0.60161069  0.43083247  0.80092276  1
  O2-  O414  1  0.58391866  0.67827794  0.14443337  1
  O2-  O415  1  0.59437599  0.67802110  0.48269696  1
  O2-  O416  1  0.59333564  0.66270463  0.80201977  1
  O2-  O417  1  0.58088510  0.92173532  0.14467494  1
  O2-  O418  1  0.58523998  0.92281634  0.48277482  1
  O2-  O419  1  0.63107708  0.94630721  0.80669739  1
  O2-  O420  1  0.88003749  0.18210896  0.13883923  1
  O2-  O421  1  0.83642459  0.16000216  0.48976327  1
  O2-  O422  1  0.85532979  0.18487915  0.80427474  1
  O2-  O423  1  0.82270300  0.40537248  0.15256698  1
  O2-  O424  1  0.82481715  0.41845427  0.49101319  1
  O2-  O425  1  0.84716076  0.42321020  0.85211897  1
  O2-  O426  1  0.85652275  0.67612979  0.14997849  1
  O2-  O427  1  0.83676333  0.67746874  0.47188123  1
  O2-  O428  1  0.84384765  0.67207968  0.80556263  1
  O2-  O429  1  0.83677895  0.88826730  0.13269715  1
  O2-  O430  1  0.83656061  0.87885967  0.48423082  1
  O2-  O431  1  0.83897871  0.91317644  0.82303010  1
  O2-  O432  1  0.16423640  0.08403080  0.19437215  1
  O2-  O433  1  0.15101334  0.14555223  0.51647242  1
  O2-  O434  1  0.17785493  0.10355481  0.86471400  1
  O2-  O435  1  0.13743206  0.32363725  0.20237380  1
  O2-  O436  1  0.16226654  0.34237374  0.52570123  1
  O2-  O437  1  0.14331652  0.34218956  0.85794810  1
  O2-  O438  1  0.16972189  0.59655860  0.20073260  1
  O2-  O439  1  0.15885875  0.58766281  0.51162392  1
  O2-  O440  1  0.21216304  0.62300156  0.85503687  1
  O2-  O441  1  0.19498218  0.86001711  0.19247629  1
  O2-  O442  1  0.17502545  0.83645905  0.52686471  1
  O2-  O443  1  0.15501258  0.81091563  0.83955360  1
  O2-  O444  1  0.41551764  0.08645245  0.19563953  1
  O2-  O445  1  0.44264950  0.06263722  0.53364578  1
  O2-  O446  1  0.41845153  0.08931568  0.86343034  1
  O2-  O447  1  0.41014442  0.33765049  0.18870024  1
  O2-  O448  1  0.42249976  0.32487114  0.51564776  1
  O2-  O449  1  0.43692749  0.34325041  0.83405371  1
  O2-  O450  1  0.41211903  0.59969437  0.18637989  1
  O2-  O451  1  0.40070520  0.57283847  0.53978208  1
  O2-  O452  1  0.43291632  0.58695679  0.85643468  1
  O2-  O453  1  0.41616182  0.84119332  0.19235835  1
  O2-  O454  1  0.42210610  0.82601700  0.51758103  1
  O2-  O455  1  0.34514781  0.77582278  0.87193000  1
  O2-  O456  1  0.67055663  0.08457584  0.18490199  1
  O2-  O457  1  0.60202705  0.06528660  0.53802475  1
  O2-  O458  1  0.58684702  0.05021195  0.86982415  1
  O2-  O459  1  0.65774800  0.32340615  0.18850056  1
  O2-  O460  1  0.67220716  0.32645514  0.54569493  1
  O2-  O461  1  0.67518118  0.34283200  0.84691525  1
  O2-  O462  1  0.70793859  0.66509404  0.20468333  1
  O2-  O463  1  0.66935216  0.58046836  0.51246871  1
  O2-  O464  1  0.68251006  0.59011181  0.85385592  1
  O2-  O465  1  0.67434808  0.84841542  0.18426925  1
  O2-  O466  1  0.66372920  0.83260964  0.53350321  1
  O2-  O467  1  0.66456040  0.82274131  0.85333728  1
  O2-  O468  1  0.90819062  0.06592397  0.19910028  1
  O2-  O469  1  0.88923065  0.03515324  0.52797177  1
  O2-  O470  1  0.92535905  0.08646784  0.85429162  1
  O2-  O471  1  0.90206645  0.31624426  0.19963890  1
  O2-  O472  1  0.91759741  0.33756028  0.51713442  1
  O2-  O473  1  0.93285834  0.34346436  0.84120393  1
  O2-  O474  1  0.91145057  0.57182720  0.19461557  1
  O2-  O475  1  0.91607431  0.59509957  0.51545364  1
  O2-  O476  1  0.92894775  0.59496904  0.85062502  1
  O2-  O477  1  0.93811066  0.83653211  0.19443910  1
  O2-  O478  1  0.89940420  0.85343279  0.50252454  1
  O2-  O479  1  0.93792550  0.83570863  0.85330675  1
  O2-  O480  1  0.15727823  0.08227008  0.31773040  1
  O2-  O481  1  0.17929868  0.10250204  0.62308689  1
  O2-  O482  1  0.16730732  0.08679024  0.98369203  1
  O2-  O483  1  0.16592434  0.33205454  0.32579051  1
  O2-  O484  1  0.19708783  0.38806631  0.64522236  1
  O2-  O485  1  0.14169834  0.32553127  0.98591851  1
  O2-  O486  1  0.17276644  0.58762970  0.31784031  1
  O2-  O487  1  0.16534120  0.59075617  0.63478191  1
  O2-  O488  1  0.19381850  0.54486342  0.97082588  1
  O2-  O489  1  0.17924884  0.84270624  0.31127164  1
  O2-  O490  1  0.16950546  0.80976113  0.59071177  1
  O2-  O491  1  0.09839381  0.85866602  1.03557285  1
  O2-  O492  1  0.34697817  0.04906946  0.30630329  1
  O2-  O493  1  0.41114663  0.06214015  0.65105518  1
  O2-  O494  1  0.42393128  0.09361953  0.98890231  1
  O2-  O495  1  0.41990298  0.34620940  0.31032639  1
  O2-  O496  1  0.41273259  0.30832704  0.63631933  1
  O2-  O497  1  0.46464174  0.39118645  0.95193558  1
  O2-  O498  1  0.41842871  0.58457235  0.30969179  1
  O2-  O499  1  0.40225621  0.56674075  0.60659119  1
  O2-  O500  1  0.44706826  0.52762765  0.96468986  1
  O2-  O501  1  0.41967554  0.83584107  0.31667735  1
  O2-  O502  1  0.41375435  0.81876718  0.63937229  1
  O2-  O503  1  0.37904621  0.82493203  0.99090883  1
  O2-  O504  1  0.71099722  0.14983365  0.30576251  1
  O2-  O505  1  0.65810574  0.07386322  0.65194601  1
  O2-  O506  1  0.64044432  0.06667876  0.98902263  1
  O2-  O507  1  0.64087812  0.31639568  0.30980075  1
  O2-  O508  1  0.66978870  0.31804923  0.61282344  1
  O2-  O509  1  0.68037062  0.34183705  0.97286185  1
  O2-  O510  1  0.67513220  0.58660179  0.31685704  1
  O2-  O511  1  0.66985491  0.58939164  0.63673501  1
  O2-  O512  1  0.68936355  0.59691771  0.97956893  1
  O2-  O513  1  0.67856017  0.83569633  0.30863960  1
  O2-  O514  1  0.65790924  0.82131999  0.64871023  1
  O2-  O515  1  0.62348983  0.80615421  0.97606006  1
  O2-  O516  1  0.91045083  0.06406546  0.32524338  1
  O2-  O517  1  0.89534227  0.05004874  0.65462526  1
  O2-  O518  1  0.92581011  0.08077253  0.97814052  1
  O2-  O519  1  0.90698553  0.32353258  0.31970887  1
  O2-  O520  1  0.92243480  0.33204163  0.64131153  1
  O2-  O521  1  0.91351807  0.32292632  0.99731555  1
  O2-  O522  1  0.93462479  0.59811998  0.31231783  1
  O2-  O523  1  0.91470414  0.58632294  0.63595250  1
  O2-  O524  1  0.94649945  0.60187178  0.97679071  1
  O2-  O525  1  0.93276515  0.83985957  0.31698654  1
  O2-  O526  1  0.90311776  0.82276891  0.62107684  1
  O2-  O527  1  0.95825372  0.83626027  0.98313038  1
  O2-  O528  1  0.08306143  0.16622220  0.02723876  1
  O2-  O529  1  0.08609410  0.16437019  0.36228928  1
  O2-  O530  1  0.06145079  0.13355765  0.69079369  1
  O2-  O531  1  0.06732765  0.40365651  0.03916657  1
  O2-  O532  1  0.08399850  0.42296756  0.35729901  1
  O2-  O533  1  0.08395294  0.43184445  0.68562582  1
  O2-  O534  1  0.10121587  0.70577860  0.04211922  1
  O2-  O535  1  0.09969737  0.67687063  0.35504871  1
  O2-  O536  1  0.07664821  0.66133193  0.69117558  1
  O2-  O537  1  0.17277699  0.92256026  -0.00114281  1
  O2-  O538  1  0.08600442  0.94511474  0.36927651  1
  O2-  O539  1  0.06845337  0.86210442  0.65990204  1
  O2-  O540  1  0.30343139  0.10889366  0.05211462  1
  O2-  O541  1  0.36811951  0.19618992  0.36386498  1
  O2-  O542  1  0.33125739  0.15062819  0.68453584  1
  O2-  O543  1  0.30765014  0.41269348  0.02733394  1
  O2-  O544  1  0.33636971  0.42175153  0.36202854  1
  O2-  O545  1  0.38456412  0.43239221  0.68139996  1
  O2-  O546  1  0.24607748  0.68542670  0.04227414  1
  O2-  O547  1  0.34062064  0.66921013  0.35758707  1
  O2-  O548  1  0.33049910  0.64977363  0.65824420  1
  O2-  O549  1  0.32772432  0.93531731  0.02416420  1
  O2-  O550  1  0.33785451  0.91327250  0.36655905  1
  O2-  O551  1  0.31549078  0.88450902  0.66227076  1
  O2-  O552  1  0.57226508  0.15138712  0.03553397  1
  O2-  O553  1  0.59052093  0.17171520  0.37026505  1
  O2-  O554  1  0.57748774  0.16357149  0.68508962  1
  O2-  O555  1  0.60453140  0.43119353  0.02088780  1
  O2-  O556  1  0.58458758  0.41667583  0.34687790  1
  O2-  O557  1  0.55156137  0.44109845  0.68808417  1
  O2-  O558  1  0.58478036  0.65385088  0.02133709  1
  O2-  O559  1  0.58303956  0.66342608  0.35287012  1
  O2-  O560  1  0.56682933  0.65315617  0.67214590  1
  O2-  O561  1  0.54945066  0.89797441  0.02163510  1
  O2-  O562  1  0.57668772  0.95209455  0.36648132  1
  O2-  O563  1  0.57514330  0.90739373  0.68676525  1
  O2-  O564  1  0.81901334  0.14425473  0.01923535  1
  O2-  O565  1  0.78407609  0.08830393  0.37603661  1
  O2-  O566  1  0.83150570  0.16047759  0.68050312  1
  O2-  O567  1  0.84920265  0.42688390  -0.02372963  1
  O2-  O568  1  0.80131106  0.37990619  0.35932376  1
  O2-  O569  1  0.83336820  0.42020233  0.66637668  1
  O2-  O570  1  0.85332423  0.67477173  0.02164355  1
  O2-  O571  1  0.84190281  0.67319119  0.35200366  1
  O2-  O572  1  0.83135427  0.67138160  0.67992345  1
  O2-  O573  1  0.94301298  0.95986701  0.04681780  1
  O2-  O574  1  0.83280446  0.89997790  0.36122254  1
  O2-  O575  1  0.79851996  0.85450275  0.70360604  1
