# generated using pymatgen
data_H2O
_symmetry_space_group_name_H-M   'P 1'
_cell_length_a   17.98729835
_cell_length_b   17.99154750
_cell_length_c   21.99714795
_cell_angle_alpha   89.97943991
_cell_angle_beta   90.01756192
_cell_angle_gamma   119.97961167
_symmetry_Int_Tables_number   1
_chemical_formula_structural   H2O
_chemical_formula_sum   'H384 O192'
_cell_volume   6166.24278413
_cell_formula_units_Z   192
loop_
 _symmetry_equiv_pos_site_id
 _symmetry_equiv_pos_as_xyz
  1  'x, y, z'
loop_
 _atom_type_symbol
 _atom_type_oxidation_number
  H+  1.0
  O2-  -2.0
loop_
 _atom_site_type_symbol
 _atom_site_label
 _atom_site_symmetry_multiplicity
 _atom_site_fract_x
 _atom_site_fract_y
 _atom_site_fract_z
 _atom_site_occupancy
  H+  H0  1  0.89709644  1.05045313  0.50548435  1
  H+  H1  1  0.42032532  0.79917108  0.83679017  1
  H+  H2  1  0.68381902  0.29984500  0.17340873  1
  H+  H3  1  0.89825189  0.37641985  0.66637170  1
  H+  H4  1  0.32025428  0.43355798  0.85939870  1
  H+  H5  1  0.11527030  0.22423937  0.67334736  1
  H+  H6  1  0.10935266  0.72463734  0.50221250  1
  H+  H7  1  0.77891152  0.67465414  0.53065561  1
  H+  H8  1  0.63013782  0.15557353  0.67729017  1
  H+  H9  1  0.39771140  0.71918910  0.29627808  1
  H+  H10  1  0.91593831  0.15890089  0.16445939  1
  H+  H11  1  0.78801805  0.40606792  0.68485304  1
  H+  H12  1  0.15501187  0.18827533  0.04494794  1
  H+  H13  1  0.10874377  0.70703625  0.84221644  1
  H+  H14  1  0.11513779  0.38903611  0.49344628  1
  H+  H15  1  0.22669860  0.36033977  0.66852144  1
  H+  H16  1  0.60541843  0.62621765  0.65323651  1
  H+  H17  1  0.38542845  1.03377832  -0.06910227  1
  H+  H18  1  0.57762545  0.44289098  0.70587050  1
  H+  H19  1  0.97425801  0.85940186  0.98301056  1
  H+  H20  1  0.11637638  0.63931921  0.16243571  1
  H+  H21  1  0.88565843  1.03857018  0.31115175  1
  H+  H22  1  0.30557329  0.54321868  0.51083344  1
  H+  H23  1  0.03981724  0.14299416  0.82975756  1
  H+  H24  1  0.53133989  0.14776514  0.50594231  1
  H+  H25  1  0.47762283  0.36687367  0.99150751  1
  H+  H26  1  0.66654574  0.06287948  0.66374208  1
  H+  H27  1  0.35396368  0.44942152  0.47675503  1
  H+  H28  1  0.86358366  0.72194926  1.01369319  1
  H+  H29  1  0.90253912  0.50516126  0.52539046  1
  H+  H30  1  0.87573371  0.52179824  0.84644495  1
  H+  H31  1  0.35621302  0.72836868  0.66621691  1
  H+  H32  1  0.10541018  0.63340350  0.00686062  1
  H+  H33  1  0.49231365  0.82988617  0.68854650  1
  H+  H34  1  0.99107292  0.37126619  0.95307882  1
  H+  H35  1  0.54506510  0.55120511  0.50234317  1
  H+  H36  1  0.41125261  0.92190952  0.47987788  1
  H+  H37  1  0.22941659  0.37712334  0.99151571  1
  H+  H38  1  0.90004485  0.37576891  0.16634157  1
  H+  H39  1  0.57039331  0.41684394  0.09781040  1
  H+  H40  1  0.57295181  0.33736783  0.84394883  1
  H+  H41  1  0.54184206  0.65730222  0.30770822  1
  H+  H42  1  0.26180767  0.37111419  0.49442998  1
  H+  H43  1  0.89773264  0.62637801  0.18175874  1
  H+  H44  1  0.63079028  0.88627719  0.83254657  1
  H+  H45  1  0.85712030  0.88194984  0.67487692  1
  H+  H46  1  0.65458480  0.02813830  0.99007360  1
  H+  H47  1  0.60364585  0.38955210  1.01223965  1
  H+  H48  1  0.63996765  0.12533676  0.32767260  1
  H+  H49  1  0.34840586  0.24744865  0.00100154  1
  H+  H50  1  0.61290008  0.35497603  0.67465611  1
  H+  H51  1  0.38746089  0.68341342  0.47611888  1
  H+  H52  1  0.10208943  0.51167465  0.32222614  1
  H+  H53  1  0.39422731  0.86647798  0.16804522  1
  H+  H54  1  0.16638663  0.58006228  0.82803022  1
  H+  H55  1  0.87116578  0.24774878  0.15071507  1
  H+  H56  1  0.40224868  0.88604980  0.65535210  1
  H+  H57  1  0.11584070  0.47227605  0.70066331  1
  H+  H58  1  0.11419403  0.38274745  0.15447107  1
  H+  H59  1  0.52063105  0.38151800  0.32591901  1
  H+  H60  1  0.63016964  0.52093046  0.31152070  1
  H+  H61  1  0.38860694  0.01133844  0.82765797  1
  H+  H62  1  0.89794373  0.62510135  0.66762440  1
  H+  H63  1  0.71083565  0.72808966  0.44192500  1
  H+  H64  1  0.33932610  0.92959835  1.00445774  1
  H+  H65  1  0.13892059  0.11379083  0.33039183  1
  H+  H66  1  0.65732769  0.77545320  0.85510837  1
  H+  H67  1  0.91643363  0.05257563  1.00791793  1
  H+  H68  1  0.91977789  0.90120143  0.52951222  1
  H+  H69  1  0.62266611  0.26566934  0.66753222  1
  H+  H70  1  0.88444361  0.49943660  0.16498611  1
  H+  H71  1  0.23183232  0.88354952  0.80365598  1
  H+  H72  1  0.87058264  0.22880788  0.84091817  1
  H+  H73  1  0.07734316  0.66743005  0.43999523  1
  H+  H74  1  0.36542535  0.13443250  0.33875666  1
  H+  H75  1  0.28819338  0.13264735  0.81933695  1
  H+  H76  1  0.35140364  0.25904572  0.17730570  1
  H+  H77  1  0.64349572  0.75883865  0.64408577  1
  H+  H78  1  0.90116271  0.86892378  0.17037909  1
  H+  H79  1  0.85217086  0.70577169  0.30115212  1
  H+  H80  1  0.32619637  0.41206882  0.06552881  1
  H+  H81  1  0.34615830  0.62457293  1.00891417  1
  H+  H82  1  0.70682014  0.35262628  0.85593955  1
  H+  H83  1  0.89369543  0.86722222  0.83429307  1
  H+  H84  1  0.31206534  0.37865166  0.38841099  1
  H+  H85  1  0.47611682  0.09850752  0.84151413  1
  H+  H86  1  1.00166513  0.60202314  0.52188959  1
  H+  H87  1  0.39667643  0.05799252  0.57096099  1
  H+  H88  1  0.65260478  0.02333460  0.83118694  1
  H+  H89  1  0.35239580  0.19113862  0.66937034  1
  H+  H90  1  0.09755944  0.71873301  0.00846895  1
  H+  H91  1  0.10327935  0.63637961  0.34554666  1
  H+  H92  1  0.79394779  0.41492063  0.16535627  1
  H+  H93  1  -0.01933711  0.11515687  0.66512582  1
  H+  H94  1  0.07572143  0.40052889  0.39187979  1
  H+  H95  1  0.35204933  0.35940430  0.32915026  1
  H+  H96  1  0.87276641  0.26366670  0.34049749  1
  H+  H97  1  0.37181111  0.12151321  0.82073935  1
  H+  H98  1  0.77950351  0.63712145  0.68048256  1
  H+  H99  1  0.87949556  0.61362916  0.45880387  1
  H+  H100  1  0.54110712  0.88887475  0.00714623  1
  H+  H101  1  0.59559992  0.11014384  -0.00774679  1
  H+  H102  1  0.21596147  0.86632545  0.34038530  1
  H+  H103  1  0.35239393  0.37153504  0.67992484  1
  H+  H104  1  0.54636084  0.36598179  0.75462016  1
  H+  H105  1  0.46339760  0.39459680  0.53319912  1
  H+  H106  1  0.68122376  0.10209060  0.22734991  1
  H+  H107  1  0.85111470  0.47144033  0.00671995  1
  H+  H108  1  0.84144998  0.66969811  0.10801397  1
  H+  H109  1  0.53498132  0.89942700  0.15990930  1
  H+  H110  1  0.00305661  0.14140393  0.01000299  1
  H+  H111  1  -0.01860733  0.35900143  0.85120778  1
  H+  H112  1  0.34524942  0.05642434  0.65924841  1
  H+  H113  1  0.72657488  0.36354903  0.33026758  1
  H+  H114  1  0.22581305  0.61373066  0.68471971  1
  H+  H115  1  0.34830456  1.00013677  0.34034241  1
  H+  H116  1  0.83844327  0.94051774  -0.04308165  1
  H+  H117  1  0.87365657  0.15576066  0.49963829  1
  H+  H118  1  0.41732989  0.25754570  0.82675078  1
  H+  H119  1  0.58245382  0.19887774  0.13266090  1
  H+  H120  1  0.11880662  0.47377132  0.15787037  1
  H+  H121  1  0.53084380  0.12900094  0.68044362  1
  H+  H122  1  0.21359509  0.85482745  0.54514456  1
  H+  H123  1  0.59502075  0.47521618  0.00197629  1
  H+  H124  1  0.60823901  0.22822172  0.34099115  1
  H+  H125  1  0.44703152  0.58807305  0.48828635  1
  H+  H126  1  0.09806596  0.37086132  0.32800522  1
  H+  H127  1  0.63724373  0.77764764  0.16919225  1
  H+  H128  1  0.61425494  0.90309580  0.34075938  1
  H+  H129  1  0.45300903  0.32900898  0.67013209  1
  H+  H130  1  0.78293671  0.15366369  0.49917994  1
  H+  H131  1  0.02765549  0.38782916  0.68398583  1
  H+  H132  1  0.31641076  0.57175810  0.34400081  1
  H+  H133  1  0.36078477  0.39020289  0.00274631  1
  H+  H134  1  1.01235971  0.88261714  0.67572433  1
  H+  H135  1  0.21049141  0.34953432  0.31375799  1
  H+  H136  1  0.10269433  0.38242204  0.97520992  1
  H+  H137  1  0.64420560  0.79070722  0.31861205  1
  H+  H138  1  0.03464779  0.95198038  0.04817463  1
  H+  H139  1  0.59597606  0.72155670  1.00649061  1
  H+  H140  1  0.36956208  0.22194549  0.49665913  1
  H+  H141  1  0.18252991  0.19024380  0.17191236  1
  H+  H142  1  0.12415109  0.86538317  0.34230958  1
  H+  H143  1  0.03828368  0.15775724  0.50705571  1
  H+  H144  1  0.38710033  0.11228367  0.51406383  1
  H+  H145  1  0.61883946  0.12891647  0.83202042  1
  H+  H146  1  0.90356671  0.12298217  0.84600186  1
  H+  H147  1  0.13167966  0.11526729  0.96271270  1
  H+  H148  1  0.63412800  0.52298657  0.16276479  1
  H+  H149  1  0.89142819  0.12828484  0.32236835  1
  H+  H150  1  0.14156655  0.28243012  0.51746019  1
  H+  H151  1  0.13503412  0.10596335  0.66351261  1
  H+  H152  1  0.99363582  0.88692642  0.33287286  1
  H+  H153  1  0.29244773  0.66805842  0.47870585  1
  H+  H154  1  0.38813369  0.61432944  0.66361390  1
  H+  H155  1  0.42005153  0.47838084  0.86011154  1
  H+  H156  1  0.62526668  -0.01104182  0.15961140  1
  H+  H157  1  0.61532211  0.61574580  0.82397709  1
  H+  H158  1  0.12416890  0.76658409  0.34225835  1
  H+  H159  1  0.43979603  0.57350035  0.35019386  1
  H+  H160  1  0.14457650  0.84083619  0.94277349  1
  H+  H161  1  0.38975637  0.85353028  0.32184082  1
  H+  H162  1  0.14256042  0.77673771  0.17424499  1
  H+  H163  1  0.19464871  0.58491437  0.33332788  1
  H+  H164  1  0.98783152  0.87509845  0.51172494  1
  H+  H165  1  0.14264171  0.29014363  0.99729454  1
  H+  H166  1  0.88129371  0.60681592  0.32745256  1
  H+  H167  1  0.12492171  0.15378147  0.50792220  1
  H+  H168  1  0.51864178  0.63243762  0.64886963  1
  H+  H169  1  0.15327136  0.86982683  0.17808855  1
  H+  H170  1  0.27754574  0.13692959  0.34667869  1
  H+  H171  1  0.61114420  0.13039195  0.15279505  1
  H+  H172  1  0.83254288  0.17393038  0.40530422  1
  H+  H173  1  0.86920580  0.73032655  0.16674344  1
  H+  H174  1  0.96779606  0.60633905  0.99561761  1
  H+  H175  1  0.21948147  0.09549870  0.66495196  1
  H+  H176  1  0.35399238  0.71274784  0.28930094  1
  H+  H177  1  0.49353161  0.88686061  0.50628343  1
  H+  H178  1  0.74011030  0.89046814  0.50109339  1
  H+  H179  1  0.72655310  0.61260046  0.16640204  1
  H+  H180  1  0.73866977  0.13144008  0.16592576  1
  H+  H181  1  0.60854030  -0.04771436  0.63738256  1
  H+  H182  1  0.11367605  0.86282319  1.00323547  1
  H+  H183  1  0.64173939  0.36349291  0.51299904  1
  H+  H184  1  0.85876355  0.78223125  0.45617405  1
  H+  H185  1  0.02545958  0.13012336  0.32681143  1
  H+  H186  1  0.86362209  0.91953747  0.45796542  1
  H+  H187  1  0.66829054  0.84823726  0.25962988  1
  H+  H188  1  0.25894412  0.37607045  0.15231937  1
  H+  H189  1  0.21594119  0.60608695  1.00026818  1
  H+  H190  1  0.47008099  0.10534395  0.32288692  1
  H+  H191  1  -0.01842055  0.86274710  0.83606273  1
  H+  H192  1  0.62743367  0.25713560  0.85599086  1
  H+  H193  1  0.66401010  0.79416313  0.49512726  1
  H+  H194  1  0.22335263  0.13063283  0.98582544  1
  H+  H195  1  0.85923396  0.72689023  0.82565904  1
  H+  H196  1  0.26052035  0.29192700  0.87654987  1
  H+  H197  1  0.86314926  0.63384942  0.01629576  1
  H+  H198  1  0.18310488  1.08847132  0.27698015  1
  H+  H199  1  0.70412425  0.61768354  0.82893687  1
  H+  H200  1  0.10359858  0.44305889  0.84106166  1
  H+  H201  1  0.13689776  0.36012813  0.67234777  1
  H+  H202  1  0.47323609  0.60734907  0.17433789  1
  H+  H203  1  0.24795828  0.85213169  1.01731087  1
  H+  H204  1  0.62311402  0.90321562  0.49596466  1
  H+  H205  1  0.15142527  0.32239352  0.25354927  1
  H+  H206  1  0.88794928  1.02977478  0.66388046  1
  H+  H207  1  0.11179555  0.99640739  0.00208399  1
  H+  H208  1  0.39916941  0.80493624  0.49582802  1
  H+  H209  1  0.15081364  0.62333512  0.49891725  1
  H+  H210  1  0.37985462  0.97081030  0.71294206  1
  H+  H211  1  0.76069550  0.62722899  0.31746668  1
  H+  H212  1  0.52059546  0.34689865  0.47197708  1
  H+  H213  1  0.37349328  0.51716523  0.99732372  1
  H+  H214  1  0.88735546  0.27662062  0.95529441  1
  H+  H215  1  0.82456975  0.91361018  0.73297166  1
  H+  H216  1  0.04283910  0.90473168  0.16546474  1
  H+  H217  1  0.54364964  0.64918252  0.74714296  1
  H+  H218  1  0.15036308  0.10990918  0.82801937  1
  H+  H219  1  0.67837070  0.52813577  0.62463435  1
  H+  H220  1  0.45691088  0.56950903  0.46056332  1
  H+  H221  1  0.86860672  0.38874737  0.50304051  1
  H+  H222  1  0.88066058  0.16388991  -0.00643145  1
  H+  H223  1  0.63854306  0.36504901  0.32124766  1
  H+  H224  1  0.53143104  0.91527548  0.34077838  1
  H+  H225  1  0.34053566  0.16283164  0.43707692  1
  H+  H226  1  0.57568982  0.96059151  0.65268031  1
  H+  H227  1  0.39143561  0.26661969  0.32932291  1
  H+  H228  1  0.75600953  0.14956289  0.66836781  1
  H+  H229  1  0.60936087  0.60207639  -0.01675267  1
  H+  H230  1  0.27532849  0.87322829  0.16220240  1
  H+  H231  1  0.09551886  0.46918888  -0.01550151  1
  H+  H232  1  0.75545758  0.63588637  0.50999069  1
  H+  H233  1  0.86635812  0.47866445  0.34518050  1
  H+  H234  1  0.88412644  0.24561934  0.68009767  1
  H+  H235  1  0.47404107  0.76839654  0.95501203  1
  H+  H236  1  0.36739325  0.48405993  0.32550818  1
  H+  H237  1  0.24788653  0.46743031  0.55316030  1
  H+  H238  1  0.88131892  0.36427016  0.34068770  1
  H+  H239  1  0.85059054  0.63359461  0.82893546  1
  H+  H240  1  0.86896679  0.91188963  0.32643631  1
  H+  H241  1  1.01575371  0.63924290  0.34659687  1
  H+  H242  1  0.46488754  0.08817542  0.17433996  1
  H+  H243  1  0.39006793  0.60796737  0.82133951  1
  H+  H244  1  0.87759500  0.15251797  0.67984038  1
  H+  H245  1  0.11376444  0.88979632  0.50748728  1
  H+  H246  1  0.36179883  0.46447734  0.67922381  1
  H+  H247  1  0.37068611  0.34521256  0.50893812  1
  H+  H248  1  0.12006682  0.47842465  0.47939138  1
  H+  H249  1  0.72540214  0.85562092  1.00054301  1
  H+  H250  1  0.22990525  0.11240690  0.51214316  1
  H+  H251  1  0.85428535  0.38410946  0.84731632  1
  H+  H252  1  0.11680008  0.96906460  0.82690721  1
  H+  H253  1  0.92149938  0.09703953  0.57115542  1
  H+  H254  1  0.38269500  0.89130458  0.81351354  1
  H+  H255  1  0.86958211  0.88225913  0.98796938  1
  H+  H256  1  0.04905382  0.20076568  0.17397819  1
  H+  H257  1  0.77022211  0.14494660  0.34467264  1
  H+  H258  1  0.18200943  0.08214661  0.88655383  1
  H+  H259  1  0.89841181  0.82390543  0.35346847  1
  H+  H260  1  0.11183608  0.21719319  0.32573711  1
  H+  H261  1  0.16068940  0.58412083  0.23378458  1
  H+  H262  1  0.98395120  0.37377139  0.50739209  1
  H+  H263  1  0.16635883  1.04667108  0.17580176  1
  H+  H264  1  0.73926693  0.11493802  0.83649073  1
  H+  H265  1  0.78074826  0.88158460  0.15443486  1
  H+  H266  1  0.78406415  0.89650467  0.83210059  1
  H+  H267  1  0.57814938  0.82919701  0.68094876  1
  H+  H268  1  0.37834645  -0.00051839  0.17565295  1
  H+  H269  1  0.78132010  0.39411308  0.50900809  1
  H+  H270  1  0.50531645  0.88770744  0.84074992  1
  H+  H271  1  0.60594875  0.38940693  0.15494319  1
  H+  H272  1  0.32599938  0.17104177  0.04801023  1
  H+  H273  1  0.64348813  0.86958522  1.00245646  1
  H+  H274  1  0.64858390  0.04099404  0.51357791  1
  H+  H275  1  0.89575583  0.64387328  0.48537528  1
  H+  H276  1  0.58159692  0.44335428  0.48354705  1
  H+  H277  1  0.87291628  0.98540091  0.82668758  1
  H+  H278  1  0.40899596  1.01711769  0.48789892  1
  H+  H279  1  0.36367079  0.63598698  0.16655415  1
  H+  H280  1  0.10770585  0.21906436  0.08834259  1
  H+  H281  1  0.35440682  0.71542887  1.00995560  1
  H+  H282  1  0.87864479  0.49045587  0.69042273  1
  H+  H283  1  0.64474978  0.87064190  0.16723538  1
  H+  H284  1  0.12961643  0.98966007  0.34679563  1
  H+  H285  1  0.22947545  0.61832618  0.17923642  1
  H+  H286  1  0.61034209  0.63769906  0.15513274  1
  H+  H287  1  0.62067168  0.14917621  0.50104045  1
  H+  H288  1  0.82174296  0.71927667  0.39744911  1
  H+  H289  1  0.09569976  0.92943000  0.40860917  1
  H+  H290  1  0.57953707  0.17172078  0.40139891  1
  H+  H291  1  0.71729016  0.61344209  0.58694874  1
  H+  H292  1  0.27304637  0.98044527  0.38769076  1
  H+  H293  1  0.93865088  0.09674169  0.90403775  1
  H+  H294  1  0.43047705  0.33310747  0.92710585  1
  H+  H295  1  0.67664997  0.08048177  0.92710456  1
  H+  H296  1  0.13407693  0.80120585  0.58698109  1
  H+  H297  1  0.10624089  0.96737863  0.67370180  1
  H+  H298  1  0.33218329  0.13819568  0.73057216  1
  H+  H299  1  0.10219261  0.83514237  0.69968845  1
  H+  H300  1  0.45108717  0.33101217  0.17001295  1
  H+  H301  1  0.94101032  0.57583998  0.58905133  1
  H+  H302  1  0.41012432  0.06855646  0.26034160  1
  H+  H303  1  0.08115071  0.66527379  0.10374772  1
  H+  H304  1  0.33217947  0.66605554  0.10876230  1
  H+  H305  1  0.59626037  0.92792850  0.06890121  1
  H+  H306  1  0.50390423  0.63412848  0.00370540  1
  H+  H307  1  0.14647858  0.72271895  0.66136177  1
  H+  H308  1  0.13768795  0.58459836  0.65087108  1
  H+  H309  1  0.65384188  0.33464879  0.60679504  1
  H+  H310  1  0.44547115  0.05958144  0.98754094  1
  H+  H311  1  0.44302227  0.82912767  0.92979351  1
  H+  H312  1  0.32658360  0.89319537  0.09839710  1
  H+  H313  1  0.08867468  0.16534621  0.73255811  1
  H+  H314  1  0.67733053  0.34175176  0.23445664  1
  H+  H315  1  0.98418629  0.36738627  0.16270902  1
  H+  H316  1  0.24057651  0.56318617  0.84998221  1
  H+  H317  1  0.91546119  0.82511176  0.92361780  1
  H+  H318  1  0.96233157  0.61336591  0.83881302  1
  H+  H319  1  0.57115439  0.66422119  0.09964867  1
  H+  H320  1  0.16942494  0.08143596  0.57182819  1
  H+  H321  1  0.07828277  0.90929851  0.77008102  1
  H+  H322  1  0.58305184  0.88721236  0.77144865  1
  H+  H323  1  0.58838918  0.16633666  0.77790284  1
  H+  H324  1  0.91108105  0.82824025  0.60469208  1
  H+  H325  1  0.64361156  1.03904980  0.32805608  1
  H+  H326  1  0.20109557  0.32408926  0.90535743  1
  H+  H327  1  0.68351785  0.10685320  0.57077874  1
  H+  H328  1  0.10731737  0.93523851  0.10933558  1
  H+  H329  1  0.61967461  0.69884717  0.41580927  1
  H+  H330  1  0.83593315  0.66817533  0.74148063  1
  H+  H331  1  0.59380235  0.93569447  0.43739709  1
  H+  H332  1  0.41640944  0.84427744  0.59719364  1
  H+  H333  1  0.97253105  0.35627331  0.33364821  1
  H+  H334  1  0.90820810  0.58391356  0.93628909  1
  H+  H335  1  0.55367908  0.12110870  0.05144868  1
  H+  H336  1  0.39155672  0.55975661  0.93380967  1
  H+  H337  1  0.83385619  0.42247193  0.06843718  1
  H+  H338  1  0.19765931  0.58835253  0.54306157  1
  H+  H339  1  0.31131447  0.63719587  0.38909166  1
  H+  H340  1  0.99489216  0.64595640  0.66529680  1
  H+  H341  1  0.53925401  0.71547562  0.78836313  1
  H+  H342  1  0.98918066  0.62830056  0.18040765  1
  H+  H343  1  0.77410329  0.90235660  0.32242916  1
  H+  H344  1  0.82830577  0.41076010  0.78600938  1
  H+  H345  1  0.83556880  0.42315610  0.40676048  1
  H+  H346  1  0.34836586  0.68098345  0.72833904  1
  H+  H347  1  0.94027753  0.12689579  0.22535276  1
  H+  H348  1  0.16843130  0.34144371  0.57703297  1
  H+  H349  1  0.85233761  0.18067821  0.77635271  1
  H+  H350  1  0.08136130  0.71669860  0.77727448  1
  H+  H351  1  0.64915128  0.32632043  0.95711947  1
  H+  H352  1  0.93398647  0.84878113  0.23219682  1
  H+  H353  1  0.92349384  0.58525243  0.27189098  1
  H+  H354  1  0.12047556  0.98290434  0.50369712  1
  H+  H355  1  0.67537680  0.83515721  0.91279164  1
  H+  H356  1  0.83999610  0.91053632  0.09640380  1
  H+  H357  1  0.82870304  0.95960443  0.41471527  1
  H+  H358  1  0.58631937  0.53423361  0.56065292  1
  H+  H359  1  0.88128973  0.76959698  0.66541860  1
  H+  H360  1  0.13646023  0.22427988  0.82831051  1
  H+  H361  1  0.39997137  0.30909242  0.60817259  1
  H+  H362  1  0.61960615  0.64089706  0.31766128  1
  H+  H363  1  0.41193693  0.56908102  0.23265032  1
  H+  H364  1  0.30525295  0.69499786  0.81742687  1
  H+  H365  1  0.89491424  0.28503652  0.51054240  1
  H+  H366  1  0.68419320  0.83528015  0.58745190  1
  H+  H367  1  0.78606814  0.15286057  -0.01209337  1
  H+  H368  1  0.43969055  0.87599499  0.25996012  1
  H+  H369  1  0.41259400  0.31157582  0.26404577  1
  H+  H370  1  0.34857512  0.46510884  0.15447329  1
  H+  H371  1  0.40277056  0.78296751  0.17726652  1
  H+  H372  1  0.73907183  0.85826977  0.65880258  1
  H+  H373  1  0.64197515  0.27620269  0.51963876  1
  H+  H374  1  0.16690123  0.57954345  0.93710817  1
  H+  H375  1  0.36328598  0.95460890  0.42379540  1
  H+  H376  1  0.92785836  0.34830484  0.60521384  1
  H+  H377  1  0.66084814  0.57958802  0.25024771  1
  H+  H378  1  0.58435628  0.41390869  0.38274793  1
  H+  H379  1  0.37896347  0.56163428  0.60623921  1
  H+  H380  1  0.83956241  0.18855594  0.09073125  1
  H+  H381  1  0.71598736  0.36936520  0.01067364  1
  H+  H382  1  0.63205705  0.57094127  0.92165368  1
  H+  H383  1  0.06215494  0.39037192  0.77970537  1
  O2-  O384  1  0.11478809  0.23111793  0.16097810  1
  O2-  O385  1  0.10042513  0.19067137  0.49759393  1
  O2-  O386  1  0.09761079  0.16665730  0.81056310  1
  O2-  O387  1  0.08717276  0.41614120  0.13949762  1
  O2-  O388  1  0.08461547  0.41586642  0.47276106  1
  O2-  O389  1  0.05866381  0.38621931  0.82549238  1
  O2-  O390  1  0.08542591  0.67003688  0.14894174  1
  O2-  O391  1  0.08302867  0.66506116  0.48561606  1
  O2-  O392  1  0.06808906  0.67434969  0.81012150  1
  O2-  O393  1  0.10519703  0.93834412  0.15382276  1
  O2-  O394  1  0.08823702  0.92147231  0.48794043  1
  O2-  O395  1  0.08042186  0.90778534  0.81518805  1
  O2-  O396  1  0.22658192  0.17273380  0.16247830  1
  O2-  O397  1  0.33964126  0.16176963  0.48313569  1
  O2-  O398  1  0.34821211  0.15803789  0.80336991  1
  O2-  O399  1  0.31931734  0.40757232  0.13575119  1
  O2-  O400  1  0.31736303  0.38734501  0.47226135  1
  O2-  O401  1  0.37292929  0.49031925  0.86251292  1
  O2-  O402  1  0.33668263  0.67045221  0.15383393  1
  O2-  O403  1  0.35178197  0.70705902  0.46269293  1
  O2-  O404  1  0.35947769  0.69730755  0.80596007  1
  O2-  O405  1  0.33502016  0.90108856  0.14416374  1
  O2-  O406  1  0.40876246  0.97146877  0.45689852  1
  O2-  O407  1  0.34946714  0.91381591  0.79034020  1
  O2-  O408  1  0.56410982  0.13811078  0.13452227  1
  O2-  O409  1  0.58994218  0.18052284  0.48862026  1
  O2-  O410  1  0.58477443  0.15790673  0.82226165  1
  O2-  O411  1  0.57256382  0.41720938  0.14384443  1
  O2-  O412  1  0.58061966  0.39184994  0.46605831  1
  O2-  O413  1  0.53726036  0.35639257  0.81878108  1
  O2-  O414  1  0.57759982  0.66749894  0.14503076  1
  O2-  O415  1  0.65136541  0.71123215  0.45459139  1
  O2-  O416  1  0.53346371  0.65862314  0.78970082  1
  O2-  O417  1  0.59589585  0.92853733  0.14447426  1
  O2-  O418  1  0.59461750  0.93585275  0.48337421  1
  O2-  O419  1  0.60286463  0.91537197  0.81211337  1
  O2-  O420  1  0.83849513  0.18466131  0.13533892  1
  O2-  O421  1  0.84268201  0.18477445  0.48257345  1
  O2-  O422  1  0.84752446  0.17114142  0.82121339  1
  O2-  O423  1  0.85253635  0.43952630  0.14875038  1
  O2-  O424  1  0.84078879  0.42446594  0.49242843  1
  O2-  O425  1  0.82241692  0.41141928  0.83056409  1
  O2-  O426  1  0.83774459  0.66896615  0.15459014  1
  O2-  O427  1  0.82351469  0.76892647  0.41897966  1
  O2-  O428  1  0.82531555  0.66686372  0.80976015  1
  O2-  O429  1  0.84104313  0.90597084  0.14046852  1
  O2-  O430  1  0.83511914  0.95367775  0.45966165  1
  O2-  O431  1  0.84002336  0.92571678  0.81017971  1
  O2-  O432  1  0.20348094  0.09831760  0.20116941  1
  O2-  O433  1  0.16925851  0.08289651  0.52600412  1
  O2-  O434  1  0.18268633  0.08083159  0.84136273  1
  O2-  O435  1  0.15778133  0.32194823  0.18141641  1
  O2-  O436  1  0.17186558  0.34678190  0.53107887  1
  O2-  O437  1  0.22488908  0.31668102  0.86558458  1
  O2-  O438  1  0.16678201  0.58707050  0.18890084  1
  O2-  O439  1  0.18810444  0.59669272  0.50048058  1
  O2-  O440  1  0.17988833  0.54805414  0.85759548  1
  O2-  O441  1  0.17924085  0.83542974  0.19098667  1
  O2-  O442  1  0.15101530  0.82160327  0.54419508  1
  O2-  O443  1  0.26056093  0.84969779  0.80818931  1
  O2-  O444  1  0.40784979  0.05837844  0.19412713  1
  O2-  O445  1  0.41887114  0.08269821  0.52907814  1
  O2-  O446  1  0.41278406  0.06805515  0.84805979  1
  O2-  O447  1  0.40855123  0.28492226  0.19614678  1
  O2-  O448  1  0.41526526  0.33501751  0.52857103  1
  O2-  O449  1  0.45048311  0.31782054  0.84431903  1
  O2-  O450  1  0.41201777  0.57594787  0.18821144  1
  O2-  O451  1  0.28898697  0.52947957  0.55332259  1
  O2-  O452  1  0.35313924  0.62586144  0.84311402  1
  O2-  O453  1  0.43306951  0.84556872  0.18623190  1
  O2-  O454  1  0.43043387  0.86287733  0.51557510  1
  O2-  O455  1  0.44334583  0.85808910  0.85334282  1
  O2-  O456  1  0.67808843  0.09866126  0.18233668  1
  O2-  O457  1  0.67832999  0.10286033  0.52565621  1
  O2-  O458  1  0.67716684  0.08223308  0.84819999  1
  O2-  O459  1  0.68134647  0.34915636  0.18905979  1
  O2-  O460  1  0.66999760  0.33696899  0.53679570  1
  O2-  O461  1  0.64639227  0.31710613  0.86933607  1
  O2-  O462  1  0.66452317  0.58380996  0.17850549  1
  O2-  O463  1  0.54925807  0.50657453  0.52499376  1
  O2-  O464  1  0.64262037  0.58422999  0.83951292  1
  O2-  O465  1  0.67245424  0.83829653  0.18345568  1
  O2-  O466  1  0.68328362  0.84899745  0.51951673  1
  O2-  O467  1  0.68225123  0.83562762  0.86674627  1
  O2-  O468  1  0.95746982  0.14362218  0.18223461  1
  O2-  O469  1  0.92627041  0.10685706  0.52617441  1
  O2-  O470  1  0.93372269  0.09132333  0.85916075  1
  O2-  O471  1  0.92299862  0.33762087  0.17727576  1
  O2-  O472  1  0.92512648  0.34613703  0.52573406  1
  O2-  O473  1  0.91398181  0.33029673  0.86968283  1
  O2-  O474  1  0.92962539  0.59827255  0.19855214  1
  O2-  O475  1  0.95354150  0.55572096  0.54848260  1
  O2-  O476  1  0.90323521  0.58429267  0.85613074  1
  O2-  O477  1  0.93630121  0.84428289  0.18766156  1
  O2-  O478  1  0.92562497  0.85047574  0.52463172  1
  O2-  O479  1  0.91864280  0.83224466  0.84914824  1
  O2-  O480  1  0.17519299  0.08428965  0.32206486  1
  O2-  O481  1  0.15999354  0.07082385  0.64792266  1
  O2-  O482  1  0.16621451  0.08727668  0.96443447  1
  O2-  O483  1  0.15015986  0.32487905  0.30024224  1
  O2-  O484  1  0.16578172  0.33163645  0.65203632  1
  O2-  O485  1  0.17053338  0.34359992  0.97221497  1
  O2-  O486  1  0.13848403  0.57428277  0.31551030  1
  O2-  O487  1  0.16166772  0.58113476  0.68961458  1
  O2-  O488  1  0.15705006  0.57801125  0.98137599  1
  O2-  O489  1  0.15335515  0.83015353  0.32836190  1
  O2-  O490  1  0.12045854  0.79199229  0.71148687  1
  O2-  O491  1  0.13523423  0.82687055  0.98593166  1
  O2-  O492  1  0.40986667  0.07684432  0.30802022  1
  O2-  O493  1  0.35182759  0.01021552  0.63715399  1
  O2-  O494  1  0.38350892  0.02635885  0.97524278  1
  O2-  O495  1  0.41711119  0.32441805  0.30980923  1
  O2-  O496  1  0.39434446  0.29953270  0.65278671  1
  O2-  O497  1  0.41847555  0.33737660  0.97032599  1
  O2-  O498  1  0.39790423  0.54869503  0.31738157  1
  O2-  O499  1  0.41213825  0.58034476  0.64457776  1
  O2-  O500  1  0.39801558  0.57556905  0.97735314  1
  O2-  O501  1  0.44321066  0.89620960  0.30317417  1
  O2-  O502  1  0.40896516  0.83731257  0.64190099  1
  O2-  O503  1  0.45193954  0.80535423  0.96847883  1
  O2-  O504  1  0.67471106  0.09957758  0.31298966  1
  O2-  O505  1  0.69520154  0.12321312  0.65114010  1
  O2-  O506  1  0.68248026  0.08691722  0.97216761  1
  O2-  O507  1  0.66868631  0.33221408  0.31142754  1
  O2-  O508  1  0.64890397  0.32968251  0.65403233  1
  O2-  O509  1  0.65298602  0.34057952  1.00056289  1
  O2-  O510  1  0.66153981  0.58173333  0.29682401  1
  O2-  O511  1  0.67362767  0.57944316  0.61817938  1
  O2-  O512  1  0.63292613  0.56723563  0.96656358  1
  O2-  O513  1  0.66931451  0.85126568  0.30548483  1
  O2-  O514  1  0.67941260  0.82373855  0.63446294  1
  O2-  O515  1  0.66563268  0.83144893  0.98582271  1
  O2-  O516  1  0.92010224  0.10101320  0.30128934  1
  O2-  O517  1  0.91949475  0.09017191  0.65040861  1
  O2-  O518  1  0.94666758  0.10964382  0.98896772  1
  O2-  O519  1  0.90663394  0.32830774  0.32538829  1
  O2-  O520  1  0.92806863  0.34642279  0.65065795  1
  O2-  O521  1  0.91949348  0.33796444  0.93602591  1
  O2-  O522  1  0.91779548  0.58085776  0.31808044  1
  O2-  O523  1  0.93515928  0.59994190  0.65644326  1
  O2-  O524  1  0.90722372  0.57976715  0.98141042  1
  O2-  O525  1  0.93292783  0.85822527  0.31838837  1
  O2-  O526  1  0.90658369  0.82984528  0.64972011  1
  O2-  O527  1  0.91399958  0.82685894  0.96960828  1
  O2-  O528  1  0.10874406  0.20190846  0.04410119  1
  O2-  O529  1  0.08598093  0.15712467  0.34062840  1
  O2-  O530  1  0.08437257  0.16281557  0.68712980  1
  O2-  O531  1  0.06194873  0.40502848  -0.02000993  1
  O2-  O532  1  0.06596584  0.39818439  0.34721889  1
  O2-  O533  1  0.08317274  0.40846885  0.70596132  1
  O2-  O534  1  0.07233709  0.65938508  0.02416780  1
  O2-  O535  1  0.07687800  0.67037595  0.36282187  1
  O2-  O536  1  0.10308082  0.74010835  0.65503562  1
  O2-  O537  1  0.07453546  0.94100981  0.02496774  1
  O2-  O538  1  0.09759335  0.92746934  0.36316686  1
  O2-  O539  1  0.07243772  0.90765636  0.69042693  1
  O2-  O540  1  0.29988044  0.19490941  0.02141404  1
  O2-  O541  1  0.33892183  0.16398385  0.36113980  1
  O2-  O542  1  0.32361870  0.13087607  0.68494463  1
  O2-  O543  1  0.32831995  0.41714749  0.01877764  1
  O2-  O544  1  0.31668674  0.38559469  0.34374671  1
  O2-  O545  1  0.32522910  0.40490105  0.69310199  1
  O2-  O546  1  0.31911431  0.65687549  0.02651775  1
  O2-  O547  1  0.27596328  0.58319230  0.36725422  1
  O2-  O548  1  0.33472010  0.67033172  0.68420042  1
  O2-  O549  1  0.30848989  0.87244416  0.02611389  1
  O2-  O550  1  0.30206560  0.95182312  0.36998679  1
  O2-  O551  1  0.41338563  0.99800403  0.67523108  1
  O2-  O552  1  0.54892797  0.11923688  0.00684649  1
  O2-  O553  1  0.57767851  0.16784777  0.35650735  1
  O2-  O554  1  0.58906915  0.17550605  0.69088712  1
  O2-  O555  1  0.56698373  0.41703623  0.02254299  1
  O2-  O556  1  0.58344354  0.41644389  0.33792834  1
  O2-  O557  1  0.55753625  0.38140275  0.70690255  1
  O2-  O558  1  0.56298689  0.66151385  0.02124692  1
  O2-  O559  1  0.59326701  0.67608576  0.33246357  1
  O2-  O560  1  0.58111276  0.66326935  0.66206906  1
  O2-  O561  1  0.60032669  0.92581875  0.02317291  1
  O2-  O562  1  0.58931538  0.93554104  0.36037526  1
  O2-  O563  1  0.53439100  0.81987064  0.71103906  1
  O2-  O564  1  0.84848268  0.19507537  -0.00320212  1
  O2-  O565  1  0.83181967  0.17564502  0.35970522  1
  O2-  O566  1  0.85081571  0.18550871  0.69636170  1
  O2-  O567  1  0.82090289  0.41291646  0.02442476  1
  O2-  O568  1  0.83541106  0.41829554  0.36187712  1
  O2-  O569  1  0.84619442  0.42840442  0.70074597  1
  O2-  O570  1  0.84085045  0.66827525  0.03680800  1
  O2-  O571  1  0.82294997  0.66081446  0.33172395  1
  O2-  O572  1  0.83932249  0.66809549  0.69404873  1
  O2-  O573  1  0.84288805  0.91957442  -0.00309494  1
  O2-  O574  1  0.83427826  0.93838591  0.33842556  1
  O2-  O575  1  0.82200382  0.90916600  0.68717785  1
