# generated using pymatgen
data_H2O
_symmetry_space_group_name_H-M   'P 1'
_cell_length_a   17.97743081
_cell_length_b   17.97620705
_cell_length_c   22.00071317
_cell_angle_alpha   89.99395036
_cell_angle_beta   89.99315530
_cell_angle_gamma   119.96525889
_symmetry_Int_Tables_number   1
_chemical_formula_structural   H2O
_chemical_formula_sum   'H384 O192'
_cell_volume   6159.49342736
_cell_formula_units_Z   192
loop_
 _symmetry_equiv_pos_site_id
 _symmetry_equiv_pos_as_xyz
  1  'x, y, z'
loop_
 _atom_type_symbol
 _atom_type_oxidation_number
  H+  1.0
  O2-  -2.0
loop_
 _atom_site_type_symbol
 _atom_site_label
 _atom_site_symmetry_multiplicity
 _atom_site_fract_x
 _atom_site_fract_y
 _atom_site_fract_z
 _atom_site_occupancy
  H+  H0  1  0.88383244  0.02447030  0.51078832  1
  H+  H1  1  0.13151545  0.36648112  0.17300449  1
  H+  H2  1  0.51977746  0.85254741  0.01523436  1
  H+  H3  1  0.63963174  0.11899133  0.65211468  1
  H+  H4  1  0.10615117  0.71810387  0.82488573  1
  H+  H5  1  0.08711031  0.41734798  0.43366593  1
  H+  H6  1  0.36495227  0.63269986  0.16812017  1
  H+  H7  1  0.58825123  0.40135103  0.39393527  1
  H+  H8  1  0.38504167  0.77102760  0.49819150  1
  H+  H9  1  0.82742381  0.13900704  0.50134886  1
  H+  H10  1  0.53346781  0.15175486  0.34232875  1
  H+  H11  1  0.67381651  0.06873891  0.25032913  1
  H+  H12  1  0.14042983  0.61174227  0.66320523  1
  H+  H13  1  0.69573701  0.13419767  0.01477579  1
  H+  H14  1  0.86561977  0.37896911  0.82811804  1
  H+  H15  1  0.61457666  0.88903998  0.65963155  1
  H+  H16  1  -0.02679214  0.35808811  0.84364358  1
  H+  H17  1  0.75271540  0.64412682  0.49719964  1
  H+  H18  1  0.93009856  0.33660000  0.23589278  1
  H+  H19  1  0.73825246  0.36505987  0.66023503  1
  H+  H20  1  0.48355322  0.85958407  0.18293924  1
  H+  H21  1  0.53196069  0.65112658  0.49026122  1
  H+  H22  1  0.76832510  0.88919573  0.01406190  1
  H+  H23  1  0.98070378  0.37196348  1.00041724  1
  H+  H24  1  0.87883799  0.98858285  0.81877592  1
  H+  H25  1  0.22127973  0.86507357  0.32912601  1
  H+  H26  1  0.78859109  0.39841539  0.33981338  1
  H+  H27  1  0.82421547  0.90442043  0.40645011  1
  H+  H28  1  0.86164213  0.88941481  0.50214134  1
  H+  H29  1  0.36257706  0.72609803  0.34569228  1
  H+  H30  1  0.22383172  0.86371490  0.49652575  1
  H+  H31  1  0.11534188  0.38659566  0.67674159  1
  H+  H32  1  0.45814446  0.09617255  0.95703385  1
  H+  H33  1  0.37900438  0.25993134  0.17604066  1
  H+  H34  1  0.88742052  0.60772810  0.66327074  1
  H+  H35  1  0.13521662  0.10525291  0.99221684  1
  H+  H36  1  0.22662889  0.36111241  0.65103566  1
  H+  H37  1  0.36646800  -0.01106715  0.33909706  1
  H+  H38  1  0.14251461  0.11325579  0.49692926  1
  H+  H39  1  0.55502676  0.51519664  0.60463361  1
  H+  H40  1  0.49674298  0.12691998  0.19113293  1
  H+  H41  1  0.87097313  0.47739294  0.67612547  1
  H+  H42  1  0.36713375  0.72839779  0.66752977  1
  H+  H43  1  0.35680547  0.12959319  -0.00526321  1
  H+  H44  1  1.01778625  0.87488639  0.16621110  1
  H+  H45  1  0.78390141  0.91726251  0.82019304  1
  H+  H46  1  0.37116000  0.22445704  0.65896536  1
  H+  H47  1  0.40740499  1.03526468  0.18837387  1
  H+  H48  1  0.02835930  0.38905616  0.49427917  1
  H+  H49  1  0.23183741  0.60526131  0.19699108  1
  H+  H50  1  0.36400213  0.48385194  0.84569976  1
  H+  H51  1  0.62614448  0.01914634  0.81547132  1
  H+  H52  1  0.63101809  0.76910931  0.65809015  1
  H+  H53  1  0.97273651  0.34776503  0.33122227  1
  H+  H54  1  0.39300455  0.11361535  0.64688648  1
  H+  H55  1  0.11373049  -0.02286437  0.49044426  1
  H+  H56  1  0.41277463  0.15308441  0.33057016  1
  H+  H57  1  0.36837198  0.39800048  0.84814383  1
  H+  H58  1  0.87204231  0.38756529  0.67447925  1
  H+  H59  1  0.24737686  0.88634245  0.87701323  1
  H+  H60  1  0.50382934  0.36802800  0.84537749  1
  H+  H61  1  0.64295952  0.02160869  0.18259242  1
  H+  H62  1  0.22563389  0.36202951  0.99952359  1
  H+  H63  1  0.87266683  0.86907768  -0.00367595  1
  H+  H64  1  0.51720240  0.38414698  0.17429622  1
  H+  H65  1  0.13616721  0.01594980  0.99434752  1
  H+  H66  1  0.00196678  0.87399986  0.83304004  1
  H+  H67  1  0.10830271  0.13940228  0.82493110  1
  H+  H68  1  0.11274281  0.71985986  0.66824535  1
  H+  H69  1  0.77582912  0.38632744  0.49280031  1
  H+  H70  1  0.08262426  0.65928354  0.76503071  1
  H+  H71  1  0.42941073  0.42633367  0.47421458  1
  H+  H72  1  0.85304226  0.21833150  0.82479491  1
  H+  H73  1  -0.02471751  0.60900921  0.83816000  1
  H+  H74  1  0.63595427  0.78726635  0.50014896  1
  H+  H75  1  0.11451090  0.22919694  0.66947210  1
  H+  H76  1  0.23637069  0.10542391  0.16921464  1
  H+  H77  1  0.36245183  0.63673470  0.34379934  1
  H+  H78  1  0.64661356  0.27744354  0.65782706  1
  H+  H79  1  0.89346279  0.37456162  0.50748085  1
  H+  H80  1  0.88343727  0.28184974  0.50741847  1
  H+  H81  1  0.47555736  0.60365502  0.85120825  1
  H+  H82  1  0.49833920  0.36025860  0.65946112  1
  H+  H83  1  -0.02379551  0.85364957  0.64967832  1
  H+  H84  1  0.91477227  0.33313907  0.90363344  1
  H+  H85  1  0.11355558  0.38769504  1.01455582  1
  H+  H86  1  0.13864359  0.52224103  0.50773195  1
  H+  H87  1  0.37717538  0.13677090  0.16019864  1
  H+  H88  1  0.88988300  0.61300656  -0.00267393  1
  H+  H89  1  0.72914617  0.60422611  0.83858577  1
  H+  H90  1  0.12848765  0.13828520  0.33739995  1
  H+  H91  1  0.41086268  0.68144006  0.82962529  1
  H+  H92  1  0.63153264  0.38927059  0.67175490  1
  H+  H93  1  0.38858312  0.86701861  0.33136320  1
  H+  H94  1  0.27091258  0.13185817  0.00303913  1
  H+  H95  1  0.02166037  0.62653967  -0.00492464  1
  H+  H96  1  0.86078699  0.72788035  0.34305712  1
  H+  H97  1  0.33476718  0.91391198  0.70294277  1
  H+  H98  1  0.11659096  0.23283348  0.82489045  1
  H+  H99  1  0.86121571  0.48227950  0.49594734  1
  H+  H100  1  0.12864675  0.50960384  -0.00928630  1
  H+  H101  1  0.38601112  0.61516996  0.66069067  1
  H+  H102  1  0.63389236  0.47680176  0.82954316  1
  H+  H103  1  0.12918197  0.27510998  0.17130973  1
  H+  H104  1  0.86604818  0.72899150  1.00890404  1
  H+  H105  1  0.86514233  0.09508899  0.34258428  1
  H+  H106  1  0.97627812  0.61502477  0.50678992  1
  H+  H107  1  0.12836076  0.60118222  0.98541632  1
  H+  H108  1  0.27752954  0.38642908  0.33918751  1
  H+  H109  1  0.64003267  0.61049173  0.32997112  1
  H+  H110  1  0.37896898  0.39108877  0.64771886  1
  H+  H111  1  0.88914393  0.27457588  0.65739933  1
  H+  H112  1  0.77333131  0.89312662  0.50192480  1
  H+  H113  1  0.39593062  0.73433558  0.00039365  1
  H+  H114  1  0.58685162  0.17292975  0.72550658  1
  H+  H115  1  0.90963495  0.57596369  0.93714692  1
  H+  H116  1  0.87139889  -0.02359064  0.16661180  1
  H+  H117  1  0.66684704  0.28279338  0.32243046  1
  H+  H118  1  0.63330033  0.86241087  0.32959037  1
  H+  H119  1  0.73666135  0.60589085  -0.00931268  1
  H+  H120  1  0.86935514  0.85958212  0.83317608  1
  H+  H121  1  0.77366337  0.87472637  0.66796580  1
  H+  H122  1  0.38956395  0.27060934  0.99929047  1
  H+  H123  1  0.09924279  0.69804645  0.15637478  1
  H+  H124  1  0.21396727  0.34695256  0.51297357  1
  H+  H125  1  0.89144002  0.12552633  0.65212120  1
  H+  H126  1  0.88784522  0.35411203  0.17762325  1
  H+  H127  1  0.67355913  0.56860240  0.90197895  1
  H+  H128  1  0.33262153  -0.11829281  0.89250276  1
  H+  H129  1  0.64863895  0.77811472  0.18203822  1
  H+  H130  1  0.98366098  0.61727211  0.33129270  1
  H+  H131  1  0.51083498  0.83377723  0.79642508  1
  H+  H132  1  0.71497351  0.15453569  0.98431814  1
  H+  H133  1  0.37971054  0.70488144  0.76788036  1
  H+  H134  1  0.27948008  0.64077690  0.67839722  1
  H+  H135  1  0.10978050  0.61939242  0.33883924  1
  H+  H136  1  0.71718579  0.10261847  0.82804396  1
  H+  H137  1  0.88313533  0.77023266  0.17329358  1
  H+  H138  1  0.38907812  0.29843639  0.24169660  1
  H+  H139  1  0.49707246  0.30022914  0.46338641  1
  H+  H140  1  0.59524184  0.58317654  0.82288058  1
  H+  H141  1  0.91454368  0.59281411  0.22991521  1
  H+  H142  1  0.60913929  0.74908109  0.82108433  1
  H+  H143  1  0.60740893  0.17862296  0.24891594  1
  H+  H144  1  0.35237535  0.37218883  0.17161209  1
  H+  H145  1  0.61825178  0.62351046  0.18665809  1
  H+  H146  1  0.53274523  0.15653952  0.81939301  1
  H+  H147  1  0.47030894  0.59654071  0.18303652  1
  H+  H148  1  0.33975448  0.41349450  0.39763420  1
  H+  H149  1  0.02356237  0.63092345  0.67237708  1
  H+  H150  1  0.88942094  0.02837551  0.99419710  1
  H+  H151  1  0.11258424  0.38434346  0.83110205  1
  H+  H152  1  0.10360034  0.22045170  0.49491715  1
  H+  H153  1  0.07655659  0.91532205  0.43272505  1
  H+  H154  1  0.12232509  0.60195120  0.84184937  1
  H+  H155  1  0.61892156  0.88776208  0.16543514  1
  H+  H156  1  0.97581717  0.12271441  0.21940968  1
  H+  H157  1  0.36642767  0.97809325  0.48890338  1
  H+  H158  1  0.28364126  0.87897582  0.03975993  1
  H+  H159  1  0.64571925  0.51982229  -0.00421300  1
  H+  H160  1  0.39692949  0.02651569  0.64227936  1
  H+  H161  1  0.66496504  0.10772193  0.58652209  1
  H+  H162  1  0.47037095  0.60557116  0.01417921  1
  H+  H163  1  0.51704380  0.63318464  0.67141663  1
  H+  H164  1  0.35988903  0.88582318  0.48796743  1
  H+  H165  1  0.52136292  0.63585316  0.33898781  1
  H+  H166  1  0.85858928  0.13316485  0.82404909  1
  H+  H167  1  0.59288721  0.98591309  0.47967585  1
  H+  H168  1  0.09853721  0.00931871  0.31739387  1
  H+  H169  1  0.36419035  0.19334894  0.42569146  1
  H+  H170  1  -0.01220740  0.12905195  0.65368332  1
  H+  H171  1  0.13830827  0.11363703  0.65060173  1
  H+  H172  1  0.60569655  0.59625111  0.64623663  1
  H+  H173  1  0.08897207  0.90430439  0.07577919  1
  H+  H174  1  0.86231676  0.63594665  0.82629120  1
  H+  H175  1  0.45075979  0.32969243  0.59611120  1
  H+  H176  1  0.88891674  0.61889818  0.50895139  1
  H+  H177  1  0.37907291  0.50930459  0.17857288  1
  H+  H178  1  0.88728737  0.36418962  1.00141674  1
  H+  H179  1  0.77753638  0.12435002  0.17870595  1
  H+  H180  1  0.39514084  0.79922639  0.85097750  1
  H+  H181  1  0.58754509  0.94851343  0.00218601  1
  H+  H182  1  0.27404859  0.63402438  0.49548945  1
  H+  H183  1  0.63696716  0.09240082  0.32600483  1
  H+  H184  1  0.36055985  0.37885518  0.01649671  1
  H+  H185  1  0.85242042  0.72027902  0.82380484  1
  H+  H186  1  0.52603381  0.88575878  0.34238897  1
  H+  H187  1  0.61638499  0.16792067  -0.06250712  1
  H+  H188  1  0.87670178  0.85805070  0.33037436  1
  H+  H189  1  0.38216395  0.90052874  0.18890857  1
  H+  H190  1  0.37048500  0.47702899  0.64371054  1
  H+  H191  1  0.87653851  0.50308208  0.34383568  1
  H+  H192  1  0.39237196  0.62257015  0.50389363  1
  H+  H193  1  0.20684033  0.10338483  0.83328148  1
  H+  H194  1  0.59820322  0.22942082  -0.02533928  1
  H+  H195  1  0.29756089  0.14613637  0.48041393  1
  H+  H196  1  0.96070516  0.61691403  0.16488708  1
  H+  H197  1  0.22792123  0.11492745  0.64692640  1
  H+  H198  1  0.14251549  0.52409829  0.66533161  1
  H+  H199  1  0.03426618  0.85660941  0.01850903  1
  H+  H200  1  0.66912922  0.25566513  0.51537142  1
  H+  H201  1  0.13627482  0.06961441  0.25890360  1
  H+  H202  1  0.13117665  0.36074345  0.50555739  1
  H+  H203  1  0.15546996  0.74409698  0.24605487  1
  H+  H204  1  0.40920733  0.11854583  0.49026285  1
  H+  H205  1  0.92087057  0.33821082  0.60001947  1
  H+  H206  1  0.64741280  0.90646722  0.83152094  1
  H+  H207  1  0.38860641  0.51873219  0.33117765  1
  H+  H208  1  0.65155751  0.27846149  0.83254360  1
  H+  H209  1  0.10847821  0.85131858  0.84265807  1
  H+  H210  1  0.41872560  0.83110655  0.27586730  1
  H+  H211  1  0.97485002  0.86465301  0.50517175  1
  H+  H212  1  0.72629849  0.36379744  1.00008146  1
  H+  H213  1  0.63498689  0.13528735  0.19882947  1
  H+  H214  1  0.63639130  0.39632404  0.33498472  1
  H+  H215  1  0.77273427  0.13630921  0.66191250  1
  H+  H216  1  0.15410631  0.85898382  0.00497003  1
  H+  H217  1  -0.02733561  0.11452095  0.50262915  1
  H+  H218  1  0.26614998  0.37885366  0.16757230  1
  H+  H219  1  0.35428786  0.97571331  0.03993965  1
  H+  H220  1  0.36966260  0.88522837  0.64717608  1
  H+  H221  1  0.88496738  0.25826804  0.32512487  1
  H+  H222  1  0.52689014  0.38850410  0.02011887  1
  H+  H223  1  1.02986047  0.13438157  1.00205993  1
  H+  H224  1  0.11610784  0.71324549  -0.00133153  1
  H+  H225  1  0.77369097  0.63617493  0.34492094  1
  H+  H226  1  0.65068297  0.76007898  0.80564147  1
  H+  H227  1  0.61399752  0.14027439  0.81835943  1
  H+  H228  1  0.35318016  0.15494586  0.81074970  1
  H+  H229  1  0.77043455  0.63785140  0.15908571  1
  H+  H230  1  0.61085937  0.72796691  0.33708499  1
  H+  H231  1  0.54026674  0.10014745  0.48924732  1
  H+  H232  1  0.86556546  0.73947416  0.49460273  1
  H+  H233  1  0.11522025  0.39116045  0.34534670  1
  H+  H234  1  0.81424412  0.39543483  0.07383937  1
  H+  H235  1  0.90273817  0.12291521  -0.00191505  1
  H+  H236  1  0.88953042  0.86283962  0.17315981  1
  H+  H237  1  0.88408444  0.84937160  0.65438180  1
  H+  H238  1  0.85554281  0.46967116  0.02001622  1
  H+  H239  1  0.85053911  0.96665349  0.34911731  1
  H+  H240  1  0.12020808  0.50724732  0.84055747  1
  H+  H241  1  0.96250691  0.88935231  0.97149894  1
  H+  H242  1  0.63601256  0.87643966  0.50474705  1
  H+  H243  1  0.64752509  0.64027701  0.49539861  1
  H+  H244  1  0.10527759  0.88405566  0.34081501  1
  H+  H245  1  0.88820888  0.24193577  0.01905509  1
  H+  H246  1  0.35898980  0.31603745  0.33702258  1
  H+  H247  1  0.39212597  0.77174136  0.18226176  1
  H+  H248  1  0.75780046  0.37233587  0.82740830  1
  H+  H249  1  0.02914810  0.11495083  0.14814623  1
  H+  H250  1  0.47841219  0.86380384  0.64563824  1
  H+  H251  1  0.91701531  0.57737527  0.60385716  1
  H+  H252  1  0.12185151  0.48342860  0.16821222  1
  H+  H253  1  0.60074097  0.72005663  1.04214106  1
  H+  H254  1  0.75784840  0.11693852  0.34026909  1
  H+  H255  1  0.02954047  0.39781725  0.16405737  1
  H+  H256  1  0.75313572  0.16583866  0.49479381  1
  H+  H257  1  0.11097503  0.88018311  0.65422333  1
  H+  H258  1  0.10922689  0.47955921  0.34546308  1
  H+  H259  1  0.59211482  0.33617741  0.48462996  1
  H+  H260  1  0.20604305  0.59909507  0.33974180  1
  H+  H261  1  0.39210012  0.06022600  0.81267994  1
  H+  H262  1  0.98154438  0.12617341  0.83675678  1
  H+  H263  1  0.09209097  0.96226534  0.83271559  1
  H+  H264  1  0.62892871  0.85645182  1.01104310  1
  H+  H265  1  0.86653271  0.71586457  0.66702790  1
  H+  H266  1  0.13609008  0.77372547  0.33717887  1
  H+  H267  1  0.61545476  0.38898112  1.01849022  1
  H+  H268  1  0.22963062  0.36853738  0.84590265  1
  H+  H269  1  0.45981127  0.89340725  0.87361150  1
  H+  H270  1  0.12278676  0.12694691  0.15360743  1
  H+  H271  1  0.88878099  0.11073452  0.18642493  1
  H+  H272  1  0.11097664  0.96880254  0.65257048  1
  H+  H273  1  0.55465681  0.04142483  0.96196290  1
  H+  H274  1  0.15643346  0.28037475  0.32967968  1
  H+  H275  1  0.22503228  0.85326851  0.64207280  1
  H+  H276  1  0.72143867  0.85852995  0.33293584  1
  H+  H277  1  0.11073017  0.72249039  0.49110087  1
  H+  H278  1  0.68324445  0.27508249  0.17823557  1
  H+  H279  1  0.33534343  0.92652601  0.39613322  1
  H+  H280  1  0.58007115  0.66483238  0.23204161  1
  H+  H281  1  0.88639613  0.52170234  0.83883492  1
  H+  H282  1  0.78023652  0.89055217  0.16505219  1
  H+  H283  1  0.63010588  0.51231863  0.17950558  1
  H+  H284  1  0.83376935  0.92299763  0.07025777  1
  H+  H285  1  0.60661377  0.03202281  0.90767023  1
  H+  H286  1  0.89374197  0.06201896  0.28533383  1
  H+  H287  1  1.01316614  0.87880449  0.34148942  1
  H+  H288  1  0.16918302  0.58122619  0.56761613  1
  H+  H289  1  0.16390139  0.56989177  0.25643218  1
  H+  H290  1  0.08049088  0.41124185  0.77047160  1
  H+  H291  1  0.52849308  0.14220949  0.66465279  1
  H+  H292  1  0.13306111  0.86186906  0.49771508  1
  H+  H293  1  0.09290816  0.16827935  0.43445657  1
  H+  H294  1  0.62021561  0.97800313  0.33724041  1
  H+  H295  1  0.21130274  0.20898054  0.37064071  1
  H+  H296  1  0.42884873  0.10668839  0.27380569  1
  H+  H297  1  0.67475745  0.84081151  0.23822048  1
  H+  H298  1  0.67757680  0.32648217  0.56280408  1
  H+  H299  1  0.42311167  0.59263883  0.91285236  1
  H+  H300  1  0.16608771  0.33503438  0.90281141  1
  H+  H301  1  0.34915063  0.92633940  0.13160450  1
  H+  H302  1  0.33531466  0.39166444  0.55997668  1
  H+  H303  1  0.92191815  0.09130560  0.89626376  1
  H+  H304  1  0.06497264  0.65426608  0.09100171  1
  H+  H305  1  0.66083903  0.82898254  0.59821160  1
  H+  H306  1  0.34193340  0.15903751  0.09885143  1
  H+  H307  1  0.11875100  0.80116142  0.89901445  1
  H+  H308  1  0.86041723  0.63970021  0.16247207  1
  H+  H309  1  0.36586034  0.01057085  0.93735778  1
  H+  H310  1  0.22544350  0.85695075  0.96070777  1
  H+  H311  1  0.16853584  0.67156990  0.21364385  1
  H+  H312  1  0.61818582  0.47185491  0.66901014  1
  H+  H313  1  0.41697467  0.82875248  0.58673412  1
  H+  H314  1  0.92437345  0.09631184  0.58442484  1
  H+  H315  1  0.13788607  0.27328983  0.99504546  1
  H+  H316  1  0.67920001  0.35494374  0.93726207  1
  H+  H317  1  0.58565378  0.21669068  0.08737425  1
  H+  H318  1  0.57758270  0.41350049  0.11554743  1
  H+  H319  1  0.32688368  0.65780381  0.11187181  1
  H+  H320  1  0.40943375  0.10264424  0.87764631  1
  H+  H321  1  0.81524152  0.16161213  0.40059335  1
  H+  H322  1  0.61476008  0.97929039  0.65495056  1
  H+  H323  1  0.42176119  0.59679488  0.59843426  1
  H+  H324  1  0.11041133  0.63319093  0.49634712  1
  H+  H325  1  0.65469404  0.37273783  0.83097605  1
  H+  H326  1  0.47314184  0.86346814  0.49581556  1
  H+  H327  1  0.88627657  0.82338687  0.89498651  1
  H+  H328  1  0.84885901  0.17087929  0.12559438  1
  H+  H329  1  0.80420813  0.15395948  0.02872085  1
  H+  H330  1  0.42917061  0.34119744  0.94667317  1
  H+  H331  1  0.10302724  0.86858053  0.16980970  1
  H+  H332  1  0.14609498  1.01647837  0.16970364  1
  H+  H333  1  0.83935089  0.41071405  0.76326172  1
  H+  H334  1  0.08092946  0.16735969  0.72751456  1
  H+  H335  1  0.60251138  0.41798273  0.76721309  1
  H+  H336  1  0.15995552  0.81949999  0.58704239  1
  H+  H337  1  0.57573213  0.64179685  0.72811651  1
  H+  H338  1  0.60153514  0.16118161  0.39301606  1
  H+  H339  1  0.41026211  0.57555676  0.27158707  1
  H+  H340  1  0.32044642  0.90209430  0.78287794  1
  H+  H341  1  0.56862204  0.90377172  0.74714507  1
  H+  H342  1  0.34504726  0.87836985  0.77838046  1
  H+  H343  1  0.64593393  0.52316261  0.33283386  1
  H+  H344  1  0.58276909  0.92125862  0.42670376  1
  H+  H345  1  0.71160812  0.34190256  0.26305850  1
  H+  H346  1  0.15071455  0.56596669  0.91125106  1
  H+  H347  1  0.82699522  0.15974457  0.72461464  1
  H+  H348  1  0.08109562  0.65786524  0.39689827  1
  H+  H349  1  0.43537374  0.27697160  0.86794869  1
  H+  H350  1  0.32813123  0.40653498  0.07548184  1
  H+  H351  1  0.33241891  0.66306878  0.43448410  1
  H+  H352  1  0.32698640  0.16281560  0.71526305  1
  H+  H353  1  0.50538775  0.52608961  0.79102582  1
  H+  H354  1  0.15551231  0.32910940  0.60041171  1
  H+  H355  1  0.64023990  0.79662752  0.96150112  1
  H+  H356  1  0.67322427  0.57508930  0.23757063  1
  H+  H357  1  0.61443009  0.19765771  0.08488744  1
  H+  H358  1  0.43310913  0.08998463  0.55244871  1
  H+  H359  1  0.15702093  0.07685744  0.89693191  1
  H+  H360  1  0.35046344  0.60998492  0.01717258  1
  H+  H361  1  0.58675583  0.67606558  0.42780952  1
  H+  H362  1  0.83491606  0.65953160  0.72737954  1
  H+  H363  1  0.17527709  0.08626953  0.55435108  1
  H+  H364  1  0.33092593  0.23001021  0.80334985  1
  H+  H365  1  0.16856408  0.33531764  0.26920250  1
  H+  H366  1  0.56267627  0.65991773  0.09904167  1
  H+  H367  1  0.26512017  0.61677023  1.00977389  1
  H+  H368  1  0.38672099  0.51291511  0.00406423  1
  H+  H369  1  0.90839338  0.82988993  0.26995029  1
  H+  H370  1  0.66546394  0.59386666  0.55416500  1
  H+  H371  1  0.83822156  0.67090374  0.06914672  1
  H+  H372  1  0.08866194  0.42562772  0.07344184  1
  H+  H373  1  0.42340975  0.80378825  0.94664163  1
  H+  H374  1  0.68912092  0.90645158  0.89504532  1
  H+  H375  1  0.40595426  0.54017774  0.50497727  1
  H+  H376  1  0.89375868  0.62104645  0.33454394  1
  H+  H377  1  0.58381344  0.91501327  0.10782501  1
  H+  H378  1  0.83278029  0.67509863  0.43366589  1
  H+  H379  1  0.91505343  0.82851952  0.56598034  1
  H+  H380  1  0.02659749  0.38689587  0.67532229  1
  H+  H381  1  0.83733344  0.91044783  0.72371106  1
  H+  H382  1  0.84059551  0.43334691  0.40779898  1
  H+  H383  1  0.09163567  0.16173301  0.06053836  1
  O2-  O384  1  0.08958952  0.15464980  0.13773765  1
  O2-  O385  1  0.07555744  0.16079471  0.47817039  1
  O2-  O386  1  0.08337497  0.17360047  0.80746217  1
  O2-  O387  1  0.09122253  0.42575520  0.14736333  1
  O2-  O388  1  0.08919519  0.41755562  0.48060371  1
  O2-  O389  1  0.07855648  0.41162458  0.81629852  1
  O2-  O390  1  0.04975839  0.67654259  0.12662337  1
  O2-  O391  1  0.07723762  0.66005355  0.48049076  1
  O2-  O392  1  0.08035773  0.65704338  0.81090102  1
  O2-  O393  1  0.07957292  0.90175453  0.15116074  1
  O2-  O394  1  0.07857436  0.91511525  0.47844123  1
  O2-  O395  1  0.06445763  0.89986730  0.82480199  1
  O2-  O396  1  0.33973754  0.15937128  0.14384435  1
  O2-  O397  1  0.35889768  0.17421307  0.46936249  1
  O2-  O398  1  0.31021322  0.16955226  0.79414212  1
  O2-  O399  1  0.32748589  0.40646061  0.15389711  1
  O2-  O400  1  0.38102899  0.43706737  0.47806012  1
  O2-  O401  1  0.33786875  0.42425839  0.82924793  1
  O2-  O402  1  0.33620085  0.66566042  0.15649438  1
  O2-  O403  1  0.33495672  0.66443020  0.48074665  1
  O2-  O404  1  0.40949675  0.72889654  0.80719590  1
  O2-  O405  1  0.35742063  0.93652600  0.17598015  1
  O2-  O406  1  0.33005535  0.91731203  0.47460006  1
  O2-  O407  1  0.29951074  0.91095496  0.90368710  1
  O2-  O408  1  0.60978068  0.17535690  0.20469429  1
  O2-  O409  1  0.59298235  0.10189357  0.47251634  1
  O2-  O410  1  0.59378657  0.18159315  0.80693862  1
  O2-  O411  1  0.57745901  0.41705008  0.16059533  1
  O2-  O412  1  0.55128348  0.35377354  0.46946723  1
  O2-  O413  1  0.60414441  0.41440813  0.81270690  1
  O2-  O414  1  0.58620113  0.65871735  0.18846836  1
  O2-  O415  1  0.59199430  0.68112606  0.47358112  1
  O2-  O416  1  0.54709202  0.58554600  0.80082868  1
  O2-  O417  1  0.58604776  0.91641326  0.15316628  1
  O2-  O418  1  0.57871975  0.92599800  0.47312280  1
  O2-  O419  1  0.55964028  0.89333818  0.79203793  1
  O2-  O420  1  0.84036189  0.15138967  0.16793805  1
  O2-  O421  1  0.81393565  0.18042217  0.48291026  1
  O2-  O422  1  0.82446649  0.15942403  0.80773154  1
  O2-  O423  1  0.79496550  0.35083475  0.14273519  1
  O2-  O424  1  0.83653237  0.42361494  0.47747152  1
  O2-  O425  1  0.83371129  0.40779027  0.81019316  1
  O2-  O426  1  0.83104175  0.67205666  0.14492611  1
  O2-  O427  1  0.83014846  0.67617559  0.48031445  1
  O2-  O428  1  0.82675170  0.65936469  0.80957008  1
  O2-  O429  1  0.83972351  0.91881635  0.14736897  1
  O2-  O430  1  0.83415534  0.92279607  0.48752588  1
  O2-  O431  1  0.84102101  0.92806057  0.80541055  1
  O2-  O432  1  0.17420659  0.07791220  0.18103505  1
  O2-  O433  1  0.17609040  0.08534637  0.50891947  1
  O2-  O434  1  0.14909965  0.07605807  0.85195261  1
  O2-  O435  1  0.16003150  0.33343294  0.18852402  1
  O2-  O436  1  0.15290226  0.32363753  0.52456732  1
  O2-  O437  1  0.16713279  0.33635062  0.85726969  1
  O2-  O438  1  0.17063382  0.57592614  0.20878251  1
  O2-  O439  1  0.16852641  0.58330994  0.52234536  1
  O2-  O440  1  0.14823291  0.56759686  0.85928286  1
  O2-  O441  1  0.17118914  0.72802722  0.20775284  1
  O2-  O442  1  0.16281751  0.82986076  0.51071696  1
  O2-  O443  1  0.13909013  0.81792654  0.85732437  1
  O2-  O444  1  0.43355464  0.09973818  0.19651968  1
  O2-  O445  1  0.43448058  0.08412648  0.50754984  1
  O2-  O446  1  0.41952598  0.11647138  0.83245472  1
  O2-  O447  1  0.40035207  0.31544359  0.19835339  1
  O2-  O448  1  0.32127233  0.36590188  0.51760385  1
  O2-  O449  1  0.44456539  0.33485991  0.86335945  1
  O2-  O450  1  0.40871021  0.57035883  0.19360056  1
  O2-  O451  1  0.43016769  0.59982150  0.52020125  1
  O2-  O452  1  0.42048495  0.59527935  0.86741252  1
  O2-  O453  1  0.42439219  0.83043669  0.20041019  1
  O2-  O454  1  0.41320636  0.83222184  0.51249254  1
  O2-  O455  1  0.40165414  0.84526458  0.87998094  1
  O2-  O456  1  0.67771530  0.07896673  0.20175161  1
  O2-  O457  1  0.66189469  0.15836520  0.51630899  1
  O2-  O458  1  0.65372735  0.07505623  0.83638688  1
  O2-  O459  1  0.72355993  0.33930359  0.17749642  1
  O2-  O460  1  0.67757296  0.31585659  0.51844335  1
  O2-  O461  1  0.68663730  0.34091983  0.84612544  1
  O2-  O462  1  0.66655063  0.57578115  0.19249332  1
  O2-  O463  1  0.68080559  0.61116774  0.51045233  1
  O2-  O464  1  0.66927968  0.56614094  0.85502457  1
  O2-  O465  1  0.67773627  0.83998727  0.19226454  1
  O2-  O466  1  0.66451783  0.84465934  0.52023992  1
  O2-  O467  1  0.70293776  0.92682908  0.85347910  1
  O2-  O468  1  0.92369217  0.07991152  0.19913356  1
  O2-  O469  1  0.91472801  0.08714470  0.52323377  1
  O2-  O470  1  0.92049286  0.09309906  0.85103199  1
  O2-  O471  1  0.93871802  0.35136706  0.19143672  1
  O2-  O472  1  0.92037101  0.34166272  0.52354837  1
  O2-  O473  1  0.91224800  0.33086544  0.85804305  1
  O2-  O474  1  0.90334474  0.58982310  0.18602104  1
  O2-  O475  1  0.91537271  0.58511615  0.52273233  1
  O2-  O476  1  0.91527513  0.58100037  0.85456660  1
  O2-  O477  1  0.91784198  0.83116392  0.18935562  1
  O2-  O478  1  0.91345044  0.83243406  0.51933824  1
  O2-  O479  1  0.89164460  0.82233433  0.85030130  1
  O2-  O480  1  0.10081970  0.05898329  0.29568696  1
  O2-  O481  1  0.16745758  0.08457521  0.63236498  1
  O2-  O482  1  0.16538516  0.07428137  0.97663740  1
  O2-  O483  1  0.17573428  0.33956360  0.31419694  1
  O2-  O484  1  0.16341614  0.33205324  0.64597767  1
  O2-  O485  1  0.16579244  0.33496480  0.98281816  1
  O2-  O486  1  0.14785019  0.56818689  0.32261224  1
  O2-  O487  1  0.17405312  0.58406561  0.64941602  1
  O2-  O488  1  0.15796132  0.56822225  0.96961448  1
  O2-  O489  1  0.15938646  0.83152018  0.31842327  1
  O2-  O490  1  0.16292293  0.81870782  0.63266501  1
  O2-  O491  1  0.18184362  0.82515730  0.99304084  1
  O2-  O492  1  0.43031968  0.10958044  0.31936471  1
  O2-  O493  1  0.42947195  0.08939348  0.63298029  1
  O2-  O494  1  0.39609914  0.07303423  0.94818645  1
  O2-  O495  1  0.34411100  0.25849079  0.32109302  1
  O2-  O496  1  0.44006472  0.33283112  0.63928281  1
  O2-  O497  1  0.42092996  0.33387406  0.99111423  1
  O2-  O498  1  0.41649834  0.57966541  0.31690087  1
  O2-  O499  1  0.41736759  0.58654126  0.64340146  1
  O2-  O500  1  0.41503158  0.57432190  0.99085360  1
  O2-  O501  1  0.41679312  0.83275872  0.32156500  1
  O2-  O502  1  0.41679732  0.83035710  0.63276364  1
  O2-  O503  1  0.44579573  0.78212467  0.97897095  1
  O2-  O504  1  0.66698796  0.06177623  0.31416108  1
  O2-  O505  1  0.66864149  0.09203908  0.62985901  1
  O2-  O506  1  0.56567916  -0.00000410  0.94105610  1
  O2-  O507  1  0.70199939  0.34304694  0.30734938  1
  O2-  O508  1  0.67851575  0.33883044  0.64383825  1
  O2-  O509  1  0.66756249  0.33995649  0.98042371  1
  O2-  O510  1  0.67472628  0.58444876  0.31663294  1
  O2-  O511  1  0.61273911  0.55297536  0.62036432  1
  O2-  O512  1  0.67919759  0.57318449  0.97158155  1
  O2-  O513  1  0.66276543  0.83035609  0.31362411  1
  O2-  O514  1  0.66079483  0.82947389  0.64365792  1
  O2-  O515  1  0.66090750  0.82373327  1.00094180  1
  O2-  O516  1  0.89412406  0.06163968  0.32992808  1
  O2-  O517  1  0.92767303  0.10195454  0.63449472  1
  O2-  O518  1  0.92499580  0.08784162  0.97806670  1
  O2-  O519  1  0.91673764  0.31821108  0.30997152  1
  O2-  O520  1  0.92157194  0.33643135  0.64592279  1
  O2-  O521  1  0.92070811  0.33819765  0.98409653  1
  O2-  O522  1  0.91996237  0.58723369  0.31900934  1
  O2-  O523  1  0.91809958  0.57534340  0.64906612  1
  O2-  O524  1  0.91443084  0.57711445  0.98217564  1
  O2-  O525  1  0.90729036  0.82754695  0.31526385  1
  O2-  O526  1  0.91381265  0.81919561  0.63667303  1
  O2-  O527  1  0.90448019  0.84130487  0.97710332  1
  O2-  O528  1  0.09164520  0.16349810  0.01491508  1
  O2-  O529  1  0.15061625  0.19124943  0.36513837  1
  O2-  O530  1  0.08053717  0.16707176  0.68198208  1
  O2-  O531  1  0.08511916  0.42093250  0.02704245  1
  O2-  O532  1  0.08222173  0.41634445  0.36304246  1
  O2-  O533  1  0.08547075  0.41655467  0.69347797  1
  O2-  O534  1  0.08404291  0.65008629  0.00499095  1
  O2-  O535  1  0.08164990  0.65810220  0.35187060  1
  O2-  O536  1  0.08430818  0.66152594  0.68772738  1
  O2-  O537  1  0.09093261  0.90356235  0.02980892  1
  O2-  O538  1  0.07378102  0.91344554  0.35586989  1
  O2-  O539  1  0.07815702  0.90852792  0.66632478  1
  O2-  O540  1  0.33256885  0.16133680  0.01579539  1
  O2-  O541  1  0.39971592  0.23642450  0.35643850  1
  O2-  O542  1  0.33569655  0.16292792  0.67069263  1
  O2-  O543  1  0.32842654  0.40797008  0.02986591  1
  O2-  O544  1  0.33895809  0.41040956  0.35290608  1
  O2-  O545  1  0.34153446  0.41389066  0.63474481  1
  O2-  O546  1  0.32024618  0.64116483  0.03168912  1
  O2-  O547  1  0.33280175  0.66576387  0.36141772  1
  O2-  O548  1  0.34177896  0.67246132  0.68978466  1
  O2-  O549  1  0.34370579  0.91904306  0.05163553  1
  O2-  O550  1  0.33638829  0.92744678  0.35068774  1
  O2-  O551  1  0.33880352  0.91782814  0.65856504  1
  O2-  O552  1  0.56940364  0.16910763  -0.04134076  1
  O2-  O553  1  0.59688870  0.17664247  0.35059126  1
  O2-  O554  1  0.58912205  0.17313341  0.68048435  1
  O2-  O555  1  0.58720203  0.42021759  0.03488378  1
  O2-  O556  1  0.60841802  0.42618322  0.35286882  1
  O2-  O557  1  0.59773736  0.41567649  0.68942763  1
  O2-  O558  1  0.56247194  0.65998842  0.05469544  1
  O2-  O559  1  0.58336268  0.66664571  0.35186920  1
  O2-  O560  1  0.57865825  0.65687186  0.68431897  1
  O2-  O561  1  0.57824414  0.90148008  0.03032247  1
  O2-  O562  1  0.58703607  0.91351073  0.35613097  1
  O2-  O563  1  0.58263764  0.91971902  0.67113966  1
  O2-  O564  1  0.86597446  0.18264872  0.03644149  1
  O2-  O565  1  0.81996718  0.15250343  0.35682963  1
  O2-  O566  1  0.83218230  0.16372551  0.67943286  1
  O2-  O567  1  0.82359757  0.40703483  0.02841610  1
  O2-  O568  1  0.84568128  0.43880817  0.36117521  1
  O2-  O569  1  0.84112622  0.41620142  0.69252290  1
  O2-  O570  1  0.84239840  0.66957231  0.02332745  1
  O2-  O571  1  0.83418791  0.66867910  0.36159154  1
  O2-  O572  1  0.83853152  0.65563640  0.68266638  1
  O2-  O573  1  0.83073289  0.92259905  0.02458180  1
  O2-  O574  1  0.82189248  0.90278828  0.36128249  1
  O2-  O575  1  0.83478163  0.90050406  0.67931649  1
