# generated using pymatgen
data_H2O
_symmetry_space_group_name_H-M   'P 1'
_cell_length_a   18.00338150
_cell_length_b   18.00143139
_cell_length_c   22.01359455
_cell_angle_alpha   90.01090085
_cell_angle_beta   90.01171115
_cell_angle_gamma   120.01028883
_symmetry_Int_Tables_number   1
_chemical_formula_structural   H2O
_chemical_formula_sum   'H384 O192'
_cell_volume   6177.85412751
_cell_formula_units_Z   192
loop_
 _symmetry_equiv_pos_site_id
 _symmetry_equiv_pos_as_xyz
  1  'x, y, z'
loop_
 _atom_type_symbol
 _atom_type_oxidation_number
  H+  1.0
  O2-  -2.0
loop_
 _atom_site_type_symbol
 _atom_site_label
 _atom_site_symmetry_multiplicity
 _atom_site_fract_x
 _atom_site_fract_y
 _atom_site_fract_z
 _atom_site_occupancy
  H+  H0  1  0.11137684  0.60665704  0.15191012  1
  H+  H1  1  0.19945147  0.35019529  0.14388042  1
  H+  H2  1  0.36664355  0.47785234  0.31847746  1
  H+  H3  1  0.86804589  0.74526221  0.49826829  1
  H+  H4  1  0.12263520  0.42165536  0.68049597  1
  H+  H5  1  0.60963424  0.46637757  0.00830995  1
  H+  H6  1  0.63643087  0.97927168  0.49161169  1
  H+  H7  1  0.39404615  0.83036524  1.00739896  1
  H+  H8  1  0.86446617  0.63185212  0.67602413  1
  H+  H9  1  0.52383531  0.12960189  0.00778681  1
  H+  H10  1  0.61690250  0.34293590  0.32412096  1
  H+  H11  1  0.10097380  0.22595015  0.49009315  1
  H+  H12  1  0.61007920  0.63854674  0.82660606  1
  H+  H13  1  0.72445021  0.61118087  0.66765903  1
  H+  H14  1  0.44107135  0.37573566  0.47995723  1
  H+  H15  1  0.62855832  0.03465817  0.65596980  1
  H+  H16  1  0.39673750  0.77266107  0.32240477  1
  H+  H17  1  0.13306578  0.77364909  0.84483826  1
  H+  H18  1  0.87945892  0.90049515  0.00546226  1
  H+  H19  1  0.10458348  0.88393079  0.01375160  1
  H+  H20  1  0.21244704  0.61232360  0.84066306  1
  H+  H21  1  0.09834376  0.63298142  0.83222607  1
  H+  H22  1  0.12198968  0.52449531  0.84301638  1
  H+  H23  1  0.88316098  0.48459937  0.34889546  1
  H+  H24  1  0.66958608  0.16258518  0.18700236  1
  H+  H25  1  0.38532780  0.61441562  0.17240334  1
  H+  H26  1  0.18742475  0.39570236  0.83208354  1
  H+  H27  1  0.89597370  0.87209504  0.51811488  1
  H+  H28  1  0.48525410  0.37550368  1.00396102  1
  H+  H29  1  0.01611467  0.38952380  0.48416288  1
  H+  H30  1  0.13988926  0.51896596  0.16983359  1
  H+  H31  1  0.87411371  0.15186937  0.67156712  1
  H+  H32  1  0.46396828  0.62219398  0.50798337  1
  H+  H33  1  0.15400003  0.86521352  0.65544211  1
  H+  H34  1  0.11882818  0.39883728  0.33213057  1
  H+  H35  1  0.34785274  0.72187093  0.83250946  1
  H+  H36  1  -0.02014760  0.36966245  0.16776715  1
  H+  H37  1  0.85499637  0.64800155  0.83069434  1
  H+  H38  1  0.31950162  0.64955496  0.41162568  1
  H+  H39  1  0.07419641  0.37822992  0.83015428  1
  H+  H40  1  0.97753738  0.86741251  0.17818709  1
  H+  H41  1  0.86876920  0.16602835  0.49226218  1
  H+  H42  1  0.86823268  0.03960493  0.65620162  1
  H+  H43  1  0.38272894  0.27896800  0.49913087  1
  H+  H44  1  0.84328896  0.93199902  0.28610122  1
  H+  H45  1  0.88509327  0.90193609  0.16028614  1
  H+  H46  1  0.27259934  0.15027478  0.17039699  1
  H+  H47  1  0.45464473  0.83588272  0.83921560  1
  H+  H48  1  0.66733073  0.84274591  0.18567291  1
  H+  H49  1  0.40401754  1.04446000  0.16761164  1
  H+  H50  1  0.65682493  0.57333025  -0.06767618  1
  H+  H51  1  0.64385476  0.10995695  0.50268958  1
  H+  H52  1  0.64279030  0.76237166  0.34000214  1
  H+  H53  1  0.77850602  0.40095813  0.67038941  1
  H+  H54  1  0.89270269  0.78643360  0.99302226  1
  H+  H55  1  0.86586131  0.39767975  0.67249954  1
  H+  H56  1  0.78082108  0.88313203  0.33836790  1
  H+  H57  1  0.08275928  0.42235670  0.09206726  1
  H+  H58  1  0.61896237  0.39128642  0.82831978  1
  H+  H59  1  0.10225000  0.18390980  0.64738240  1
  H+  H60  1  0.65847112  0.12993204  0.82837711  1
  H+  H61  1  0.11666950  0.24217469  0.80748984  1
  H+  H62  1  0.35142519  0.73445700  0.49588097  1
  H+  H63  1  0.04711898  0.76392224  0.20575336  1
  H+  H64  1  0.74724406  0.87277713  -0.00358399  1
  H+  H65  1  0.02720381  0.39459757  0.33266147  1
  H+  H66  1  0.64938517  0.51111838  0.51861251  1
  H+  H67  1  0.39116367  0.61290691  0.33426716  1
  H+  H68  1  0.88484768  0.00007844  0.16267242  1
  H+  H69  1  0.58003717  0.72995176  0.14162473  1
  H+  H70  1  0.39393976  0.52094702  0.65831386  1
  H+  H71  1  0.63427788  0.59757077  0.33382176  1
  H+  H72  1  0.89150784  0.45886106  0.50881139  1
  H+  H73  1  0.40875917  0.36052896  0.21103779  1
  H+  H74  1  0.12834654  0.52602035  0.32178776  1
  H+  H75  1  0.86901877  0.29263110  0.97926185  1
  H+  H76  1  0.22596090  0.11872338  0.79889953  1
  H+  H77  1  0.13977999  0.54131559  0.65635996  1
  H+  H78  1  0.14406023  0.31672532  0.65528386  1
  H+  H79  1  0.59364039  0.89457447  0.66533614  1
  H+  H80  1  0.37734065  0.59859373  -0.01704195  1
  H+  H81  1  0.86497180  0.97683737  0.50028580  1
  H+  H82  1  0.34419861  0.41323425  0.26551564  1
  H+  H83  1  0.12203717  1.02386788  0.50389052  1
  H+  H84  1  0.90011811  0.37527404  0.32733472  1
  H+  H85  1  0.72308086  0.62245152  0.84001071  1
  H+  H86  1  0.13454667  0.03818164  0.18432089  1
  H+  H87  1  0.14061709  0.36756242  0.98575549  1
  H+  H88  1  0.46732821  0.32836381  0.35100820  1
  H+  H89  1  0.36394053  0.72175113  0.15460993  1
  H+  H90  1  0.47673478  0.61375552  0.65929510  1
  H+  H91  1  0.85579023  0.73047979  0.16343034  1
  H+  H92  1  0.28602091  0.37141443  0.66617280  1
  H+  H93  1  0.98233849  0.08770823  0.87044186  1
  H+  H94  1  0.06582977  0.65961734  0.77347610  1
  H+  H95  1  0.89933120  0.51945698  0.99859839  1
  H+  H96  1  0.07203934  0.16548893  0.11248548  1
  H+  H97  1  0.15661533  0.06061025  0.60378830  1
  H+  H98  1  0.39203278  0.74346937  -0.00091785  1
  H+  H99  1  0.63524320  0.37652142  0.49926098  1
  H+  H100  1  0.78669964  0.15858589  0.17896476  1
  H+  H101  1  0.38060584  0.22921859  0.82970863  1
  H+  H102  1  0.86714201  0.72338906  0.33824872  1
  H+  H103  1  0.87722904  0.24937664  0.67526791  1
  H+  H104  1  0.87412887  -0.01101169  1.00428674  1
  H+  H105  1  0.89519121  0.86266358  0.32650094  1
  H+  H106  1  0.30390913  0.16871091  -0.03853129  1
  H+  H107  1  0.78369612  0.40050310  0.15316812  1
  H+  H108  1  0.64943780  0.26327171  0.51001634  1
  H+  H109  1  0.72124235  0.87395205  0.66458505  1
  H+  H110  1  0.05323543  0.65446278  0.16042797  1
  H+  H111  1  0.01889612  0.86030012  0.67815181  1
  H+  H112  1  0.47847729  0.62190570  0.17213581  1
  H+  H113  1  0.78901438  0.14896394  0.82321731  1
  H+  H114  1  0.23073701  0.86753977  0.49696153  1
  H+  H115  1  0.88967785  0.59257382  0.50727869  1
  H+  H116  1  0.83838053  0.19638173  0.43354426  1
  H+  H117  1  0.61835328  0.23453916  0.67846196  1
  H+  H118  1  0.40931998  0.80673547  0.90418411  1
  H+  H119  1  0.86300096  0.12664008  0.00671656  1
  H+  H120  1  0.66343116  0.88034256  0.99660439  1
  H+  H121  1  0.36007645  0.86676628  0.50306973  1
  H+  H122  1  0.64639580  0.37449632  0.66031798  1
  H+  H123  1  0.65409207  0.87033397  0.50756420  1
  H+  H124  1  0.88261775  0.15414411  0.82866560  1
  H+  H125  1  0.15554549  0.77958152  0.64956052  1
  H+  H126  1  0.16425618  0.58210338  0.22942622  1
  H+  H127  1  0.69443303  0.13046599  0.24824963  1
  H+  H128  1  0.35082541  0.39549668  0.50994165  1
  H+  H129  1  0.52862548  0.37914578  0.17610798  1
  H+  H130  1  0.53524581  0.15041468  0.16042419  1
  H+  H131  1  0.11722000  0.89010423  0.49496186  1
  H+  H132  1  0.13879281  0.51226587  0.50395620  1
  H+  H133  1  0.11200280  0.47682292  -0.00124553  1
  H+  H134  1  0.96060597  0.61627528  0.84045156  1
  H+  H135  1  0.66513398  0.57940849  0.60841449  1
  H+  H136  1  0.01591508  0.88637445  0.01126148  1
  H+  H137  1  0.11487926  -0.02087879  0.81017676  1
  H+  H138  1  0.92122199  0.58915814  0.26853227  1
  H+  H139  1  0.58749399  0.99473451  0.17724454  1
  H+  H140  1  0.41581947  0.11195855  0.51180990  1
  H+  H141  1  0.53142643  0.39248246  0.82935581  1
  H+  H142  1  0.98927775  0.62240034  0.66258781  1
  H+  H143  1  0.14164994  0.99680085  0.65667415  1
  H+  H144  1  0.16565157  0.58611443  0.93346207  1
  H+  H145  1  0.12028633  0.26624792  0.16930336  1
  H+  H146  1  0.49750473  0.11930807  0.84283419  1
  H+  H147  1  0.10766750  0.38724257  0.15098345  1
  H+  H148  1  0.88055467  0.10898455  0.18159356  1
  H+  H149  1  0.78250478  0.88430955  0.50717901  1
  H+  H150  1  0.54541835  0.37334630  0.50659045  1
  H+  H151  1  0.61672376  0.64592721  0.67314469  1
  H+  H152  1  0.27419596  0.55979400  0.37986144  1
  H+  H153  1  0.37826103  0.38063087  0.67023529  1
  H+  H154  1  0.60984846  0.12461833  0.34526346  1
  H+  H155  1  0.85169386  0.48268609  0.82419863  1
  H+  H156  1  0.69633465  0.77539629  0.19300003  1
  H+  H157  1  0.83514929  0.39758113  1.01330236  1
  H+  H158  1  0.39486597  0.14425936  0.32212307  1
  H+  H159  1  0.37454756  0.60525661  0.82350653  1
  H+  H160  1  0.57851512  0.66393472  0.09603216  1
  H+  H161  1  0.30844790  -0.02983978  0.78664681  1
  H+  H162  1  0.61406103  0.14476329  0.67248646  1
  H+  H163  1  0.62435368  0.88295223  0.33943889  1
  H+  H164  1  0.21644317  0.61262252  0.32525124  1
  H+  H165  1  0.31487791  0.90198701  0.15811186  1
  H+  H166  1  0.53389900  0.12688856  0.50075807  1
  H+  H167  1  0.49597316  0.36786383  0.66062339  1
  H+  H168  1  0.21792596  0.87037272  0.99869939  1
  H+  H169  1  0.72070371  0.36355502  0.83726949  1
  H+  H170  1  0.32060867  0.13963684  0.47969114  1
  H+  H171  1  0.90084609  0.53256493  0.66096310  1
  H+  H172  1  0.86481713  0.24199046  0.34025026  1
  H+  H173  1  0.58828684  0.86044317  0.82273638  1
  H+  H174  1  0.19876478  0.12025975  0.50125558  1
  H+  H175  1  0.38673471  0.26392559  0.19532795  1
  H+  H176  1  0.61729255  0.48345895  0.67745001  1
  H+  H177  1  0.34820368  0.90799127  -0.01515956  1
  H+  H178  1  0.22215848  0.36614726  0.50153988  1
  H+  H179  1  0.52645182  0.82692090  0.15750330  1
  H+  H180  1  0.98560932  0.86591366  0.32930676  1
  H+  H181  1  0.33932408  0.90826775  0.76694589  1
  H+  H182  1  0.37224751  0.47334044  0.81611012  1
  H+  H183  1  0.36597692  0.47981625  -0.01161010  1
  H+  H184  1  0.02302808  0.16069550  0.81216539  1
  H+  H185  1  0.65363555  0.02632654  0.97624960  1
  H+  H186  1  0.96393854  0.11896727  0.65127405  1
  H+  H187  1  0.91383051  0.96508837  0.67603547  1
  H+  H188  1  0.60708960  0.47439742  0.16661442  1
  H+  H189  1  0.24764908  0.13740386  0.32803376  1
  H+  H190  1  0.22364227  0.60515549  0.50404765  1
  H+  H191  1  0.46947360  0.60803383  0.97553003  1
  H+  H192  1  0.41915219  0.86711835  0.16392892  1
  H+  H193  1  0.52617970  0.71512841  0.02986441  1
  H+  H194  1  0.12295384  0.01791237  1.02960037  1
  H+  H195  1  0.08862467  0.13173127  0.49104264  1
  H+  H196  1  0.53016326  0.63246932  0.34162863  1
  H+  H197  1  0.36539048  0.17691350  0.73809692  1
  H+  H198  1  0.73131043  0.60423031  0.52062381  1
  H+  H199  1  0.73405971  0.11648048  -0.00911589  1
  H+  H200  1  0.08007008  0.89285448  0.73607546  1
  H+  H201  1  0.10163917  0.13892056  0.02793687  1
  H+  H202  1  0.39715571  0.36295177  0.84127790  1
  H+  H203  1  0.63163081  0.77546957  0.84214707  1
  H+  H204  1  0.12588873  0.91348876  0.16593249  1
  H+  H205  1  0.89071470  0.04412765  0.34240910  1
  H+  H206  1  0.11588133  0.73221588  0.01141577  1
  H+  H207  1  0.38208170  0.14077803  0.82929628  1
  H+  H208  1  0.13364324  0.64578128  0.66311242  1
  H+  H209  1  0.63066313  0.61185035  0.18016741  1
  H+  H210  1  0.87814062  0.21504148  0.03433600  1
  H+  H211  1  0.11151710  0.64046658  0.33781444  1
  H+  H212  1  0.64888770  1.02629216  0.32947761  1
  H+  H213  1  -0.01634686  0.86704851  0.51565179  1
  H+  H214  1  0.45113551  0.88990899  0.66506352  1
  H+  H215  1  0.97299165  0.11432835  0.18462107  1
  H+  H216  1  0.63647581  0.35057568  0.99191100  1
  H+  H217  1  -0.02138841  0.37780932  0.65518362  1
  H+  H218  1  0.39164549  0.49184616  0.18334155  1
  H+  H219  1  0.93332692  0.58608060  0.56779316  1
  H+  H220  1  0.10876409  0.14152450  0.17301296  1
  H+  H221  1  0.62969764  -0.00325323  0.17181299  1
  H+  H222  1  0.38476663  0.01527846  0.66201222  1
  H+  H223  1  0.59314161  0.45494841  0.34859762  1
  H+  H224  1  0.89386839  0.27897749  0.17292073  1
  H+  H225  1  0.23007362  0.37490231  0.31061828  1
  H+  H226  1  0.12879748  0.23989507  0.33836083  1
  H+  H227  1  0.63857537  0.52920666  0.83790026  1
  H+  H228  1  0.02003173  0.64044072  0.33628208  1
  H+  H229  1  0.88006281  0.28304064  0.83363089  1
  H+  H230  1  0.87769970  0.91107649  0.82257037  1
  H+  H231  1  0.27242349  0.38531216  -0.00717536  1
  H+  H232  1  0.37665142  0.12914980  0.67090631  1
  H+  H233  1  0.12137191  0.99227671  0.34573167  1
  H+  H234  1  0.52077018  0.12518600  0.34333853  1
  H+  H235  1  0.59128716  0.16375558  0.10076464  1
  H+  H236  1  0.12859202  0.90875416  0.34063063  1
  H+  H237  1  0.76801805  0.64047022  0.16213613  1
  H+  H238  1  0.41048738  0.58664748  0.57037520  1
  H+  H239  1  0.87291008  0.40004704  0.16255790  1
  H+  H240  1  0.03180382  0.63623208  0.00310565  1
  H+  H241  1  0.64892042  0.37164401  0.15499662  1
  H+  H242  1  0.60761907  0.92021131  0.43271784  1
  H+  H243  1  0.63631986  0.78241354  0.66483621  1
  H+  H244  1  0.38834011  0.01280252  0.50063894  1
  H+  H245  1  0.26981109  0.62335719  0.00318728  1
  H+  H246  1  0.13813142  0.11950559  0.79502935  1
  H+  H247  1  0.62537084  0.26200760  0.32126223  1
  H+  H248  1  0.61188780  0.12682909  1.00212270  1
  H+  H249  1  0.73732362  0.12373796  0.50442723  1
  H+  H250  1  0.02878567  0.64331343  0.48501533  1
  H+  H251  1  0.34314053  0.92024309  0.40169478  1
  H+  H252  1  0.10876378  0.22939898  1.01410391  1
  H+  H253  1  0.87354351  0.84443741  0.66553898  1
  H+  H254  1  0.65348592  0.28546346  0.15275467  1
  H+  H255  1  0.14120245  0.79210067  0.18819885  1
  H+  H256  1  -0.03158321  0.11756921  -0.00547007  1
  H+  H257  1  0.39469908  0.23554810  0.67237987  1
  H+  H258  1  0.52917659  0.87587939  0.01183323  1
  H+  H259  1  1.02195850  0.38929902  0.99646843  1
  H+  H260  1  0.89077837  0.53520344  0.17852730  1
  H+  H261  1  0.15876304  0.71117197  0.71763135  1
  H+  H262  1  0.96347679  0.12267246  0.49891748  1
  H+  H263  1  0.60534771  0.74513551  0.49398892  1
  H+  H264  1  0.22446060  0.86013844  0.84262122  1
  H+  H265  1  0.33150298  0.66585942  0.72611510  1
  H+  H266  1  0.86286057  0.15248389  0.34809087  1
  H+  H267  1  0.39093461  0.28806907  0.99964008  1
  H+  H268  1  0.25147257  0.36347318  0.83357156  1
  H+  H269  1  0.53125149  0.73215545  0.45102740  1
  H+  H270  1  0.15436214  0.08307923  0.97664232  1
  H+  H271  1  0.87924150  0.00100185  0.82536732  1
  H+  H272  1  0.61511628  0.22806439  0.82404778  1
  H+  H273  1  0.29216981  0.87813629  0.66356287  1
  H+  H274  1  0.91687493  0.09116665  0.92689088  1
  H+  H275  1  0.24613077  0.88365086  0.32456085  1
  H+  H276  1  0.14381800  0.61855676  -0.00493206  1
  H+  H277  1  0.58271425  0.66461187  0.40279120  1
  H+  H278  1  0.85420955  0.64454060  0.00609728  1
  H+  H279  1  0.53784065  0.88718776  0.33576763  1
  H+  H280  1  0.89293894  0.61540635  0.33043722  1
  H+  H281  1  0.27911205  0.14930342  1.02853487  1
  H+  H282  1  0.35373606  0.48366586  0.49953907  1
  H+  H283  1  0.97909072  0.87146363  0.84036707  1
  H+  H284  1  0.72031010  0.59394400  0.32945875  1
  H+  H285  1  0.52092269  0.63799234  0.82058886  1
  H+  H286  1  0.62756871  0.59694746  0.99314144  1
  H+  H287  1  0.06562072  0.15416985  0.71294939  1
  H+  H288  1  0.34016043  0.04786015  0.30443198  1
  H+  H289  1  0.34553645  0.40632063  0.76083340  1
  H+  H290  1  0.38833359  0.97323251  0.34109614  1
  H+  H291  1  0.66756310  0.09172931  0.59775450  1
  H+  H292  1  0.36011683  0.14868212  0.16089862  1
  H+  H293  1  0.36129517  0.64870969  0.50101065  1
  H+  H294  1  0.43606251  0.33499483  0.60030492  1
  H+  H295  1  0.66629999  0.84056540  0.89791346  1
  H+  H296  1  0.39103643  0.12590064  -0.00747902  1
  H+  H297  1  0.40792481  0.06909519  0.60003606  1
  H+  H298  1  0.42687914  0.60040173  0.27026733  1
  H+  H299  1  0.11623797  0.89352595  0.83294598  1
  H+  H300  1  0.32833567  0.64617359  0.06405637  1
  H+  H301  1  0.42213037  0.10257410  0.22651885  1
  H+  H302  1  0.88603284  0.78722843  0.83935261  1
  H+  H303  1  0.40955434  0.02891690  0.84809860  1
  H+  H304  1  0.86301745  0.93806729  0.09253594  1
  H+  H305  1  0.20339576  0.12708842  0.90543019  1
  H+  H306  1  0.11659341  0.73869614  0.48271887  1
  H+  H307  1  0.85948088  0.71741022  0.67418025  1
  H+  H308  1  0.15715820  0.13492666  0.33342044  1
  H+  H309  1  0.58043851  0.40253436  0.41070664  1
  H+  H310  1  0.68029933  0.82274115  0.28190766  1
  H+  H311  1  0.58600104  0.67512456  0.73165118  1
  H+  H312  1  0.67667795  0.33851809  0.60332364  1
  H+  H313  1  0.51862127  0.80941497  0.77353057  1
  H+  H314  1  0.91332147  0.34650232  0.59815908  1
  H+  H315  1  0.91320197  0.82682340  0.60573989  1
  H+  H316  1  0.57934548  0.40985135  0.06989680  1
  H+  H317  1  0.87671645  0.29656851  0.50120220  1
  H+  H318  1  0.17535948  0.31796516  0.58807714  1
  H+  H319  1  0.92316437  0.34201127  0.26505287  1
  H+  H320  1  0.82901597  0.67333923  0.76876642  1
  H+  H321  1  0.41104880  0.29795574  0.28456400  1
  H+  H322  1  0.73063499  0.12221572  0.33760571  1
  H+  H323  1  0.92275194  0.84635438  0.93236380  1
  H+  H324  1  0.35939187  0.99575529  0.00464606  1
  H+  H325  1  0.08202838  0.67587105  0.40775478  1
  H+  H326  1  0.58494416  0.16012363  0.43781566  1
  H+  H327  1  0.90284979  0.09714778  0.55760607  1
  H+  H328  1  0.91283972  0.09506618  0.28165913  1
  H+  H329  1  0.07962717  0.64461742  0.08779796  1
  H+  H330  1  0.58391342  0.95753883  0.05365348  1
  H+  H331  1  0.90347328  0.58262556  0.89894225  1
  H+  H332  1  0.86530717  0.42346122  0.40664953  1
  H+  H333  1  0.16062739  0.83363255  0.93901056  1
  H+  H334  1  0.61288100  0.74232557  0.99882687  1
  H+  H335  1  0.17630835  0.83535231  0.55887544  1
  H+  H336  1  0.83832934  0.66888073  0.39871417  1
  H+  H337  1  0.07370224  0.43113713  0.73673454  1
  H+  H338  1  0.96809557  0.53707464  0.94609474  1
  H+  H339  1  -0.00291721  0.39424597  0.82540458  1
  H+  H340  1  0.85607359  0.18861685  0.74132866  1
  H+  H341  1  0.15855176  0.33873526  0.26003964  1
  H+  H342  1  0.91809222  0.83810063  0.23711294  1
  H+  H343  1  0.16650256  0.58632494  0.59102771  1
  H+  H344  1  0.74331674  0.34678061  0.51223296  1
  H+  H345  1  0.66918257  0.83438614  0.57083531  1
  H+  H346  1  0.38099435  0.84223940  0.56680680  1
  H+  H347  1  0.66149348  0.32786126  0.89744937  1
  H+  H348  1  0.17257757  0.33573455  0.92820071  1
  H+  H349  1  0.33050558  0.19506756  0.42127474  1
  H+  H350  1  0.39580460  0.86024940  0.32563632  1
  H+  H351  1  0.08438021  0.91932521  0.43695191  1
  H+  H352  1  0.82842552  0.42674573  0.76248561  1
  H+  H353  1  0.78074463  0.70486677  0.46462461  1
  H+  H354  1  0.17094834  0.09842164  0.24397644  1
  H+  H355  1  0.59005103  0.85650350  0.10126896  1
  H+  H356  1  0.88216078  0.61925113  0.17906198  1
  H+  H357  1  0.18270177  0.07844836  0.90409483  1
  H+  H358  1  0.15699494  0.81180969  0.29874722  1
  H+  H359  1  0.40509972  0.57775789  0.88295433  1
  H+  H360  1  0.84007695  0.68002922  0.06838964  1
  H+  H361  1  0.12871026  0.35816953  0.50384096  1
  H+  H362  1  0.82769154  0.15262808  0.11409096  1
  H+  H363  1  0.42699824  0.33980944  0.90374614  1
  H+  H364  1  0.86962052  0.36987106  0.83068110  1
  H+  H365  1  0.29261739  0.96651421  0.44962634  1
  H+  H366  1  0.66091260  0.57849348  0.23763719  1
  H+  H367  1  0.85471917  0.94351484  0.73563517  1
  H+  H368  1  0.91109885  0.35146326  0.92348077  1
  H+  H369  1  0.27244389  0.63398142  0.15783192  1
  H+  H370  1  0.43009224  0.82893077  0.22661911  1
  H+  H371  1  0.07928602  0.91825715  0.10585371  1
  H+  H372  1  0.33230274  0.40007375  0.15269154  1
  H+  H373  1  0.84720142  0.44454944  0.07761157  1
  H+  H374  1  0.09117229  0.17729985  0.39599806  1
  H+  H375  1  0.63537655  0.26257586  -0.01093305  1
  H+  H376  1  0.58892380  0.41997930  0.73528389  1
  H+  H377  1  0.42535789  0.09270857  0.93643482  1
  H+  H378  1  0.56548983  0.91902085  0.72572082  1
  H+  H379  1  0.68830121  0.10127142  0.88710885  1
  H+  H380  1  0.58566019  0.16853753  0.76371202  1
  H+  H381  1  0.35640226  0.93009286  0.09336189  1
  H+  H382  1  0.37286153  0.38732569  -0.00139073  1
  H+  H383  1  0.07789504  0.41219818  0.42638426  1
  O2-  O384  1  0.07313360  0.16710306  0.15792281  1
  O2-  O385  1  0.06404574  0.16664899  0.47405525  1
  O2-  O386  1  0.07853733  0.18488900  0.78993023  1
  O2-  O387  1  0.08428158  0.42473892  0.13739113  1
  O2-  O388  1  0.07522968  0.40663673  0.47174173  1
  O2-  O389  1  0.06093188  0.42056893  0.81368304  1
  O2-  O390  1  0.06600021  0.61882665  0.13174262  1
  O2-  O391  1  0.08376073  0.67985917  0.46307388  1
  O2-  O392  1  0.06787243  0.66391259  0.81813851  1
  O2-  O393  1  0.08225221  0.92620788  0.15166896  1
  O2-  O394  1  0.08377263  0.91821924  0.48231767  1
  O2-  O395  1  0.08138700  0.91462866  0.81244447  1
  O2-  O396  1  0.33211046  0.18368351  0.15438751  1
  O2-  O397  1  0.31291345  0.18700598  0.46673330  1
  O2-  O398  1  0.35488521  0.17146034  0.81006930  1
  O2-  O399  1  0.37562893  0.42937972  0.18382267  1
  O2-  O400  1  0.32456978  0.42218095  0.48611616  1
  O2-  O401  1  0.34728713  0.41081173  0.80675398  1
  O2-  O402  1  0.33163423  0.66078480  0.14028084  1
  O2-  O403  1  0.33055676  0.67480139  0.47973796  1
  O2-  O404  1  0.31280907  0.65871417  0.81370932  1
  O2-  O405  1  0.37019001  0.93172978  0.13748699  1
  O2-  O406  1  0.32387728  0.93850178  0.46398735  1
  O2-  O407  1  0.32374607  0.92955281  0.80377365  1
  O2-  O408  1  0.59459432  0.17210414  0.14557008  1
  O2-  O409  1  0.59233531  0.16367552  0.48324171  1
  O2-  O410  1  0.58753618  0.16687713  0.81055650  1
  O2-  O411  1  0.57843907  0.41509115  0.14995005  1
  O2-  O412  1  0.60232629  0.40611632  0.48744426  1
  O2-  O413  1  0.59069396  0.42393424  0.81262810  1
  O2-  O414  1  0.57901434  0.67383431  0.14024281  1
  O2-  O415  1  0.55625739  0.69959082  0.46830260  1
  O2-  O416  1  0.58268166  0.67107146  0.80998350  1
  O2-  O417  1  0.57570382  0.82357045  0.13945857  1
  O2-  O418  1  0.61176462  0.91877876  0.47743265  1
  O2-  O419  1  0.54169027  0.86246812  0.79701061  1
  O2-  O420  1  0.84198300  0.16564900  0.15745097  1
  O2-  O421  1  0.84134466  0.20042969  0.47961641  1
  O2-  O422  1  0.85317462  0.18265841  0.80982782  1
  O2-  O423  1  0.84940474  0.43670532  0.14860570  1
  O2-  O424  1  0.86054713  0.39861499  0.49293501  1
  O2-  O425  1  0.82516271  0.42278746  0.80812355  1
  O2-  O426  1  0.82827712  0.67134870  0.14688221  1
  O2-  O427  1  0.82459545  0.69068483  0.47610047  1
  O2-  O428  1  0.82762676  0.67999506  0.81384328  1
  O2-  O429  1  0.86600204  0.94045411  0.13980134  1
  O2-  O430  1  0.84414525  0.91499622  0.49473005  1
  O2-  O431  1  0.85562636  0.94548723  0.80244874  1
  O2-  O432  1  0.16479638  0.09848947  0.19789542  1
  O2-  O433  1  0.14086557  0.08360007  0.51780715  1
  O2-  O434  1  0.16406132  0.08281137  0.79216994  1
  O2-  O435  1  0.15371010  0.33155635  0.17371985  1
  O2-  O436  1  0.16152081  0.32994629  0.51739885  1
  O2-  O437  1  0.19065936  0.34639173  0.84722835  1
  O2-  O438  1  0.16825476  0.58099753  0.18366840  1
  O2-  O439  1  0.16462732  0.57114412  0.52044987  1
  O2-  O440  1  0.15291140  0.58443042  0.85854105  1
  O2-  O441  1  0.09017706  0.74621991  0.20763534  1
  O2-  O442  1  0.17020732  0.83379999  0.51351382  1
  O2-  O443  1  0.16669211  0.83262038  0.86187096  1
  O2-  O444  1  0.42545444  0.10394436  0.18120191  1
  O2-  O445  1  0.43015739  0.06923519  0.52531128  1
  O2-  O446  1  0.43718044  0.08896191  0.86210749  1
  O2-  O447  1  0.42520564  0.31702397  0.22156344  1
  O2-  O448  1  0.42579028  0.33775198  0.51513554  1
  O2-  O449  1  0.42621498  0.33282951  0.85902818  1
  O2-  O450  1  0.42074302  0.59214424  0.19177601  1
  O2-  O451  1  0.40486286  0.58817178  0.52450173  1
  O2-  O452  1  0.40727189  0.57756222  0.83785459  1
  O2-  O453  1  0.43293745  0.82462331  0.18134986  1
  O2-  O454  1  0.38156511  0.83251666  0.52280090  1
  O2-  O455  1  0.39754003  0.80672564  0.86052991  1
  O2-  O456  1  0.71763160  0.16379376  0.21015644  1
  O2-  O457  1  0.67755529  0.08330062  0.51776323  1
  O2-  O458  1  0.69554783  0.10663231  0.84262409  1
  O2-  O459  1  0.68695214  0.34824674  0.14620193  1
  O2-  O460  1  0.68317801  0.32447078  0.52488112  1
  O2-  O461  1  0.66012504  0.33177029  0.85142245  1
  O2-  O462  1  0.66269924  0.58318197  0.19209875  1
  O2-  O463  1  0.67192640  0.56982040  0.53522794  1
  O2-  O464  1  0.66236422  0.58847836  0.85479094  1
  O2-  O465  1  0.70693586  0.83042537  0.20898491  1
  O2-  O466  1  0.67573260  0.83220176  0.52593582  1
  O2-  O467  1  0.65043258  0.83532386  0.85473200  1
  O2-  O468  1  0.91084319  0.07656766  0.19564313  1
  O2-  O469  1  0.90186855  0.09497427  0.51271522  1
  O2-  O470  1  0.93344067  0.09666162  0.86532052  1
  O2-  O471  1  0.92140602  0.34016305  0.18575095  1
  O2-  O472  1  0.90879625  0.35883145  0.51815369  1
  O2-  O473  1  0.90431415  0.34401883  0.84772367  1
  O2-  O474  1  0.91678650  0.59492023  0.19556317  1
  O2-  O475  1  0.93072620  0.57655939  0.52247303  1
  O2-  O476  1  0.89948395  0.58658446  0.85407139  1
  O2-  O477  1  0.91656437  0.84112556  0.19131448  1
  O2-  O478  1  0.92360848  0.83687662  0.53175450  1
  O2-  O479  1  0.91923479  0.84657528  0.85634979  1
  O2-  O480  1  0.18603707  0.10157667  0.31716120  1
  O2-  O481  1  0.18421562  0.05241441  0.63948583  1
  O2-  O482  1  0.15344551  0.08163177  1.02130005  1
  O2-  O483  1  0.16553055  0.34530128  0.30439303  1
  O2-  O484  1  0.18388625  0.30626320  0.63210790  1
  O2-  O485  1  0.17299882  0.33783189  0.97349269  1
  O2-  O486  1  0.15867463  0.58790443  0.30640893  1
  O2-  O487  1  0.17046796  0.59767482  0.63666787  1
  O2-  O488  1  0.16967588  0.58461302  0.97914593  1
  O2-  O489  1  0.19209099  0.87377609  0.30488000  1
  O2-  O490  1  0.18819525  0.84096737  0.63680490  1
  O2-  O491  1  0.15776552  0.83355931  0.98476114  1
  O2-  O492  1  0.39994016  0.09406281  0.30439436  1
  O2-  O493  1  0.39131034  0.06808910  0.64340685  1
  O2-  O494  1  0.41736570  0.09037714  0.98213292  1
  O2-  O495  1  0.40522696  0.29419465  0.33373617  1
  O2-  O496  1  0.43457956  0.33145887  0.64500798  1
  O2-  O497  1  0.42260790  0.34939748  0.98672111  1
  O2-  O498  1  0.42920972  0.59427718  0.31513432  1
  O2-  O499  1  0.41688772  0.58042799  0.64396988  1
  O2-  O500  1  0.40844370  0.57152131  0.96283809  1
  O2-  O501  1  0.42498918  0.83072999  0.30589209  1
  O2-  O502  1  0.38888589  0.85845833  0.65285176  1
  O2-  O503  1  0.42696666  0.80704580  0.98844811  1
  O2-  O504  1  0.67106671  0.08810179  0.32037954  1
  O2-  O505  1  0.66254043  0.09498860  0.64250399  1
  O2-  O506  1  0.67694488  0.08797754  0.97036459  1
  O2-  O507  1  0.63513737  0.31192961  0.29706438  1
  O2-  O508  1  0.67973488  0.34610380  0.64826059  1
  O2-  O509  1  0.66221920  0.32064175  0.97079271  1
  O2-  O510  1  0.65957948  0.56398890  0.31587056  1
  O2-  O511  1  0.66334149  0.58399828  0.65415624  1
  O2-  O512  1  0.65193010  0.56345327  0.97724598  1
  O2-  O513  1  0.67287459  0.82398859  0.32697686  1
  O2-  O514  1  0.66226570  0.84291533  0.64921553  1
  O2-  O515  1  0.68624327  0.84424766  0.98176091  1
  O2-  O516  1  0.91111295  0.10179542  0.32589731  1
  O2-  O517  1  0.90083420  0.09969006  0.64069917  1
  O2-  O518  1  0.90974395  0.08497786  0.97734013  1
  O2-  O519  1  0.92757657  0.34219653  0.31024888  1
  O2-  O520  1  0.91706783  0.34301568  0.64323190  1
  O2-  O521  1  0.91406007  0.35057775  0.96910943  1
  O2-  O522  1  0.92729436  0.58976376  0.31462459  1
  O2-  O523  1  0.93152633  0.59302287  0.64460973  1
  O2-  O524  1  0.94570704  0.56852365  0.96845511  1
  O2-  O525  1  0.92562405  0.83130602  0.31347613  1
  O2-  O526  1  0.90741010  0.81855193  0.65134443  1
  O2-  O527  1  0.92376720  0.84781759  0.97832667  1
  O2-  O528  1  0.07261723  0.17338860  0.03421318  1
  O2-  O529  1  0.11051620  0.18139643  0.35322011  1
  O2-  O530  1  0.05378468  0.13736182  0.66951824  1
  O2-  O531  1  0.08214844  0.41514143  0.01152712  1
  O2-  O532  1  0.08843186  0.42895402  0.34827280  1
  O2-  O533  1  0.07759146  0.43412168  0.69129207  1
  O2-  O534  1  0.09035015  0.67019862  0.02353042  1
  O2-  O535  1  0.08252662  0.67253975  0.35286886  1
  O2-  O536  1  0.11191807  0.68186439  0.68844338  1
  O2-  O537  1  0.07380129  0.91153367  0.03257475  1
  O2-  O538  1  0.09135481  0.93042922  0.35745155  1
  O2-  O539  1  0.07915083  0.88408957  0.69118977  1
  O2-  O540  1  0.33002487  0.17768519  0.00180494  1
  O2-  O541  1  0.36276865  0.20308501  0.35371930  1
  O2-  O542  1  0.36478876  0.17636152  0.69171227  1
  O2-  O543  1  0.33545134  0.41866179  0.00646408  1
  O2-  O544  1  0.33282344  0.41581297  0.30895918  1
  O2-  O545  1  0.34338207  0.40580801  0.68557043  1
  O2-  O546  1  0.33041983  0.64558490  0.01838019  1
  O2-  O547  1  0.30649366  0.62070611  0.36933846  1
  O2-  O548  1  0.29102631  0.67305251  0.75177806  1
  O2-  O549  1  0.32896138  0.93206556  0.01680361  1
  O2-  O550  1  0.35100445  0.91405874  0.35446791  1
  O2-  O551  1  0.35106469  0.90522114  0.68298364  1
  O2-  O552  1  0.58428841  0.15659306  0.02174683  1
  O2-  O553  1  0.57732189  0.15219631  0.36246687  1
  O2-  O554  1  0.58633983  0.17477752  0.69307528  1
  O2-  O555  1  0.57552808  0.40611955  0.02460892  1
  O2-  O556  1  0.56070508  0.39719290  0.36763298  1
  O2-  O557  1  0.58969297  0.42095893  0.68960907  1
  O2-  O558  1  0.55979970  0.68994778  0.01489100  1
  O2-  O559  1  0.58951107  0.65639647  0.35864741  1
  O2-  O560  1  0.58685068  0.67749480  0.68620477  1
  O2-  O561  1  0.58800994  0.91459257  0.02895236  1
  O2-  O562  1  0.59773165  0.91847625  0.35036702  1
  O2-  O563  1  0.56363013  0.92423003  0.68093887  1
  O2-  O564  1  0.83265605  0.15612483  0.02767620  1
  O2-  O565  1  0.83245980  0.18456134  0.36059679  1
  O2-  O566  1  0.85308665  0.19026542  0.69416628  1
  O2-  O567  1  0.83974031  0.44896049  0.03192446  1
  O2-  O568  1  0.85981589  0.42447060  0.36236085  1
  O2-  O569  1  0.83963445  0.43188425  0.68661735  1
  O2-  O570  1  0.85090063  0.69205470  0.02412132  1
  O2-  O571  1  0.83626726  0.66312497  0.35375637  1
  O2-  O572  1  0.83031745  0.65759528  0.69119908  1
  O2-  O573  1  0.84985411  0.93033093  0.02439048  1
  O2-  O574  1  0.84374056  0.91975029  0.32925553  1
  O2-  O575  1  0.85367910  0.94014192  0.68766102  1
