# generated using pymatgen
data_H2O
_symmetry_space_group_name_H-M   'P 1'
_cell_length_a   18.00057808
_cell_length_b   18.00160466
_cell_length_c   22.01402118
_cell_angle_alpha   90.01950814
_cell_angle_beta   89.98594305
_cell_angle_gamma   120.00489409
_symmetry_Int_Tables_number   1
_chemical_formula_structural   H2O
_chemical_formula_sum   'H384 O192'
_cell_volume   6177.40730386
_cell_formula_units_Z   192
loop_
 _symmetry_equiv_pos_site_id
 _symmetry_equiv_pos_as_xyz
  1  'x, y, z'
loop_
 _atom_type_symbol
 _atom_type_oxidation_number
  H+  1.0
  O2-  -2.0
loop_
 _atom_site_type_symbol
 _atom_site_label
 _atom_site_symmetry_multiplicity
 _atom_site_fract_x
 _atom_site_fract_y
 _atom_site_fract_z
 _atom_site_occupancy
  H+  H0  1  0.64768476  0.32168354  0.26857558  1
  H+  H1  1  0.47414073  0.60610469  0.33521736  1
  H+  H2  1  0.88268171  0.01775548  0.17445991  1
  H+  H3  1  0.99210558  0.09784191  0.33534275  1
  H+  H4  1  0.35878867  0.47777540  0.83088006  1
  H+  H5  1  0.12995488  0.90021747  0.82117960  1
  H+  H6  1  0.35534644  0.13174257  1.00627875  1
  H+  H7  1  0.38322658  0.86780623  0.84725079  1
  H+  H8  1  -0.00057932  0.64157565  0.48260798  1
  H+  H9  1  0.11392206  0.89367024  0.49050717  1
  H+  H10  1  0.61748814  0.88741538  0.49553238  1
  H+  H11  1  0.60068093  0.47741647  0.67071653  1
  H+  H12  1  0.56161443  0.58792363  0.79698442  1
  H+  H13  1  0.26824584  0.13508239  0.16633734  1
  H+  H14  1  0.53778743  0.66247301  0.65967647  1
  H+  H15  1  0.60898783  0.71438343  0.34340245  1
  H+  H16  1  0.12434359  0.50679843  0.67609783  1
  H+  H17  1  0.74346447  0.35484558  0.81835031  1
  H+  H18  1  0.22482824  0.61656149  0.32959627  1
  H+  H19  1  0.02706041  0.64174393  0.16238447  1
  H+  H20  1  0.89482141  0.53748334  0.16936970  1
  H+  H21  1  0.10824371  -0.01998066  0.48337471  1
  H+  H22  1  0.47315992  0.35465264  0.17677787  1
  H+  H23  1  0.11882635  0.64531131  0.83684441  1
  H+  H24  1  0.79348260  0.16846277  0.33626161  1
  H+  H25  1  0.08434960  0.83496435  0.31819131  1
  H+  H26  1  0.86382019  0.38302415  1.00862018  1
  H+  H27  1  -0.04913502  0.86174941  0.66521034  1
  H+  H28  1  0.22468247  0.36651763  0.84539102  1
  H+  H29  1  0.35849254  0.96262968  0.34133378  1
  H+  H30  1  0.38491215  0.51811962  0.33015317  1
  H+  H31  1  0.53182438  0.85660505  0.66298074  1
  H+  H32  1  0.35985516  0.62738624  0.34190434  1
  H+  H33  1  0.13260195  0.59841871  0.67202616  1
  H+  H34  1  0.36147707  0.63419542  0.16433442  1
  H+  H35  1  0.35507800  0.61784530  0.49569347  1
  H+  H36  1  0.22512247  0.09623876  0.64954808  1
  H+  H37  1  0.37894892  0.95598298  0.48433709  1
  H+  H38  1  0.36117749  0.48980571  0.50650311  1
  H+  H39  1  0.77208428  0.89415243  0.50348303  1
  H+  H40  1  0.91596077  0.89340023  0.83779089  1
  H+  H41  1  0.47685151  0.11333318  0.66265273  1
  H+  H42  1  0.08881190  0.36341595  0.67859494  1
  H+  H43  1  0.77294993  0.14006250  0.81562361  1
  H+  H44  1  0.41728944  0.86231288  0.66008288  1
  H+  H45  1  0.86012400  0.73863356  0.49397912  1
  H+  H46  1  0.00272640  0.31866434  0.71574062  1
  H+  H47  1  0.11643539  0.89207996  0.16569714  1
  H+  H48  1  0.40907394  0.07835532  0.60740707  1
  H+  H49  1  0.52451594  0.87897824  0.81609242  1
  H+  H50  1  0.64046071  0.26932930  0.51295581  1
  H+  H51  1  -0.05013230  0.58591048  0.63965687  1
  H+  H52  1  0.67116535  0.06746004  0.35378491  1
  H+  H53  1  0.46492952  0.35599558  0.66111814  1
  H+  H54  1  0.89118652  0.37579557  0.32357572  1
  H+  H55  1  0.35782792  0.22585693  0.82485327  1
  H+  H56  1  0.11604095  0.97957077  0.17696381  1
  H+  H57  1  0.96896520  0.60768483  0.99961265  1
  H+  H58  1  0.11208843  0.22593325  0.83726812  1
  H+  H59  1  0.65837190  0.84499424  0.57229937  1
  H+  H60  1  0.09898967  0.71493391  0.00488627  1
  H+  H61  1  0.13915305  0.35674841  0.17651753  1
  H+  H62  1  0.77926307  0.40560682  0.49551977  1
  H+  H63  1  0.95415252  0.36506517  0.64526078  1
  H+  H64  1  0.84367199  0.37675305  0.82250215  1
  H+  H65  1  0.88095157  0.77727990  0.99385299  1
  H+  H66  1  0.33869372  0.98121514  -0.00046931  1
  H+  H67  1  0.13664541  0.00187916  0.82402142  1
  H+  H68  1  0.52033209  0.29131013  0.44582475  1
  H+  H69  1  0.61963690  0.34901054  0.83415578  1
  H+  H70  1  0.17473317  0.34548917  0.93620112  1
  H+  H71  1  0.08252792  0.87599246  0.67363475  1
  H+  H72  1  0.37161109  0.46495651  0.01123804  1
  H+  H73  1  0.66675460  0.82464931  0.23253668  1
  H+  H74  1  0.88535097  0.03173489  0.49322417  1
  H+  H75  1  0.53954238  0.67688021  0.49131214  1
  H+  H76  1  0.37495933  0.59834398  0.66234138  1
  H+  H77  1  0.26801149  0.37977432  0.34309203  1
  H+  H78  1  0.09563992  -0.03145835  0.66774458  1
  H+  H79  1  0.70090652  0.31607927  0.19256911  1
  H+  H80  1  0.65002842  0.09618369  0.18970751  1
  H+  H81  1  0.59538315  0.20992850  0.82240984  1
  H+  H82  1  0.60638503  0.14626496  0.34330163  1
  H+  H83  1  0.89334178  0.56217145  0.83879262  1
  H+  H84  1  0.33140671  0.89112471  0.99612656  1
  H+  H85  1  1.09103118  0.70907247  0.33043192  1
  H+  H86  1  0.40581912  0.59427973  1.00364326  1
  H+  H87  1  0.27519420  0.38420540  0.00862172  1
  H+  H88  1  0.12984034  0.35636555  0.33742431  1
  H+  H89  1  0.13650566  0.51846071  0.17598698  1
  H+  H90  1  -0.01557607  0.35979780  0.49954519  1
  H+  H91  1  0.88449105  0.87138486  0.50963781  1
  H+  H92  1  0.35000313  0.37264236  0.68068849  1
  H+  H93  1  0.38310884  0.26331036  0.17247737  1
  H+  H94  1  0.39545345  0.02484622  0.16531966  1
  H+  H95  1  0.12453490  0.26952069  0.49299167  1
  H+  H96  1  0.42565370  0.89152257  1.04431865  1
  H+  H97  1  0.02961816  0.38707975  0.33998167  1
  H+  H98  1  0.76646743  0.38458611  0.33631180  1
  H+  H99  1  0.57117326  0.66393561  0.75626396  1
  H+  H100  1  0.51910587  0.38792382  0.82691325  1
  H+  H101  1  0.61146162  0.48042637  0.34179956  1
  H+  H102  1  0.63274565  0.61185973  0.33916032  1
  H+  H103  1  0.63674357  0.01803875  0.83460799  1
  H+  H104  1  0.60654731  0.22108469  0.67207122  1
  H+  H105  1  0.98091769  0.40302947  0.85182293  1
  H+  H106  1  0.46815720  0.11058784  -0.01321535  1
  H+  H107  1  0.88579554  0.86698217  0.17134654  1
  H+  H108  1  0.62952476  0.34935426  0.50539437  1
  H+  H109  1  0.37538252  0.10870637  0.83431483  1
  H+  H110  1  0.23456856  0.85873194  0.18969640  1
  H+  H111  1  0.10917029  0.47223108  0.50074074  1
  H+  H112  1  0.16779342  0.58836808  0.26916755  1
  H+  H113  1  0.22945507  0.62017045  0.85434651  1
  H+  H114  1  0.85573498  -0.03902825  0.34603870  1
  H+  H115  1  0.11999717  0.23792284  0.68483350  1
  H+  H116  1  0.87436943  0.27114354  0.64514507  1
  H+  H117  1  0.35863492  0.36437485  0.16162067  1
  H+  H118  1  0.89100397  0.36585807  0.16702003  1
  H+  H119  1  0.23707875  0.12397379  0.33593937  1
  H+  H120  1  0.46256179  0.84068702  0.32752965  1
  H+  H121  1  0.85797807  0.88649328  0.00518879  1
  H+  H122  1  0.57686608  0.13711661  0.14233117  1
  H+  H123  1  0.32703528  0.41163976  0.77461387  1
  H+  H124  1  0.63824207  0.85921469  0.99441278  1
  H+  H125  1  0.34836523  0.66681721  0.01378907  1
  H+  H126  1  0.77174394  0.88594914  0.15857106  1
  H+  H127  1  0.72755666  0.86119934  0.99161713  1
  H+  H128  1  0.77007497  0.63251523  0.66992168  1
  H+  H129  1  1.00328349  0.87482647  0.34190382  1
  H+  H130  1  0.68074154  0.63067357  0.83922933  1
  H+  H131  1  0.11597075  0.23444264  0.35992678  1
  H+  H132  1  0.61266149  0.47342328  0.82702953  1
  H+  H133  1  0.08935991  0.17481336  0.77375649  1
  H+  H134  1  0.64097578  0.62597457  0.66083109  1
  H+  H135  1  0.97290408  0.86901657  0.50899368  1
  H+  H136  1  0.87161211  0.13841252  0.16364626  1
  H+  H137  1  0.26710898  0.13875895  0.82768593  1
  H+  H138  1  0.74425374  0.37866845  0.67203329  1
  H+  H139  1  0.35332579  0.97230062  0.83254319  1
  H+  H140  1  0.47430108  0.61904668  0.17512016  1
  H+  H141  1  0.64102250  0.78339643  0.51123885  1
  H+  H142  1  0.85999877  0.63410248  0.34269357  1
  H+  H143  1  0.35251229  0.22022264  0.49536484  1
  H+  H144  1  0.13386159  0.77464207  0.66240858  1
  H+  H145  1  0.63606067  0.26690648  0.98436464  1
  H+  H146  1  0.11428125  0.24081669  -0.00387569  1
  H+  H147  1  0.88814101  0.27514630  0.17062360  1
  H+  H148  1  0.35080004  0.92575591  0.08941102  1
  H+  H149  1  0.02725545  0.38576362  0.01247612  1
  H+  H150  1  0.19653943  0.71515501  0.71283305  1
  H+  H151  1  0.33409503  0.16444942  0.43332625  1
  H+  H152  1  0.90417206  0.12683034  0.66398825  1
  H+  H153  1  0.32185623  0.67602625  0.08182735  1
  H+  H154  1  0.13393472  0.60686622  0.17285121  1
  H+  H155  1  0.64090548  0.52193438  -0.01274008  1
  H+  H156  1  0.34981785  0.36904497  0.49235078  1
  H+  H157  1  0.78049420  0.14126822  0.66388157  1
  H+  H158  1  0.38296383  0.35128585  0.99473417  1
  H+  H159  1  0.63461820  0.10827308  0.65475130  1
  H+  H160  1  0.89001107  0.27566497  0.99281344  1
  H+  H161  1  0.89060386  0.63231399  0.49416425  1
  H+  H162  1  0.61917886  0.72419542  0.00412515  1
  H+  H163  1  1.01081113  0.12275643  0.16447607  1
  H+  H164  1  0.76977623  0.65137050  0.49427892  1
  H+  H165  1  0.32985071  0.65654442  0.40153299  1
  H+  H166  1  0.72374588  0.61336864  0.33522742  1
  H+  H167  1  0.26000006  0.63685810  0.69158512  1
  H+  H168  1  0.38875319  0.84453046  0.50604948  1
  H+  H169  1  0.20353857  0.87084732  0.65494417  1
  H+  H170  1  0.03581878  0.14754710  0.68594711  1
  H+  H171  1  0.35290785  0.12786222  0.16157465  1
  H+  H172  1  0.48121712  0.85268773  0.50615081  1
  H+  H173  1  0.84031938  0.88589640  0.67031327  1
  H+  H174  1  0.35778040  0.87330147  0.33790942  1
  H+  H175  1  0.63787635  0.76876358  0.17150998  1
  H+  H176  1  0.02414065  0.62832851  0.83422064  1
  H+  H177  1  0.38190635  0.26181999  0.99376982  1
  H+  H178  1  0.37726897  0.26434762  0.66073144  1
  H+  H179  1  0.39511314  0.89600853  0.14262317  1
  H+  H180  1  0.61290951  0.63448396  0.16382462  1
  H+  H181  1  0.51875665  0.12692419  0.50033649  1
  H+  H182  1  0.85959705  0.13567437  0.00017595  1
  H+  H183  1  0.62458992  0.63698039  0.00387383  1
  H+  H184  1  0.84078572  0.46995763  0.67381867  1
  H+  H185  1  0.10954435  0.14180391  0.45748546  1
  H+  H186  1  0.41629663  0.58899240  0.23445425  1
  H+  H187  1  0.23032180  0.85922921  0.50029110  1
  H+  H188  1  0.21819674  0.11837882  0.48981337  1
  H+  H189  1  0.72826941  0.11674953  0.49566454  1
  H+  H190  1  0.07433700  0.11583487  0.11691553  1
  H+  H191  1  0.11323443  0.47686204  0.01321644  1
  H+  H192  1  0.96799920  0.11460355  0.98141985  1
  H+  H193  1  0.09786907  0.98421400  0.01483803  1
  H+  H194  1  0.63845850  0.52487533  0.19155575  1
  H+  H195  1  0.62483693  0.27544588  0.33316777  1
  H+  H196  1  0.35769422  0.37984730  0.34004423  1
  H+  H197  1  0.11322580  0.63079585  0.33621905  1
  H+  H198  1  0.87228982  0.76503310  0.32649321  1
  H+  H199  1  -0.03439482  0.86919416  0.00158200  1
  H+  H200  1  0.61396860  0.97475764  0.48782316  1
  H+  H201  1  0.35697592  0.12966509  0.67715366  1
  H+  H202  1  0.64118933  0.00443644  0.18565819  1
  H+  H203  1  0.85625384  0.72196384  0.67156617  1
  H+  H204  1  0.63033069  0.55107840  0.50392985  1
  H+  H205  1  0.83698589  0.18003551  0.42554705  1
  H+  H206  1  0.46286036  0.10395209  0.83345394  1
  H+  H207  1  0.71946364  0.84974965  0.32887589  1
  H+  H208  1  0.61384393  0.37142523  0.18127190  1
  H+  H209  1  0.52601074  0.88056729  0.16470730  1
  H+  H210  1  0.85674943  0.97551876  0.00168076  1
  H+  H211  1  0.13549732  0.36730950  0.84771359  1
  H+  H212  1  0.61114112  0.75780904  0.67577920  1
  H+  H213  1  0.36012826  0.54594356  0.60137919  1
  H+  H214  1  0.33856983  0.45587787  0.68083922  1
  H+  H215  1  0.47186137  0.61760274  0.83562755  1
  H+  H216  1  0.87314025  0.60238334  0.65832187  1
  H+  H217  1  0.63723430  0.76716314  0.84223636  1
  H+  H218  1  0.63984040  0.02457468  0.99414921  1
  H+  H219  1  0.39892762  0.98357068  0.68016251  1
  H+  H220  1  0.22194575  0.59818335  0.51420198  1
  H+  H221  1  0.11834598  0.48444351  0.83462819  1
  H+  H222  1  0.53341027  0.89140225  0.01446357  1
  H+  H223  1  0.33662687  1.01457149  0.52947288  1
  H+  H224  1  0.83487433  0.17554396  0.72532721  1
  H+  H225  1  0.78501370  0.59423835  0.82242363  1
  H+  H226  1  0.78426552  0.41330026  0.15274924  1
  H+  H227  1  0.60656584  0.13374190  1.00145420  1
  H+  H228  1  0.49682566  0.60645001  0.99192918  1
  H+  H229  1  0.51592557  0.37535355  -0.01223482  1
  H+  H230  1  0.46393611  0.12137091  0.16892033  1
  H+  H231  1  0.36838746  0.10899759  0.50981648  1
  H+  H232  1  0.17462448  0.09119782  0.24893326  1
  H+  H233  1  0.61022635  0.87330202  0.82167505  1
  H+  H234  1  0.45137241  0.56825366  0.52585845  1
  H+  H235  1  0.19485181  0.85170854  0.99392759  1
  H+  H236  1  0.38511493  0.76767124  0.17244747  1
  H+  H237  1  0.86037288  0.63500729  0.00847073  1
  H+  H238  1  0.97471479  0.86648894  0.17800894  1
  H+  H239  1  0.32567997  0.39719127  0.09898639  1
  H+  H240  1  0.36701825  0.13393133  0.34044435  1
  H+  H241  1  0.63866038  0.35684593  -0.01967687  1
  H+  H242  1  0.36484456  0.71108180  0.49720858  1
  H+  H243  1  0.86241150  0.14012126  0.48189039  1
  H+  H244  1  0.59353175  0.93782737  0.33676400  1
  H+  H245  1  0.90567118  0.08196791  0.92419915  1
  H+  H246  1  0.13793733  0.11346865  0.18991856  1
  H+  H247  1  0.97037573  0.60375329  0.32790763  1
  H+  H248  1  0.15174798  0.12953390  0.34095730  1
  H+  H249  1  0.88319783  1.02888328  0.83276004  1
  H+  H250  1  0.37313921  0.75570258  0.32490689  1
  H+  H251  1  0.66803281  0.59236611  0.24424318  1
  H+  H252  1  0.38450188  0.36332416  0.84228758  1
  H+  H253  1  0.85986338  0.73017470  0.16212545  1
  H+  H254  1  0.11990741  0.60664754  0.99901270  1
  H+  H255  1  0.64186952  0.02325092  0.65200535  1
  H+  H256  1  0.47569671  0.36533976  0.32547104  1
  H+  H257  1  0.10741554  0.73532637  0.47937274  1
  H+  H258  1  0.97361909  0.11667858  0.83679409  1
  H+  H259  1  0.12951124  0.11369392  0.84105687  1
  H+  H260  1  0.88338014  0.25207075  0.33919623  1
  H+  H261  1  0.89019599  0.54092647  0.49244062  1
  H+  H262  1  0.46102272  0.34330343  0.50501662  1
  H+  H263  1  0.62590173  0.83875306  0.32767594  1
  H+  H264  1  0.59608880  0.23517727  0.16004408  1
  H+  H265  1  0.72499953  0.11527202  -0.00955691  1
  H+  H266  1  0.92325679  0.07167447  0.23578934  1
  H+  H267  1  0.12125689  0.77257997  0.83808231  1
  H+  H268  1  0.88940939  0.62344652  0.17308074  1
  H+  H269  1  0.13505656  0.12185997  0.99022747  1
  H+  H270  1  0.59954963  0.12280897  0.82359740  1
  H+  H271  1  0.38307614  0.79581822  1.02033625  1
  H+  H272  1  0.46795506  0.10553493  0.32675998  1
  H+  H273  1  0.73187936  0.61117392  0.99465158  1
  H+  H274  1  0.26077476  0.36336844  0.16306319  1
  H+  H275  1  0.15027520  0.82184422  0.23052895  1
  H+  H276  1  0.87958413  0.51933972  0.99715555  1
  H+  H277  1  0.61057596  0.38985850  0.33453299  1
  H+  H278  1  0.21306530  0.61846177  1.00484290  1
  H+  H279  1  0.88650238  0.26245651  0.49491522  1
  H+  H280  1  0.37249451  0.22713474  0.34161992  1
  H+  H281  1  0.75996581  0.90219751  0.67464852  1
  H+  H282  1  0.78198247  0.13226632  0.16504815  1
  H+  H283  1  0.77213943  0.64031220  0.16625833  1
  H+  H284  1  0.10751984  0.38165168  0.49540310  1
  H+  H285  1  0.41295113  0.82714477  0.23104889  1
  H+  H286  1  0.85420493  0.47471446  0.33595011  1
  H+  H287  1  0.21482783  0.36875902  0.65711042  1
  H+  H288  1  0.33133887  0.68242475  0.77409922  1
  H+  H289  1  0.42493394  0.84686360  0.90455268  1
  H+  H290  1  0.10797030  0.68109568  0.74608627  1
  H+  H291  1  0.93752666  0.45782606  0.87228409  1
  H+  H292  1  0.37354412  0.74425961  0.83900943  1
  H+  H293  1  0.90080505  0.82819078  0.26796603  1
  H+  H294  1  0.57412184  0.41915696  0.73090358  1
  H+  H295  1  0.08960075  0.41222462  0.10608829  1
  H+  H296  1  0.15106465  0.09245610  0.54299469  1
  H+  H297  1  0.56274027  0.38500614  0.42173955  1
  H+  H298  1  0.41274172  0.32677411  0.89838858  1
  H+  H299  1  0.32602987  0.16030440  0.06735300  1
  H+  H300  1  0.21605579  0.35135453  0.50156834  1
  H+  H301  1  0.09592289  0.93430968  0.76002677  1
  H+  H302  1  0.57862787  0.15799003  0.72985670  1
  H+  H303  1  0.60832858  0.43075093  0.13030297  1
  H+  H304  1  0.63245174  0.64333836  0.50625007  1
  H+  H305  1  0.92285455  0.35181784  0.94167263  1
  H+  H306  1  0.15960712  0.08118138  0.90022599  1
  H+  H307  1  0.65296870  0.31847450  0.89203377  1
  H+  H308  1  0.42236482  0.59229679  0.90048678  1
  H+  H309  1  0.57637620  0.39798899  0.04341381  1
  H+  H310  1  0.58748208  0.67192771  0.40977325  1
  H+  H311  1  0.07635423  0.66881447  0.41945554  1
  H+  H312  1  0.40846143  0.07348172  0.26716987  1
  H+  H313  1  0.83794432  0.42487057  0.09350587  1
  H+  H314  1  0.13867640  0.81687035  0.93465084  1
  H+  H315  1  0.77489430  0.89104053  0.82641057  1
  H+  H316  1  0.82937822  0.66546513  0.06724157  1
  H+  H317  1  0.41184364  0.32824642  0.26855983  1
  H+  H318  1  0.90084608  0.83299244  0.60249890  1
  H+  H319  1  0.58742617  0.66271470  0.10159402  1
  H+  H320  1  0.40621863  0.08305284  0.92871220  1
  H+  H321  1  0.06727323  0.18458406  0.05281437  1
  H+  H322  1  0.83463895  0.16534140  0.06186025  1
  H+  H323  1  0.68010606  0.58402803  0.90058082  1
  H+  H324  1  0.03201686  0.75778490  0.27218085  1
  H+  H325  1  0.96914457  0.11775623  0.47299807  1
  H+  H326  1  0.15528880  0.33489408  0.59742972  1
  H+  H327  1  0.86137711  0.14137059  0.81582063  1
  H+  H328  1  0.08256769  0.40942801  0.40202178  1
  H+  H329  1  0.59568191  0.91886212  0.07096094  1
  H+  H330  1  0.83983385  0.62453581  0.76233494  1
  H+  H331  1  0.82724236  0.92277734  0.76439465  1
  H+  H332  1  0.66210673  0.82764919  0.90080015  1
  H+  H333  1  0.89910903  0.03727294  0.66838451  1
  H+  H334  1  0.07595676  0.65963100  0.06736190  1
  H+  H335  1  0.26877941  0.63142442  0.16632804  1
  H+  H336  1  0.16472060  0.58622761  0.91079315  1
  H+  H337  1  0.22082488  0.11566827  -0.00592832  1
  H+  H338  1  0.07791693  0.41570470  0.77952661  1
  H+  H339  1  0.92618726  0.56892016  0.90669558  1
  H+  H340  1  0.12027699  0.72531980  0.15888489  1
  H+  H341  1  0.60860377  0.12910057  0.49351519  1
  H+  H342  1  0.67021624  0.08364066  0.55587125  1
  H+  H343  1  0.83174356  0.66946797  0.40119469  1
  H+  H344  1  0.14591483  0.37340835  -0.00190630  1
  H+  H345  1  0.67183107  0.08118605  0.28092824  1
  H+  H346  1  0.61487669  0.87837436  0.16520115  1
  H+  H347  1  0.98256087  0.01877956  0.30070246  1
  H+  H348  1  0.07085144  0.92962169  0.07651025  1
  H+  H349  1  0.92426389  0.34772614  0.26449613  1
  H+  H350  1  0.94049027  0.86279318  0.89583002  1
  H+  H351  1  0.91310772  0.58447452  0.26784617  1
  H+  H352  1  0.21322938  0.85731707  0.84187153  1
  H+  H353  1  0.19863605  0.02354727  0.60186498  1
  H+  H354  1  0.37529045  0.64809848  0.83513691  1
  H+  H355  1  0.34992816  0.72928942  0.68379150  1
  H+  H356  1  0.33688421  0.91161484  0.77587956  1
  H+  H357  1  0.65202528  0.32933260  0.60253010  1
  H+  H358  1  0.82237242  0.91024360  0.44062461  1
  H+  H359  1  0.16643011  0.56505170  0.57472566  1
  H+  H360  1  0.33485303  0.89795775  0.42627456  1
  H+  H361  1  1.02853934  0.38250140  0.16412994  1
  H+  H362  1  0.45685486  0.96618685  0.72344099  1
  H+  H363  1  0.06934959  0.90017056  0.39705911  1
  H+  H364  1  0.66032878  0.59356293  0.59938584  1
  H+  H365  1  0.91204555  0.32574374  0.55948845  1
  H+  H366  1  0.32421033  0.40227157  0.43116121  1
  H+  H367  1  0.57179034  0.17102827  0.05506888  1
  H+  H368  1  0.16404575  0.82967123  0.55656908  1
  H+  H369  1  0.42636465  0.81742592  0.59905962  1
  H+  H370  1  0.40688752  0.32439823  0.56817712  1
  H+  H371  1  0.82926099  0.42802342  0.43268657  1
  H+  H372  1  0.57500085  0.89647309  0.40347210  1
  H+  H373  1  0.84565631  0.86974116  0.34570839  1
  H+  H374  1  0.61781784  0.35875042  0.66086482  1
  H+  H375  1  0.15940866  0.31935473  0.27992145  1
  H+  H376  1  0.66188911  0.07626353  0.89449276  1
  H+  H377  1  0.32003569  0.15964406  0.73187955  1
  H+  H378  1  0.77241357  0.37929527  0.00254020  1
  H+  H379  1  0.80552403  0.39781779  0.73708612  1
  H+  H380  1  0.13396484  0.26529736  0.17565873  1
  H+  H381  1  0.83051682  0.91977616  0.09836647  1
  H+  H382  1  0.59268820  0.89018405  0.72645493  1
  H+  H383  1  0.57015658  0.16478049  0.40374156  1
  O2-  O384  1  0.07230468  0.15351529  0.14793713  1
  O2-  O385  1  0.08153237  0.17471759  0.44187877  1
  O2-  O386  1  0.08361861  0.16703041  0.82022117  1
  O2-  O387  1  0.09014922  0.41033838  0.15158789  1
  O2-  O388  1  0.07662587  0.41208145  0.48218452  1
  O2-  O389  1  0.08366921  0.42226719  0.82431544  1
  O2-  O390  1  0.08624803  0.66430217  0.14569031  1
  O2-  O391  1  0.07185676  0.67453057  0.46591853  1
  O2-  O392  1  0.08455888  0.66938771  0.81869447  1
  O2-  O393  1  0.08261237  0.92090363  0.15898608  1
  O2-  O394  1  0.07701920  0.91681947  0.47658147  1
  O2-  O395  1  0.13397661  0.95146069  0.79760123  1
  O2-  O396  1  0.32678540  0.16271237  0.14721403  1
  O2-  O397  1  0.32505408  0.15999443  0.47898837  1
  O2-  O398  1  0.32617963  0.16515424  0.81007878  1
  O2-  O399  1  0.32257517  0.39076989  0.14541495  1
  O2-  O400  1  0.31901372  0.39877894  0.47709948  1
  O2-  O401  1  0.33019607  0.41631287  0.82045427  1
  O2-  O402  1  0.32868601  0.66361419  0.14908070  1
  O2-  O403  1  0.32905791  0.65181868  0.48112148  1
  O2-  O404  1  0.34439657  0.68232299  0.82159210  1
  O2-  O405  1  0.40173690  0.94361957  0.11570183  1
  O2-  O406  1  0.33699421  0.89679092  0.47390093  1
  O2-  O407  1  0.32720033  0.90970229  0.82024588  1
  O2-  O408  1  0.55724218  0.17698474  0.13204389  1
  O2-  O409  1  0.57630709  0.15986972  0.48258576  1
  O2-  O410  1  0.56650486  0.14934554  0.80665303  1
  O2-  O411  1  0.58676994  0.40946871  0.17081314  1
  O2-  O412  1  0.54640502  0.35013109  0.46087168  1
  O2-  O413  1  0.57851767  0.41486308  0.80956401  1
  O2-  O414  1  0.58466019  0.66546728  0.14652581  1
  O2-  O415  1  0.59891852  0.69482987  0.48172901  1
  O2-  O416  1  0.56390742  0.64320155  0.79986893  1
  O2-  O417  1  0.58776359  0.91308179  0.15167681  1
  O2-  O418  1  0.58329119  0.91274059  0.47622030  1
  O2-  O419  1  0.58229198  0.90142995  0.79843573  1
  O2-  O420  1  0.83990229  0.16636989  0.14723644  1
  O2-  O421  1  0.83126657  0.17319679  0.47162145  1
  O2-  O422  1  0.83128854  0.17034133  0.79840574  1
  O2-  O423  1  0.84270804  0.43168698  0.13949021  1
  O2-  O424  1  0.83569845  0.44215227  0.47665842  1
  O2-  O425  1  0.80067807  0.38263357  0.79784259  1
  O2-  O426  1  0.83081384  0.66911308  0.14798961  1
  O2-  O427  1  0.82945587  0.67818662  0.47800632  1
  O2-  O428  1  0.83550577  0.59803585  0.80234291  1
  O2-  O429  1  0.83255816  0.91950547  0.14403846  1
  O2-  O430  1  0.83088766  0.91998188  0.48530826  1
  O2-  O431  1  0.83315435  0.92604090  0.80977817  1
  O2-  O432  1  0.17091866  0.08588898  0.20249258  1
  O2-  O433  1  0.15504604  0.09199908  0.49837249  1
  O2-  O434  1  0.16156539  0.08307942  0.85449274  1
  O2-  O435  1  0.16946638  0.32499624  0.19016055  1
  O2-  O436  1  0.15527372  0.32370117  0.51627018  1
  O2-  O437  1  0.16552937  0.33688945  0.86295297  1
  O2-  O438  1  0.16672916  0.57979567  0.18886221  1
  O2-  O439  1  0.16261164  0.56500498  0.53015455  1
  O2-  O440  1  0.16831053  0.58894667  0.86473869  1
  O2-  O441  1  0.17239839  0.83175092  0.18730648  1
  O2-  O442  1  0.16901060  0.83663815  0.51189644  1
  O2-  O443  1  0.15162975  0.83443032  0.85127690  1
  O2-  O444  1  0.40661482  0.07821936  0.18654232  1
  O2-  O445  1  0.38888754  0.07068107  0.52882513  1
  O2-  O446  1  0.40269645  0.07550039  0.84977507  1
  O2-  O447  1  0.41056079  0.32501443  0.18678908  1
  O2-  O448  1  0.40263632  0.32109365  0.52251105  1
  O2-  O449  1  0.41510394  0.33164807  0.85310325  1
  O2-  O450  1  0.41422594  0.59211311  0.18947050  1
  O2-  O451  1  0.39014905  0.54868683  0.52736547  1
  O2-  O452  1  0.41443657  0.59668703  0.85578842  1
  O2-  O453  1  0.41850738  0.82923496  0.18564882  1
  O2-  O454  1  0.42191975  0.81885250  0.52381679  1
  O2-  O455  1  0.41658431  0.83835165  0.86040013  1
  O2-  O456  1  0.67625145  0.06394397  0.20492153  1
  O2-  O457  1  0.66705593  0.08331552  0.51063535  1
  O2-  O458  1  0.65930348  0.07726876  0.84916483  1
  O2-  O459  1  0.64316879  0.30756940  0.19452321  1
  O2-  O460  1  0.66517996  0.32966707  0.52683605  1
  O2-  O461  1  0.64425185  0.31253110  0.84690405  1
  O2-  O462  1  0.66756108  0.58753756  0.19853682  1
  O2-  O463  1  0.66212054  0.60764558  0.52257506  1
  O2-  O464  1  0.67970068  0.57947388  0.85477899  1
  O2-  O465  1  0.66801780  0.82941862  0.18705230  1
  O2-  O466  1  0.66742585  0.84606144  0.52773133  1
  O2-  O467  1  0.65955759  0.82677174  0.85486675  1
  O2-  O468  1  0.91644709  0.07791120  0.19148078  1
  O2-  O469  1  0.91557978  0.09542152  0.49624951  1
  O2-  O470  1  0.91194758  0.08919014  0.84901118  1
  O2-  O471  1  0.92029461  0.33636003  0.18403484  1
  O2-  O472  1  0.91989252  0.32492604  0.51202779  1
  O2-  O473  1  0.92905884  0.39847281  0.87154054  1
  O2-  O474  1  0.92222938  0.59550387  0.18827539  1
  O2-  O475  1  0.92586360  0.60476517  0.50322054  1
  O2-  O476  1  0.93593869  0.55533942  0.86430153  1
  O2-  O477  1  0.91251063  0.83495836  0.18952133  1
  O2-  O478  1  0.91287205  0.83871206  0.52463594  1
  O2-  O479  1  0.96021291  0.88196414  0.85399669  1
  O2-  O480  1  0.17778191  0.09993915  0.31987511  1
  O2-  O481  1  0.17526926  0.05415154  0.62408414  1
  O2-  O482  1  0.16151810  0.08773830  0.97696256  1
  O2-  O483  1  0.16162062  0.32297172  0.32464812  1
  O2-  O484  1  0.15522918  0.34309988  0.64210914  1
  O2-  O485  1  0.17749041  0.34442420  0.98225054  1
  O2-  O486  1  0.16582522  0.59454702  0.31375619  1
  O2-  O487  1  0.16085555  0.56505984  0.66058216  1
  O2-  O488  1  0.15652036  0.58075041  0.98558749  1
  O2-  O489  1  0.08895211  0.79019741  0.29033705  1
  O2-  O490  1  0.14599894  0.82896055  0.64119370  1
  O2-  O491  1  0.13814744  0.80720618  0.97873222  1
  O2-  O492  1  0.40723601  0.07265458  0.31250617  1
  O2-  O493  1  0.41386491  0.07720205  0.65245412  1
  O2-  O494  1  0.40656354  0.08300192  0.97414184  1
  O2-  O495  1  0.41356853  0.33000926  0.31367060  1
  O2-  O496  1  0.40470161  0.32463034  0.64534623  1
  O2-  O497  1  0.41242501  0.32207521  0.97672038  1
  O2-  O498  1  0.41561902  0.57913858  0.31662957  1
  O2-  O499  1  0.34184499  0.54151750  0.64472814  1
  O2-  O500  1  0.43395570  0.57209898  0.97753552  1
  O2-  O501  1  0.40479014  0.81652355  0.30904336  1
  O2-  O502  1  0.43228604  0.81890957  0.64512515  1
  O2-  O503  1  0.42177835  0.85713033  1.00794011  1
  O2-  O504  1  0.67334412  0.10613685  0.32198888  1
  O2-  O505  1  0.66690434  0.08185832  0.63635718  1
  O2-  O506  1  0.66407234  0.08297383  0.97607135  1
  O2-  O507  1  0.65629088  0.33329820  0.31393197  1
  O2-  O508  1  0.64834851  0.32742433  0.64820240  1
  O2-  O509  1  0.67060307  0.32728471  0.96846942  1
  O2-  O510  1  0.66308130  0.58302471  0.32017394  1
  O2-  O511  1  0.66054058  0.58747082  0.64486016  1
  O2-  O512  1  0.67228778  0.58342487  0.97566351  1
  O2-  O513  1  0.66111450  0.81577321  0.30986016  1
  O2-  O514  1  0.64594762  0.85268852  0.65576521  1
  O2-  O515  1  0.66601266  0.82784491  0.97692659  1
  O2-  O516  1  0.95185561  0.04976601  0.30855907  1
  O2-  O517  1  0.93801256  0.09794301  0.65773302  1
  O2-  O518  1  0.90646707  0.08164967  0.97023746  1
  O2-  O519  1  0.92703675  0.35085312  0.30957232  1
  O2-  O520  1  0.89960701  0.32878284  0.62436810  1
  O2-  O521  1  0.92289815  0.33910201  0.98601745  1
  O2-  O522  1  0.90979872  0.58084916  0.31311054  1
  O2-  O523  1  0.88810757  0.55797779  0.64500842  1
  O2-  O524  1  0.90898897  0.57990390  0.98254371  1
  O2-  O525  1  0.89846313  0.82656690  0.31342793  1
  O2-  O526  1  0.89240706  0.82858144  0.64768431  1
  O2-  O527  1  0.90729111  0.83814605  0.98155151  1
  O2-  O528  1  0.07760695  0.17923187  0.00985770  1
  O2-  O529  1  0.08738161  0.17150817  0.37525211  1
  O2-  O530  1  0.09570519  0.18065760  0.70319707  1
  O2-  O531  1  0.08812832  0.41609871  0.02737286  1
  O2-  O532  1  0.08645718  0.40301818  0.35754891  1
  O2-  O533  1  0.04784926  0.37546013  0.70263006  1
  O2-  O534  1  0.07034924  0.65382518  0.02218123  1
  O2-  O535  1  0.07354269  0.65391624  0.35174427  1
  O2-  O536  1  0.13564089  0.69370422  0.70420022  1
  O2-  O537  1  0.05981296  0.92709474  0.03250343  1
  O2-  O538  1  0.06406692  0.89427975  0.35218325  1
  O2-  O539  1  0.06154020  0.91336766  0.69037694  1
  O2-  O540  1  0.32614943  0.16298060  0.02196562  1
  O2-  O541  1  0.34291242  0.16810820  0.35950736  1
  O2-  O542  1  0.32206439  0.15719398  0.68638034  1
  O2-  O543  1  0.33433874  0.40593807  0.02711824  1
  O2-  O544  1  0.32938997  0.41098316  0.35702712  1
  O2-  O545  1  0.31753474  0.39831798  0.69959345  1
  O2-  O546  1  0.31755532  0.68935195  0.03632179  1
  O2-  O547  1  0.33004702  0.65865800  0.35623982  1
  O2-  O548  1  0.30592337  0.68872136  0.71322714  1
  O2-  O549  1  0.30376793  0.92073170  0.01472941  1
  O2-  O550  1  0.33072979  0.90355280  0.35809971  1
  O2-  O551  1  0.40142317  0.93580113  0.70276530  1
  O2-  O552  1  0.57507241  0.16532824  0.00999237  1
  O2-  O553  1  0.56971763  0.16905730  0.35850455  1
  O2-  O554  1  0.57988143  0.15934055  0.68409564  1
  O2-  O555  1  0.57891328  0.40714351  -0.00025692  1
  O2-  O556  1  0.57798759  0.41726567  0.35170011  1
  O2-  O557  1  0.57063365  0.41690200  0.68546541  1
  O2-  O558  1  0.59004248  0.66315822  0.01886679  1
  O2-  O559  1  0.57913697  0.65764181  0.36432754  1
  O2-  O560  1  0.58827963  0.69325582  0.68533430  1
  O2-  O561  1  0.59513145  0.91913777  0.02550180  1
  O2-  O562  1  0.56703941  0.88320544  0.35808061  1
  O2-  O563  1  0.59430518  0.89226511  0.67925019  1
  O2-  O564  1  0.83183386  0.16798098  0.01695080  1
  O2-  O565  1  0.85090799  0.19108882  0.35382433  1
  O2-  O566  1  0.83948145  0.17823198  0.67912354  1
  O2-  O567  1  0.83089634  0.41233170  0.02090649  1
  O2-  O568  1  0.82692770  0.41434706  0.35112887  1
  O2-  O569  1  0.80546060  0.40704458  0.68837976  1
  O2-  O570  1  0.82812635  0.66426467  0.02195074  1
  O2-  O571  1  0.82956717  0.66524880  0.35568616  1
  O2-  O572  1  0.83095862  0.66037135  0.68325580  1
  O2-  O573  1  0.82640757  0.91703329  0.02004168  1
  O2-  O574  1  0.81744948  0.90226203  0.36148857  1
  O2-  O575  1  0.82009419  0.92374992  0.68792495  1
