# generated using pymatgen
data_H2O
_symmetry_space_group_name_H-M   'P 1'
_cell_length_a   17.99192881
_cell_length_b   17.98748550
_cell_length_c   22.01374729
_cell_angle_alpha   89.96065557
_cell_angle_beta   90.00201399
_cell_angle_gamma   120.00119259
_symmetry_Int_Tables_number   1
_chemical_formula_structural   H2O
_chemical_formula_sum   'H384 O192'
_cell_volume   6169.74820014
_cell_formula_units_Z   192
loop_
 _symmetry_equiv_pos_site_id
 _symmetry_equiv_pos_as_xyz
  1  'x, y, z'
loop_
 _atom_type_symbol
 _atom_type_oxidation_number
  H+  1.0
  O2-  -2.0
loop_
 _atom_site_type_symbol
 _atom_site_label
 _atom_site_symmetry_multiplicity
 _atom_site_fract_x
 _atom_site_fract_y
 _atom_site_fract_z
 _atom_site_occupancy
  H+  H0  1  0.53585556  0.63980344  0.48800901  1
  H+  H1  1  0.88713645  0.87017992  0.83872947  1
  H+  H2  1  0.86056015  0.88914267  0.34993091  1
  H+  H3  1  0.87786187  0.26367124  0.17724054  1
  H+  H4  1  0.10519421  0.47691496  1.01513326  1
  H+  H5  1  0.58465200  0.67862047  1.06416726  1
  H+  H6  1  0.52382269  0.63283251  0.00532324  1
  H+  H7  1  0.63309505  0.27857998  0.51824051  1
  H+  H8  1  0.85247219  0.72927136  0.01557516  1
  H+  H9  1  0.01837330  0.61164955  0.49400563  1
  H+  H10  1  0.75536241  0.37117629  0.16584696  1
  H+  H11  1  1.01760354  0.89115502  0.16341884  1
  H+  H12  1  0.11234627  0.13683582  0.17696545  1
  H+  H13  1  0.11201091  0.62109943  0.34443101  1
  H+  H14  1  0.05463859  0.66711434  0.17511714  1
  H+  H15  1  0.35231563  0.45679586  1.01047917  1
  H+  H16  1  0.13380641  0.52046225  0.18093976  1
  H+  H17  1  0.63073641  0.88116842  0.49573512  1
  H+  H18  1  0.86284056  0.89851033  0.68096934  1
  H+  H19  1  0.70567171  0.34517617  0.67236409  1
  H+  H20  1  0.03928181  0.89518954  0.69014629  1
  H+  H21  1  0.63004029  0.36257720  0.32742921  1
  H+  H22  1  0.37884348  0.61356093  0.33672514  1
  H+  H23  1  0.27158047  0.64169201  0.67762198  1
  H+  H24  1  0.33251939  0.41658706  0.77750428  1
  H+  H25  1  0.85603539  0.35708398  0.83903705  1
  H+  H26  1  0.27101993  0.38910963  0.84148121  1
  H+  H27  1  0.11533121  0.13820886  0.82456741  1
  H+  H28  1  0.38405106  0.73542960  0.98079200  1
  H+  H29  1  0.66924539  0.83377036  0.60077643  1
  H+  H30  1  0.46545948  0.11110464  0.16577987  1
  H+  H31  1  0.12750888  0.35590719  0.18802876  1
  H+  H32  1  0.01630813  0.37970945  0.17148560  1
  H+  H33  1  0.59755929  0.22009875  0.67748924  1
  H+  H34  1  0.60310846  0.12797039  0.15780788  1
  H+  H35  1  0.38375190  0.88533448  0.82661062  1
  H+  H36  1  0.39067671  0.61539008  0.83923077  1
  H+  H37  1  0.10597093  0.98189674  0.15940100  1
  H+  H38  1  0.62845212  0.04237996  0.99932612  1
  H+  H39  1  0.51517389  0.13728384  0.33226717  1
  H+  H40  1  0.51117205  0.88653764  0.19959359  1
  H+  H41  1  0.88326898  0.60769934  0.31687668  1
  H+  H42  1  0.36217586  0.89609947  0.49101447  1
  H+  H43  1  0.34940199  0.22561297  0.13638027  1
  H+  H44  1  0.88280905  0.52888092  0.65745799  1
  H+  H45  1  0.88862547  0.65636060  0.94153519  1
  H+  H46  1  0.77090324  0.11907420  0.16551163  1
  H+  H47  1  0.52204402  0.64276105  0.68060950  1
  H+  H48  1  0.47128735  0.35744969  0.66796656  1
  H+  H49  1  0.97273974  0.35715444  0.48622380  1
  H+  H50  1  0.83536209  0.63629334  0.16976775  1
  H+  H51  1  0.11182438  0.22342925  0.48031681  1
  H+  H52  1  0.14734756  0.53119440  0.66764653  1
  H+  H53  1  0.14391361  0.25715895  0.33066250  1
  H+  H54  1  0.84587895  0.61731229  -0.05188604  1
  H+  H55  1  0.52517064  0.22770225  0.45499431  1
  H+  H56  1  0.80966979  0.36388241  0.75026122  1
  H+  H57  1  0.62190266  0.89455271  0.82836333  1
  H+  H58  1  0.33094343  0.66949177  0.77620657  1
  H+  H59  1  0.36241447  0.73004614  0.68054948  1
  H+  H60  1  0.22922555  0.58788930  1.01428239  1
  H+  H61  1  0.94776593  0.56465389  0.93503718  1
  H+  H62  1  0.40575590  0.07549002  0.60512240  1
  H+  H63  1  0.11417810  0.38008604  0.84117734  1
  H+  H64  1  0.52107327  0.41437332  0.16016465  1
  H+  H65  1  0.63601588  0.15737305  0.99996304  1
  H+  H66  1  0.62656343  0.60477256  -0.00811940  1
  H+  H67  1  0.60638116  0.47581497  -0.00121332  1
  H+  H68  1  0.09098003  0.84028611  0.86009018  1
  H+  H69  1  0.88819239  0.78047742  0.83872802  1
  H+  H70  1  0.27198919  0.65864867  0.18926620  1
  H+  H71  1  0.13748028  0.77447164  0.65955352  1
  H+  H72  1  0.62151746  0.48252858  0.34170800  1
  H+  H73  1  1.04659217  0.40642033  0.69324722  1
  H+  H74  1  0.34567384  0.91657005  0.76363650  1
  H+  H75  1  0.62223607  0.54803366  0.16655000  1
  H+  H76  1  -0.00364748  0.32119212  -0.03120677  1
  H+  H77  1  0.21552118  0.10726227  0.51207511  1
  H+  H78  1  0.18008451  0.09503429  0.89680170  1
  H+  H79  1  0.39211581  0.51765595  0.46534908  1
  H+  H80  1  0.10252196  0.72204279  0.83742877  1
  H+  H81  1  0.24912877  0.14091218  -0.02376663  1
  H+  H82  1  0.11253801  0.13918511  1.01198626  1
  H+  H83  1  0.14259449  1.02696554  0.66852059  1
  H+  H84  1  0.62868212  0.93753159  0.04909830  1
  H+  H85  1  0.01950416  0.88412011  0.47945691  1
  H+  H86  1  0.54010989  0.04954816  0.12029314  1
  H+  H87  1  0.13860076  0.61267223  0.18005944  1
  H+  H88  1  0.38693935  0.39678918  0.18750824  1
  H+  H89  1  0.14202036  0.60904357  0.85494925  1
  H+  H90  1  0.56773602  0.93275500  0.09966319  1
  H+  H91  1  0.11001050  0.23275596  0.18234325  1
  H+  H92  1  0.62419604  0.60901926  0.66712004  1
  H+  H93  1  -0.02386480  0.61200744  0.65506829  1
  H+  H94  1  0.89662708  0.57479415  0.22976593  1
  H+  H95  1  0.07908398  0.63770911  0.43622955  1
  H+  H96  1  0.35073717  0.70156291  0.49912089  1
  H+  H97  1  0.36777755  0.13649207  0.99585540  1
  H+  H98  1  0.77605326  0.28224842  0.70858529  1
  H+  H99  1  0.11547500  0.89395186  0.33248418  1
  H+  H100  1  0.59157610  0.47524995  0.83811615  1
  H+  H101  1  0.23133947  0.37556042  0.45126701  1
  H+  H102  1  0.86789489  0.93186955  0.53673738  1
  H+  H103  1  0.72948530  0.34591454  0.84702432  1
  H+  H104  1  0.59790583  0.90683759  0.43600770  1
  H+  H105  1  0.12375263  0.25836801  0.00210456  1
  H+  H106  1  0.76421565  0.13012405  0.48916018  1
  H+  H107  1  0.59400340  0.22873228  0.99765762  1
  H+  H108  1  0.84042088  0.45955323  0.17097239  1
  H+  H109  1  0.14211773  0.87463534  0.50411465  1
  H+  H110  1  0.07631114  0.15324045  0.39718222  1
  H+  H111  1  0.35910066  0.61982599  0.48616346  1
  H+  H112  1  0.49626150  0.91208699  0.99725914  1
  H+  H113  1  0.38336915  0.35836892  0.66759231  1
  H+  H114  1  0.80868810  0.67300601  0.62797583  1
  H+  H115  1  0.61392660  0.72870569  0.82709670  1
  H+  H116  1  0.64081231  -0.02413629  0.23834400  1
  H+  H117  1  0.12599120  0.89060212  0.68449051  1
  H+  H118  1  0.89740665  0.36870935  0.67850754  1
  H+  H119  1  0.89908405  0.25021134  0.68331825  1
  H+  H120  1  0.39454605  0.31580222  0.20918578  1
  H+  H121  1  0.97209477  0.11228956  0.33116061  1
  H+  H122  1  0.10487972  0.12324177  0.33655929  1
  H+  H123  1  0.85291141  0.22010105  0.48002653  1
  H+  H124  1  0.44633876  0.88213320  0.93355107  1
  H+  H125  1  0.97412038  0.86316384  0.32854151  1
  H+  H126  1  0.29513911  0.51756263  0.04853221  1
  H+  H127  1  0.34529726  0.48485727  0.38229048  1
  H+  H128  1  0.88242764  0.59472341  0.83633851  1
  H+  H129  1  0.48049476  0.10736211  0.83773630  1
  H+  H130  1  0.11146281  0.13628469  0.67549169  1
  H+  H131  1  0.89145448  1.00731140  0.00466673  1
  H+  H132  1  0.34401365  0.60510537  0.08276115  1
  H+  H133  1  0.86244640  0.12825934  0.16946737  1
  H+  H134  1  0.10440529  0.97563870  0.49169606  1
  H+  H135  1  0.83311326  0.15754087  0.06839602  1
  H+  H136  1  0.77819648  0.86458985  1.00297890  1
  H+  H137  1  0.88016861  0.51675816  0.31326960  1
  H+  H138  1  0.64147922  0.61731918  0.84051127  1
  H+  H139  1  0.27944761  0.63880669  0.83928293  1
  H+  H140  1  0.41559132  0.32828065  0.57342544  1
  H+  H141  1  0.90141756  0.79057586  0.66602953  1
  H+  H142  1  0.36204850  0.22468462  0.67984189  1
  H+  H143  1  0.10518164  0.46616931  0.49518069  1
  H+  H144  1  0.52668592  0.38754735  0.49682687  1
  H+  H145  1  0.87891173  0.85926471  0.48964879  1
  H+  H146  1  0.87357440  0.35111688  0.17790548  1
  H+  H147  1  0.34487052  0.39993528  0.39896686  1
  H+  H148  1  0.60995449  0.28789176  0.17197454  1
  H+  H149  1  0.63890092  0.75801315  0.98855827  1
  H+  H150  1  0.36937175  0.20997255  0.84041737  1
  H+  H151  1  0.25256040  0.38166446  1.01711922  1
  H+  H152  1  0.36253063  -0.02546412  0.67813955  1
  H+  H153  1  0.82745290  0.65435966  0.38580793  1
  H+  H154  1  0.64976046  0.03246905  0.84025666  1
  H+  H155  1  0.76794207  0.62709070  0.48511900  1
  H+  H156  1  0.91530607  0.22854610  0.97600114  1
  H+  H157  1  0.35404422  0.21550256  0.50051749  1
  H+  H158  1  0.85437952  0.71503158  0.47053020  1
  H+  H159  1  0.26640304  0.90048916  0.15480088  1
  H+  H160  1  1.01995639  0.88121246  1.00409046  1
  H+  H161  1  1.01998210  0.12891402  1.01684763  1
  H+  H162  1  -0.03312991  0.59026350  0.82603521  1
  H+  H163  1  0.48031406  0.61334421  0.83495660  1
  H+  H164  1  0.64748334  0.85255284  0.30773171  1
  H+  H165  1  0.63638653  0.01255169  0.49944058  1
  H+  H166  1  0.59646095  0.46661736  0.68436171  1
  H+  H167  1  0.36268519  0.47669362  0.69151111  1
  H+  H168  1  0.23752577  0.10545401  0.83361040  1
  H+  H169  1  0.38166402  0.12243050  0.16295436  1
  H+  H170  1  0.62565147  0.27037250  0.32139875  1
  H+  H171  1  0.34652226  0.26982513  0.35185655  1
  H+  H172  1  0.11380670  0.87779213  0.01761249  1
  H+  H173  1  0.63236205  0.25196229  0.83386483  1
  H+  H174  1  0.37756066  0.97773343  0.82793665  1
  H+  H175  1  0.89172453  0.12514304  0.83829499  1
  H+  H176  1  0.36056788  -0.00522488  0.15695261  1
  H+  H177  1  0.86318744  0.38951686  0.46340844  1
  H+  H178  1  0.14551960  0.27456865  0.84470775  1
  H+  H179  1  0.14323261  0.37239335  0.68289108  1
  H+  H180  1  0.42892969  0.39211981  0.28371021  1
  H+  H181  1  0.56220848  0.17698428  0.42223943  1
  H+  H182  1  0.40055938  0.75005714  0.01246964  1
  H+  H183  1  0.77397486  0.63530525  0.82955385  1
  H+  H184  1  0.73862706  0.91445999  0.33494255  1
  H+  H185  1  0.39822903  0.78031419  0.84299074  1
  H+  H186  1  0.88529563  0.09245405  1.00428430  1
  H+  H187  1  0.61848564  0.10046452  0.65905017  1
  H+  H188  1  0.88473113  0.01891585  0.18574310  1
  H+  H189  1  0.21879855  0.11430714  0.16849438  1
  H+  H190  1  0.91278406  0.52080584  -0.00089696  1
  H+  H191  1  0.36715380  0.88628566  0.67857727  1
  H+  H192  1  0.10453327  0.43024774  0.75214037  1
  H+  H193  1  0.85489620  0.35390596  0.32385059  1
  H+  H194  1  0.13211695  1.01748446  0.32282923  1
  H+  H195  1  0.86439063  0.33640201  1.00135198  1
  H+  H196  1  0.49036608  0.93791643  0.53853354  1
  H+  H197  1  0.90070330  0.86341449  -0.00552481  1
  H+  H198  1  0.39007059  0.58732018  0.99391398  1
  H+  H199  1  0.52088577  0.62813281  0.34569205  1
  H+  H200  1  0.59906360  0.37886096  0.68650249  1
  H+  H201  1  0.73476082  0.12686494  0.84444155  1
  H+  H202  1  0.47207710  0.64318684  0.15310543  1
  H+  H203  1  -0.02431898  0.11803867  0.83461246  1
  H+  H204  1  0.61214370  0.67067989  0.16481189  1
  H+  H205  1  0.22809996  0.86083155  0.66634205  1
  H+  H206  1  0.12289579  0.34744781  0.99829809  1
  H+  H207  1  0.71662171  0.61416930  0.99728593  1
  H+  H208  1  0.27657162  0.89235856  0.01014017  1
  H+  H209  1  0.63699238  0.52139022  0.51138071  1
  H+  H210  1  0.28150586  0.64541023  0.33480507  1
  H+  H211  1  0.37733841  0.91515215  0.00449571  1
  H+  H212  1  0.60176842  0.13131941  0.33772880  1
  H+  H213  1  0.78176856  0.41043937  0.01253270  1
  H+  H214  1  0.63868877  0.36815060  0.51957586  1
  H+  H215  1  0.37786344  0.10632048  0.66537875  1
  H+  H216  1  0.15249494  0.79373445  0.16678151  1
  H+  H217  1  0.71111300  0.63415531  0.17570235  1
  H+  H218  1  0.60757886  0.41208424  0.15717654  1
  H+  H219  1  0.62340289  0.63911113  0.49530104  1
  H+  H220  1  0.37887048  0.61697195  0.68165247  1
  H+  H221  1  0.11083057  0.63287774  0.66711574  1
  H+  H222  1  0.87591828  0.15308770  0.68502395  1
  H+  H223  1  0.62653137  0.09563085  0.49502987  1
  H+  H224  1  0.35807938  0.14444420  0.34319840  1
  H+  H225  1  0.86022139  0.45061590  0.83517414  1
  H+  H226  1  0.87944355  0.60485766  0.49449873  1
  H+  H227  1  0.67063414  0.82954730  0.89381666  1
  H+  H228  1  0.39072769  0.03461759  0.99680794  1
  H+  H229  1  0.77614760  0.13402472  0.00813115  1
  H+  H230  1  0.13986958  0.87760626  0.16407805  1
  H+  H231  1  1.02314325  0.61989332  0.34008553  1
  H+  H232  1  0.86344276  0.98180705  0.82814065  1
  H+  H233  1  0.04407560  0.63008865  0.01278341  1
  H+  H234  1  0.88801269  0.02990573  0.50320125  1
  H+  H235  1  0.47855549  0.86249191  0.67083696  1
  H+  H236  1  0.27196098  0.13714409  0.68067464  1
  H+  H237  1  0.92313793  0.58979392  0.15733661  1
  H+  H238  1  0.70576210  0.59882287  0.67615427  1
  H+  H239  1  0.14475353  0.38990240  0.34316984  1
  H+  H240  1  0.38354273  0.03130425  0.32533778  1
  H+  H241  1  0.37534949  0.01794012  0.50694483  1
  H+  H242  1  0.38681528  0.35417808  0.51271422  1
  H+  H243  1  0.26785949  0.39599480  0.17513577  1
  H+  H244  1  0.48016690  0.85915910  0.50737141  1
  H+  H245  1  0.56802919  0.41713444  0.05763233  1
  H+  H246  1  0.12771312  0.10895906  0.51115706  1
  H+  H247  1  0.51059984  0.12855699  0.67866875  1
  H+  H248  1  0.34820799  0.12396361  0.50078685  1
  H+  H249  1  0.45940099  0.11181370  0.50638600  1
  H+  H250  1  0.86032651  0.47641238  0.47118914  1
  H+  H251  1  0.88365293  0.02322421  0.33686259  1
  H+  H252  1  0.15908742  0.52334372  0.33179407  1
  H+  H253  1  0.85187200  0.13116926  0.33740165  1
  H+  H254  1  0.27446355  0.38676414  0.69017773  1
  H+  H255  1  0.66423653  0.09019103  0.93359229  1
  H+  H256  1  0.64061509  0.96677969  0.34691844  1
  H+  H257  1  0.58170886  0.16281252  0.76549129  1
  H+  H258  1  0.47083492  0.35892109  -0.03106203  1
  H+  H259  1  0.60937574  0.88356118  0.67476165  1
  H+  H260  1  1.01903604  0.13900973  0.49164791  1
  H+  H261  1  0.72281146  0.86464297  0.66250711  1
  H+  H262  1  0.38819184  0.10114849  0.83714577  1
  H+  H263  1  0.63322062  0.61045573  0.32840136  1
  H+  H264  1  0.32230855  0.42341998  0.11442407  1
  H+  H265  1  0.61810827  0.13525399  0.82531446  1
  H+  H266  1  0.61348774  0.72992881  0.67264682  1
  H+  H267  1  0.97347823  0.11463000  0.66162321  1
  H+  H268  1  0.24335303  0.32461962  0.32308848  1
  H+  H269  1  0.60501385  -0.02866472  0.67352248  1
  H+  H270  1  0.48963419  0.34527757  0.86770232  1
  H+  H271  1  0.71249410  0.10552518  0.32965320  1
  H+  H272  1  0.88266114  0.34234886  0.03294530  1
  H+  H273  1  0.11136138  0.22561085  0.67866747  1
  H+  H274  1  0.77090171  0.63313412  0.32648708  1
  H+  H275  1  0.14150297  0.77135737  0.01225553  1
  H+  H276  1  0.27066073  0.89334015  0.49069729  1
  H+  H277  1  0.37957344  0.78720176  0.21501834  1
  H+  H278  1  0.22059032  0.10898668  0.32694520  1
  H+  H279  1  0.76075814  0.37846096  0.32504599  1
  H+  H280  1  0.21387727  0.59058215  0.50780802  1
  H+  H281  1  0.10788167  0.37933393  0.48428345  1
  H+  H282  1  0.74049392  0.86424054  0.15757030  1
  H+  H283  1  0.37021786  0.89979954  0.33183530  1
  H+  H284  1  0.88465510  0.77269494  0.32570264  1
  H+  H285  1  0.59138112  0.34523345  0.98059031  1
  H+  H286  1  0.36696342  0.48776680  0.83585559  1
  H+  H287  1  0.01514001  0.13222107  0.18239169  1
  H+  H288  1  0.32440615  0.16160452  0.08274879  1
  H+  H289  1  0.33834913  0.16729427  0.77234338  1
  H+  H290  1  0.91635707  0.84143456  0.24129776  1
  H+  H291  1  0.72999045  0.86587583  0.83541499  1
  H+  H292  1  0.59868781  0.81564990  0.17221972  1
  H+  H293  1  0.38607442  0.55131250  0.16160068  1
  H+  H294  1  0.00818148  0.41219862  0.03117695  1
  H+  H295  1  0.82629987  0.89026637  0.06651962  1
  H+  H296  1  0.58604286  0.66901832  0.76837937  1
  H+  H297  1  0.64312813  0.31595306  0.89499138  1
  H+  H298  1  0.81750463  0.15570225  0.39678235  1
  H+  H299  1  0.17380759  0.72160147  0.79767386  1
  H+  H300  1  0.83258847  0.92191784  0.76988044  1
  H+  H301  1  0.64738128  0.84952516  0.98585385  1
  H+  H302  1  0.16763707  0.32692824  0.90840862  1
  H+  H303  1  0.09783249  0.41505101  0.39345953  1
  H+  H304  1  0.64799981  0.07106086  0.59970869  1
  H+  H305  1  0.40710975  0.09191339  0.26682946  1
  H+  H306  1  0.89485110  0.31664595  0.26684963  1
  H+  H307  1  0.95804173  0.38594390  0.62112358  1
  H+  H308  1  0.91108285  0.07692985  0.24667372  1
  H+  H309  1  0.58627857  0.16848093  0.06159268  1
  H+  H310  1  0.07721071  0.40857343  0.11362547  1
  H+  H311  1  0.94720414  0.87246281  0.62321207  1
  H+  H312  1  0.39498944  0.78415082  0.30814855  1
  H+  H313  1  0.85775533  0.25443267  0.32904486  1
  H+  H314  1  0.59113955  0.92379878  0.76924683  1
  H+  H315  1  0.08728469  0.17210598  0.76761192  1
  H+  H316  1  0.91782262  0.28048296  0.88663910  1
  H+  H317  1  0.84113564  0.92294014  0.41164142  1
  H+  H318  1  0.17461532  0.85091085  0.56467508  1
  H+  H319  1  0.88538578  0.86995689  0.18195678  1
  H+  H320  1  0.13624609  0.64449591  0.02366263  1
  H+  H321  1  0.53065321  0.40045481  0.35023481  1
  H+  H322  1  0.59017320  0.42148130  0.43887110  1
  H+  H323  1  0.65299874  0.77715855  0.50714105  1
  H+  H324  1  0.85368455  0.73386516  0.17315212  1
  H+  H325  1  0.21674535  0.35193573  0.51952859  1
  H+  H326  1  0.65100194  0.32832161  0.61108271  1
  H+  H327  1  0.36413912  0.67282702  0.17492942  1
  H+  H328  1  0.88146627  0.11514686  0.50244493  1
  H+  H329  1  0.16401640  0.08202775  0.60675530  1
  H+  H330  1  0.93309512  0.84331895  0.93140683  1
  H+  H331  1  0.85764772  0.98433687  0.67533637  1
  H+  H332  1  0.83246057  0.66573972  0.77056257  1
  H+  H333  1  0.17854560  0.58212973  0.95195825  1
  H+  H334  1  0.33590879  0.93165945  0.09361231  1
  H+  H335  1  1.02106535  0.36891782  0.83125335  1
  H+  H336  1  0.32123795  0.15877325  0.40611745  1
  H+  H337  1  0.85859232  0.20435305  0.77582217  1
  H+  H338  1  0.02601844  0.75858955  0.89765494  1
  H+  H339  1  0.55328748  0.41002795  0.78227317  1
  H+  H340  1  0.59099489  0.66752756  0.39735611  1
  H+  H341  1  0.82028987  0.43327012  0.07848468  1
  H+  H342  1  0.12320047  0.59120454  0.50794442  1
  H+  H343  1  0.34245585  0.68195949  0.39206050  1
  H+  H344  1  0.07570055  0.91469523  0.07322286  1
  H+  H345  1  0.77920849  0.95263717  0.12573755  1
  H+  H346  1  0.16762287  0.08331764  0.23349005  1
  H+  H347  1  0.89614822  0.33086943  0.53378826  1
  H+  H348  1  0.80871672  0.68364356  0.07830148  1
  H+  H349  1  0.16734805  0.32680900  0.24486914  1
  H+  H350  1  0.52975831  0.27778320  0.93389234  1
  H+  H351  1  0.90839270  0.80406463  0.53318453  1
  H+  H352  1  0.13808312  0.51887235  0.85621258  1
  H+  H353  1  0.33911890  0.92440572  0.39363428  1
  H+  H354  1  0.66919596  0.58585624  0.90001433  1
  H+  H355  1  0.16804396  0.34388474  0.62201091  1
  H+  H356  1  0.66526669  0.58021333  0.57076979  1
  H+  H357  1  0.21178162  0.19493092  0.94562764  1
  H+  H358  1  1.02144697  0.89544335  0.83047670  1
  H+  H359  1  0.42632689  0.57648966  0.92992891  1
  H+  H360  1  0.48998021  0.87046867  0.83674213  1
  H+  H361  1  0.39051435  0.55078601  0.29173503  1
  H+  H362  1  0.91282738  0.09029240  0.60318374  1
  H+  H363  1  0.09649943  0.67605567  0.10802706  1
  H+  H364  1  0.90344001  0.57236339  0.55513062  1
  H+  H365  1  0.17890559  0.85934164  0.26200975  1
  H+  H366  1  0.65549217  0.58375508  0.26554930  1
  H+  H367  1  0.82709108  0.41503569  0.38376217  1
  H+  H368  1  0.08453212  0.92171493  0.39319229  1
  H+  H369  1  0.42233892  0.84064036  0.61044620  1
  H+  H370  1  0.07955427  0.66146628  0.72576631  1
  H+  H371  1  0.23313660  0.88271438  0.32254815  1
  H+  H372  1  0.42256700  0.08495068  0.93485553  1
  H+  H373  1  0.16642144  0.57785275  0.60188946  1
  H+  H374  1  0.13744598  1.01022338  0.84011676  1
  H+  H375  1  0.37020330  0.22693114  -0.00934240  1
  H+  H376  1  0.87047831  0.64677499  0.65869988  1
  H+  H377  1  0.40510961  0.58419382  0.62432898  1
  H+  H378  1  0.64905738  0.33888692  0.23336192  1
  H+  H379  1  0.17473978  0.58284125  0.27400384  1
  H+  H380  1  0.74547352  0.86581921  0.51076447  1
  H+  H381  1  0.14904850  0.82247162  0.95202693  1
  H+  H382  1  0.09215299  0.91833032  0.77647685  1
  H+  H383  1  0.41246024  0.53561673  0.53456865  1
  O2-  O384  1  0.07809627  0.16771952  0.16944228  1
  O2-  O385  1  0.07817639  0.16052085  0.47454035  1
  O2-  O386  1  0.09203308  0.17532684  0.81326572  1
  O2-  O387  1  0.07780280  0.40847886  0.15865483  1
  O2-  O388  1  0.07415438  0.40759082  0.47495740  1
  O2-  O389  1  0.08333572  0.41007062  0.82641192  1
  O2-  O390  1  0.10850543  0.68793351  0.15329066  1
  O2-  O391  1  0.07858073  0.63292439  0.48201393  1
  O2-  O392  1  0.11465540  0.68395586  0.81089379  1
  O2-  O393  1  0.07627229  0.92122351  0.14403181  1
  O2-  O394  1  0.08235398  0.91918630  0.47104612  1
  O2-  O395  1  0.08507662  0.92003034  0.82236601  1
  O2-  O396  1  0.32237408  0.16406684  0.12881529  1
  O2-  O397  1  0.32006540  0.15618839  0.48443433  1
  O2-  O398  1  0.33343410  0.15560985  0.81774386  1
  O2-  O399  1  0.32780228  0.43029811  0.15970067  1
  O2-  O400  1  0.33030226  0.44202542  0.41622262  1
  O2-  O401  1  0.33266959  0.42246853  0.82402716  1
  O2-  O402  1  0.33190056  0.70376966  0.18053533  1
  O2-  O403  1  0.32535123  0.64826946  0.47599491  1
  O2-  O404  1  0.33818390  0.67102162  0.82137578  1
  O2-  O405  1  0.33148598  0.93321453  0.14077993  1
  O2-  O406  1  0.33201984  0.92399199  0.47330248  1
  O2-  O407  1  0.35034965  0.91624719  0.81106908  1
  O2-  O408  1  0.55700913  0.10969729  0.12779584  1
  O2-  O409  1  0.54811882  0.18990001  0.46409838  1
  O2-  O410  1  0.58655694  0.16567952  0.81200497  1
  O2-  O411  1  0.57695319  0.43940743  0.13852737  1
  O2-  O412  1  0.58781810  0.42035942  0.48440464  1
  O2-  O413  1  0.54639822  0.41641501  0.82631763  1
  O2-  O414  1  0.58749492  0.70520533  0.14514379  1
  O2-  O415  1  0.59779863  0.67311414  0.47866168  1
  O2-  O416  1  0.58295334  0.66696000  0.81381026  1
  O2-  O417  1  0.56530683  0.90265195  0.17326307  1
  O2-  O418  1  0.59466704  0.90648087  0.48028704  1
  O2-  O419  1  0.59285309  0.92719044  0.81496974  1
  O2-  O420  1  0.83026013  0.15547272  0.15202778  1
  O2-  O421  1  0.82300736  0.15712475  0.47103141  1
  O2-  O422  1  0.84888804  0.20124002  0.82216279  1
  O2-  O423  1  0.81742938  0.39991240  0.15505582  1
  O2-  O424  1  0.83360734  0.42021793  0.44943941  1
  O2-  O425  1  0.82504118  0.38780191  0.82586670  1
  O2-  O426  1  0.81418574  0.67540925  0.15687166  1
  O2-  O427  1  0.82424652  0.65124936  0.46392812  1
  O2-  O428  1  0.83575987  0.66510521  0.81489609  1
  O2-  O429  1  0.79676991  0.91392378  0.14345999  1
  O2-  O430  1  0.84534588  0.91434336  0.49564409  1
  O2-  O431  1  0.83500383  0.91941075  0.81518241  1
  O2-  O432  1  0.16092701  0.08538892  0.18748270  1
  O2-  O433  1  0.15570440  0.07787004  0.52863431  1
  O2-  O434  1  0.17481510  0.07675148  0.84972342  1
  O2-  O435  1  0.15961527  0.32544302  0.19915904  1
  O2-  O436  1  0.18519541  0.34088681  0.48153058  1
  O2-  O437  1  0.17508725  0.33399257  0.86287698  1
  O2-  O438  1  0.16467525  0.58001974  0.19698633  1
  O2-  O439  1  0.15635609  0.56165275  0.52683346  1
  O2-  O440  1  0.17171994  0.57931763  0.87065589  1
  O2-  O441  1  0.17966599  0.85651860  0.17639455  1
  O2-  O442  1  0.17941143  0.85300676  0.52011607  1
  O2-  O443  1  0.08562248  0.78967088  0.88351043  1
  O2-  O444  1  0.40698252  0.08963167  0.18210376  1
  O2-  O445  1  0.40300014  0.07664049  0.52690116  1
  O2-  O446  1  0.41988909  0.07229724  0.85224453  1
  O2-  O447  1  0.42701017  0.37821291  0.20654903  1
  O2-  O448  1  0.41726808  0.32568847  0.52760453  1
  O2-  O449  1  0.45259758  0.28937458  0.89468982  1
  O2-  O450  1  0.40854958  0.61230120  0.15112299  1
  O2-  O451  1  0.41855631  0.56541785  0.49632174  1
  O2-  O452  1  0.41885471  0.58107031  0.85025125  1
  O2-  O453  1  0.41972135  0.84972511  0.23042931  1
  O2-  O454  1  0.44637302  0.87786531  0.53202582  1
  O2-  O455  1  0.42864332  0.84338076  0.85181269  1
  O2-  O456  1  0.63350584  -0.01249219  0.19559304  1
  O2-  O457  1  0.65902210  0.07259949  0.51515410  1
  O2-  O458  1  0.67368998  0.09215911  0.85719200  1
  O2-  O459  1  0.65042319  0.34490924  0.18728993  1
  O2-  O460  1  0.66069257  0.33367935  0.53992861  1
  O2-  O461  1  0.66401236  0.31568560  0.85192467  1
  O2-  O462  1  0.64860631  0.60499346  0.18696578  1
  O2-  O463  1  0.66941244  0.58260828  0.52583467  1
  O2-  O464  1  0.67118796  0.58599948  0.85431261  1
  O2-  O465  1  0.63587542  0.78921557  0.17605279  1
  O2-  O466  1  0.68196016  0.83688244  0.52362170  1
  O2-  O467  1  0.66813566  0.83443262  0.84886828  1
  O2-  O468  1  0.91607317  0.07894473  0.20002424  1
  O2-  O469  1  0.91588131  0.08986324  0.51913409  1
  O2-  O470  1  0.91336768  0.08485111  0.84207101  1
  O2-  O471  1  0.90633893  0.32330067  0.19369448  1
  O2-  O472  1  0.90761361  0.32719480  0.49104092  1
  O2-  O473  1  0.90143518  0.29135338  0.84374808  1
  O2-  O474  1  0.87487143  0.56586244  0.18530703  1
  O2-  O475  1  0.90607310  0.57145962  0.51051483  1
  O2-  O476  1  0.91175006  0.56187313  0.84707483  1
  O2-  O477  1  0.91777496  0.84230329  0.19476837  1
  O2-  O478  1  0.90922090  0.81900337  0.49058997  1
  O2-  O479  1  0.92034738  0.84119533  0.85275004  1
  O2-  O480  1  0.16292135  0.07932935  0.30709340  1
  O2-  O481  1  0.16815843  0.08654541  0.65234070  1
  O2-  O482  1  0.19610977  0.13534502  0.95402493  1
  O2-  O483  1  0.18580354  0.31712358  0.31630784  1
  O2-  O484  1  0.16990629  0.33810354  0.66593499  1
  O2-  O485  1  0.15574783  0.32043699  0.98455338  1
  O2-  O486  1  0.18257988  0.58505591  0.31889332  1
  O2-  O487  1  0.17051763  0.58820221  0.64745307  1
  O2-  O488  1  0.17348779  0.57822107  0.99708895  1
  O2-  O489  1  0.17400515  0.85861864  0.30643391  1
  O2-  O490  1  0.16834647  0.83719925  0.65132617  1
  O2-  O491  1  0.16484567  0.83186132  0.99579270  1
  O2-  O492  1  0.41068691  0.09334427  0.31164823  1
  O2-  O493  1  0.40647554  0.07422894  0.65073329  1
  O2-  O494  1  0.42269700  0.09350353  0.97934934  1
  O2-  O495  1  0.43182031  0.39084414  0.32920794  1
  O2-  O496  1  0.41133632  0.32774057  0.65003623  1
  O2-  O497  1  0.41803099  0.31754681  0.94555894  1
  O2-  O498  1  0.39788309  0.56890337  0.33406848  1
  O2-  O499  1  0.40893042  0.58424126  0.66852658  1
  O2-  O500  1  0.42945767  0.57021517  0.97462776  1
  O2-  O501  1  0.42399583  0.84648237  0.29717345  1
  O2-  O502  1  0.41697183  0.83380432  0.65528081  1
  O2-  O503  1  0.45717290  0.91893123  0.96947726  1
  O2-  O504  1  0.64987645  0.07281023  0.31883458  1
  O2-  O505  1  0.64313917  0.06542876  0.64429344  1
  O2-  O506  1  0.66366060  0.09850355  0.97904725  1
  O2-  O507  1  0.65599566  0.33132745  0.30629420  1
  O2-  O508  1  0.64673431  0.32441079  0.65756700  1
  O2-  O509  1  0.58552302  0.29477521  0.95553098  1
  O2-  O510  1  0.66303087  0.58023867  0.31012406  1
  O2-  O511  1  0.65095373  0.57353744  0.65447143  1
  O2-  O512  1  0.65924574  0.57722658  0.97690559  1
  O2-  O513  1  0.68790640  0.91297768  0.31569928  1
  O2-  O514  1  0.66300585  0.83163818  0.64629906  1
  O2-  O515  1  0.67591181  0.81883892  0.97175067  1
  O2-  O516  1  0.91034632  0.08202212  0.31771017  1
  O2-  O517  1  0.91236228  0.08768915  0.64836617  1
  O2-  O518  1  0.92339670  0.06915627  0.99517252  1
  O2-  O519  1  0.88631673  0.31622327  0.31258692  1
  O2-  O520  1  0.94842017  0.36548361  0.66289219  1
  O2-  O521  1  0.95822423  0.26881376  0.94626358  1
  O2-  O522  1  0.91223638  0.57727264  0.29880010  1
  O2-  O523  1  0.91477455  0.58679463  0.64075454  1
  O2-  O524  1  0.96625209  0.55467868  0.97466064  1
  O2-  O525  1  0.91267353  0.83498155  0.31448714  1
  O2-  O526  1  0.93419608  0.85499076  0.66563490  1
  O2-  O527  1  0.93825335  0.84164879  0.97668135  1
  O2-  O528  1  0.08251006  0.16733298  0.02875325  1
  O2-  O529  1  0.07651598  0.15572313  0.35160725  1
  O2-  O530  1  0.07910343  0.16434341  0.69122462  1
  O2-  O531  1  0.06423440  0.41573095  0.02880673  1
  O2-  O532  1  0.11393669  0.42146682  0.35004431  1
  O2-  O533  1  0.10776519  0.43290622  0.70645935  1
  O2-  O534  1  0.10011383  0.67066218  0.03453469  1
  O2-  O535  1  0.07759779  0.64469130  0.36240050  1
  O2-  O536  1  0.07721623  0.66107398  0.68099101  1
  O2-  O537  1  0.08124292  0.90992064  0.02698475  1
  O2-  O538  1  0.08019970  0.92050413  0.34774879  1
  O2-  O539  1  0.10030058  0.92396053  0.70347862  1
  O2-  O540  1  0.33565105  0.16777344  0.00864131  1
  O2-  O541  1  0.32285175  0.16787555  0.36108140  1
  O2-  O542  1  0.33212858  0.16493142  0.69690615  1
  O2-  O543  1  0.30531853  0.42445029  0.03963137  1
  O2-  O544  1  0.34502517  0.32531252  0.34660632  1
  O2-  O545  1  0.33492922  0.41579871  0.70580830  1
  O2-  O546  1  0.31088278  0.57898890  0.04514940  1
  O2-  O547  1  0.34456468  0.68051626  0.34727770  1
  O2-  O548  1  0.32994316  0.66998608  0.69722057  1
  O2-  O549  1  0.33590353  0.92973651  0.02583585  1
  O2-  O550  1  0.34138862  0.93036385  0.34846374  1
  O2-  O551  1  0.33568780  0.91474024  0.69600115  1
  O2-  O552  1  0.61820497  0.19769848  0.02341651  1
  O2-  O553  1  0.57546637  0.16741415  0.34850094  1
  O2-  O554  1  0.57134525  0.15963598  0.69354037  1
  O2-  O555  1  0.56974580  0.41412764  0.01253318  1
  O2-  O556  1  0.59214487  0.42285936  0.36007025  1
  O2-  O557  1  0.56603415  0.40699485  0.70061499  1
  O2-  O558  1  0.58507918  0.66809726  0.02007152  1
  O2-  O559  1  0.58336817  0.65921532  0.35275564  1
  O2-  O560  1  0.58417691  0.66992617  0.69016765  1
  O2-  O561  1  0.58344084  0.95134384  0.05593919  1
  O2-  O562  1  0.61708895  1.00227807  0.36417784  1
  O2-  O563  1  0.57847207  0.91174689  0.69253826  1
  O2-  O564  1  0.83435599  0.15314445  0.02360026  1
  O2-  O565  1  0.81816100  0.15882700  0.35080302  1
  O2-  O566  1  0.86212342  0.19512449  0.70370442  1
  O2-  O567  1  0.81923536  0.45857473  0.03845353  1
  O2-  O568  1  0.82329783  0.40638212  0.33606596  1
  O2-  O569  1  0.80145266  0.34470935  0.70674135  1
  O2-  O570  1  0.79773391  0.68988757  0.03494072  1
  O2-  O571  1  0.83216074  0.66129159  0.34062645  1
  O2-  O572  1  0.83949615  0.67977755  0.66602294  1
  O2-  O573  1  0.83626424  0.89353057  0.02222346  1
  O2-  O574  1  0.83660591  0.92422354  0.36691490  1
  O2-  O575  1  0.82691302  0.92391089  0.69153482  1
