# generated using pymatgen
data_H2O
_symmetry_space_group_name_H-M   'P 1'
_cell_length_a   17.99347728
_cell_length_b   17.98716899
_cell_length_c   22.00248871
_cell_angle_alpha   90.01603254
_cell_angle_beta   89.99029101
_cell_angle_gamma   120.00592687
_symmetry_Int_Tables_number   1
_chemical_formula_structural   H2O
_chemical_formula_sum   'H384 O192'
_cell_volume   6166.72235430
_cell_formula_units_Z   192
loop_
 _symmetry_equiv_pos_site_id
 _symmetry_equiv_pos_as_xyz
  1  'x, y, z'
loop_
 _atom_type_symbol
 _atom_type_oxidation_number
  H+  1.0
  O2-  -2.0
loop_
 _atom_site_type_symbol
 _atom_site_label
 _atom_site_symmetry_multiplicity
 _atom_site_fract_x
 _atom_site_fract_y
 _atom_site_fract_z
 _atom_site_occupancy
  H+  H0  1  0.11286496  0.89153525  0.49499138  1
  H+  H1  1  0.10243849  0.96584907  0.16877268  1
  H+  H2  1  0.76602964  0.63404094  0.67475019  1
  H+  H3  1  0.65584050  0.27383120  0.32954817  1
  H+  H4  1  0.06387879  0.40255280  0.73494127  1
  H+  H5  1  0.32764338  0.16632503  0.10476051  1
  H+  H6  1  0.84398466  0.63056216  0.14821884  1
  H+  H7  1  0.39721944  1.02386215  0.16468702  1
  H+  H8  1  0.97698418  0.10853241  0.66682901  1
  H+  H9  1  0.86312943  0.89626090  0.48875917  1
  H+  H10  1  0.87873973  0.79220021  0.50905298  1
  H+  H11  1  0.62564079  0.60874917  0.16591580  1
  H+  H12  1  0.14064224  0.87642961  0.66222637  1
  H+  H13  1  0.29233504  0.40409564  0.32813486  1
  H+  H14  1  0.38817462  0.26464866  0.17398643  1
  H+  H15  1  0.36307651  0.63569404  0.16370081  1
  H+  H16  1  0.58989450  0.92195711  0.09457546  1
  H+  H17  1  0.88708386  0.48036775  0.50436650  1
  H+  H18  1  0.85905644  -0.02324954  0.15564063  1
  H+  H19  1  0.13748553  0.27611763  -0.00255276  1
  H+  H20  1  -0.04410088  0.08608196  0.32827780  1
  H+  H21  1  0.27335039  0.88593242  0.49404804  1
  H+  H22  1  0.13896744  0.77783639  0.50898544  1
  H+  H23  1  0.39672186  0.36521968  -0.01587741  1
  H+  H24  1  1.00435656  0.12722999  0.51007875  1
  H+  H25  1  0.12216197  0.59445309  0.67529581  1
  H+  H26  1  0.61338540  0.89157352  0.49970087  1
  H+  H27  1  0.11975726  0.63829160  0.35104546  1
  H+  H28  1  0.12001883  0.51559545  0.84033246  1
  H+  H29  1  0.85735704  1.00936268  0.50204664  1
  H+  H30  1  0.00983027  0.38131511  0.82488424  1
  H+  H31  1  0.10153298  0.33959914  0.13142815  1
  H+  H32  1  0.62978717  0.60420122  0.83220548  1
  H+  H33  1  0.36888115  0.74421499  0.50225450  1
  H+  H34  1  0.87077259  0.36101777  0.66055351  1
  H+  H35  1  0.21743674  0.11154031  -0.00601843  1
  H+  H36  1  0.12525576  0.64128344  0.50316470  1
  H+  H37  1  0.63883636  0.02654180  0.51080042  1
  H+  H38  1  0.26313618  0.43424095  0.44606644  1
  H+  H39  1  0.51601171  0.63313757  0.83169394  1
  H+  H40  1  0.04139905  0.13628783  0.83146862  1
  H+  H41  1  0.95877233  0.85591134  0.17203580  1
  H+  H42  1  0.48214753  0.13040941  0.67311806  1
  H+  H43  1  1.02524601  0.13710052  1.00880931  1
  H+  H44  1  0.85882331  0.71208845  -0.00058766  1
  H+  H45  1  0.16294823  0.39545408  0.31735545  1
  H+  H46  1  0.13329957  0.10009483  0.17700282  1
  H+  H47  1  0.37451860  0.60725635  0.84439362  1
  H+  H48  1  0.27405371  0.22356017  0.04820914  1
  H+  H49  1  0.62999856  0.60924960  0.67026077  1
  H+  H50  1  0.66714002  0.08965983  0.56862582  1
  H+  H51  1  0.96351520  0.36328588  0.65926126  1
  H+  H52  1  0.86745784  0.36169845  0.50917101  1
  H+  H53  1  0.83231590  0.45571718  0.82608746  1
  H+  H54  1  0.72284344  0.85930471  0.50684280  1
  H+  H55  1  0.45837108  0.61392990  0.50690949  1
  H+  H56  1  0.86597589  0.59358697  0.84085958  1
  H+  H57  1  0.08933515  0.66683459  0.44464801  1
  H+  H58  1  0.35364714  0.22989606  0.67839397  1
  H+  H59  1  0.02878008  0.62350119  -0.00639504  1
  H+  H60  1  0.06195101  0.63968542  0.08943607  1
  H+  H61  1  0.35190532  0.18246645  0.44006291  1
  H+  H62  1  0.35708958  0.49030750  0.83595879  1
  H+  H63  1  0.39468669  0.35629158  0.32497264  1
  H+  H64  1  0.46330371  0.60591810  0.66760698  1
  H+  H65  1  0.66162900  0.82660774  0.25862472  1
  H+  H66  1  0.85552638  0.87451196  0.82734918  1
  H+  H67  1  0.88075006  0.76404939  0.83915139  1
  H+  H68  1  0.42591787  0.05645839  0.82933819  1
  H+  H69  1  0.51838574  0.38186082  0.33710069  1
  H+  H70  1  0.72685749  0.59312446  0.30722071  1
  H+  H71  1  0.85159462  0.97131140  0.67851921  1
  H+  H72  1  0.23350161  0.61204088  0.33996200  1
  H+  H73  1  0.15732490  0.81634673  0.12706272  1
  H+  H74  1  0.71836356  0.60737726  -0.01654402  1
  H+  H75  1  0.78352833  0.14391128  0.15816538  1
  H+  H76  1  0.80175144  0.43893028  -0.00104602  1
  H+  H77  1  0.36783642  0.72770966  0.16016283  1
  H+  H78  1  0.63852530  0.86433831  0.99374593  1
  H+  H79  1  0.24039070  1.12599379  0.66009205  1
  H+  H80  1  0.28364255  0.15197001  0.49304965  1
  H+  H81  1  1.08832572  0.16033518  0.73548754  1
  H+  H82  1  0.38403958  0.89269720  0.14546223  1
  H+  H83  1  0.88954192  0.11587649  0.16900732  1
  H+  H84  1  0.61772229  0.13978161  0.49221951  1
  H+  H85  1  0.60614447  0.72282666  0.00066097  1
  H+  H86  1  0.15880376  0.11790133  0.33174856  1
  H+  H87  1  0.95570106  0.59310866  0.67942861  1
  H+  H88  1  0.86326525  0.88316289  1.00429394  1
  H+  H89  1  0.35344603  0.24312475  0.00784400  1
  H+  H90  1  0.35433440  0.71330707  0.83228855  1
  H+  H91  1  0.61970992  0.13706994  0.14881684  1
  H+  H92  1  0.64843393  0.02810595  0.16755896  1
  H+  H93  1  0.81000522  0.03464424  0.88279444  1
  H+  H94  1  0.84049705  0.18019185  0.06354816  1
  H+  H95  1  0.73132867  0.11714416  0.32132051  1
  H+  H96  1  0.70115401  0.33145432  0.53864539  1
  H+  H97  1  0.38714588  0.14058854  0.33872510  1
  H+  H98  1  0.75387905  0.87591182  0.33620505  1
  H+  H99  1  0.38903971  0.85426277  0.98740361  1
  H+  H100  1  0.21240636  0.35852332  0.67098127  1
  H+  H101  1  0.14454483  0.37804991  0.13822371  1
  H+  H102  1  0.87437609  0.23233043  0.15902414  1
  H+  H103  1  0.53498000  0.89788429  0.83088492  1
  H+  H104  1  0.62538100  0.51773919  0.16355974  1
  H+  H105  1  0.86167892  0.13807876  0.66864510  1
  H+  H106  1  0.86314778  0.13584607  0.33604258  1
  H+  H107  1  0.16361125  0.03348005  0.33126135  1
  H+  H108  1  0.85428742  0.72361210  0.67122943  1
  H+  H109  1  0.89421907  0.50018889  0.31894145  1
  H+  H110  1  0.52000082  0.63527624  0.15310283  1
  H+  H111  1  0.02308420  0.80608144  0.70943898  1
  H+  H112  1  0.35302133  0.63317698  0.67949093  1
  H+  H113  1  0.59986961  0.73598648  0.48988444  1
  H+  H114  1  -0.00053564  0.61340331  0.83939136  1
  H+  H115  1  0.61319151  -0.02277377  1.00157019  1
  H+  H116  1  0.11099237  0.13228547  0.00475734  1
  H+  H117  1  0.23489282  0.10551861  0.83922798  1
  H+  H118  1  0.41819479  0.57809718  0.22652372  1
  H+  H119  1  0.38787495  0.51895498  0.16690130  1
  H+  H120  1  0.47601133  0.86451991  0.67025468  1
  H+  H121  1  0.63875581  0.86505495  0.84332594  1
  H+  H122  1  0.64392668  0.12130213  -0.00943584  1
  H+  H123  1  0.13692498  0.02632295  0.51102380  1
  H+  H124  1  0.61552780  0.25802805  0.51144607  1
  H+  H125  1  0.02848175  0.63148372  0.34823766  1
  H+  H126  1  0.97355159  0.85341278  0.99384235  1
  H+  H127  1  0.17335425  0.81141161  0.65191438  1
  H+  H128  1  0.10970249  0.75047309  0.84653839  1
  H+  H129  1  0.38049182  -0.00188783  0.68199639  1
  H+  H130  1  0.81598414  0.65710115  0.47539416  1
  H+  H131  1  0.16172483  0.63800301  0.19433404  1
  H+  H132  1  0.59621641  0.71769971  0.67609173  1
  H+  H133  1  0.63191321  0.11818547  0.66349114  1
  H+  H134  1  0.60699850  0.23215447  0.68061772  1
  H+  H135  1  0.68278975  0.61307513  0.51165833  1
  H+  H136  1  0.73174393  0.11932669  0.99270275  1
  H+  H137  1  0.75691201  0.63322615  0.15068551  1
  H+  H138  1  0.48283318  0.86860682  0.51663457  1
  H+  H139  1  0.36084464  0.47321213  0.00240334  1
  H+  H140  1  0.62521636  0.15566702  0.82890426  1
  H+  H141  1  0.08786967  0.87010453  0.16285908  1
  H+  H142  1  0.11981309  0.35292638  0.66865269  1
  H+  H143  1  0.85551478  0.14504161  0.49067596  1
  H+  H144  1  0.80677995  0.39870758  0.73115928  1
  H+  H145  1  0.12760153  0.25369805  0.34719558  1
  H+  H146  1  0.40206438  0.26898933  0.32808088  1
  H+  H147  1  0.89722933  0.33155747  0.57603243  1
  H+  H148  1  0.39306561  0.28162900  0.52244091  1
  H+  H149  1  0.60978146  0.97923208  0.67766081  1
  H+  H150  1  0.28535054  0.37517640  0.15836699  1
  H+  H151  1  0.76425255  0.62680450  0.82481993  1
  H+  H152  1  0.34139882  0.47977446  0.48995787  1
  H+  H153  1  0.09185521  0.21527502  0.50494580  1
  H+  H154  1  0.62387889  0.47567291  0.48518872  1
  H+  H155  1  0.40570787  0.11942381  0.97505946  1
  H+  H156  1  0.39368210  1.02082866  0.32421812  1
  H+  H157  1  0.70423735  0.36433243  0.66776099  1
  H+  H158  1  0.47348584  0.35321871  0.83324074  1
  H+  H159  1  0.10951010  0.22139292  0.67750384  1
  H+  H160  1  0.13377261  0.01666210  0.99398476  1
  H+  H161  1  0.91195408  0.40264326  1.00037874  1
  H+  H162  1  0.26038071  0.39115856  0.83625054  1
  H+  H163  1  0.87189219  0.76157774  0.31861097  1
  H+  H164  1  0.11424801  0.51278129  0.16252282  1
  H+  H165  1  0.62686205  0.85934734  0.66211543  1
  H+  H166  1  0.04948984  0.56651833  0.13372633  1
  H+  H167  1  0.39815898  0.52205802  0.32136563  1
  H+  H168  1  0.82203463  0.91307652  0.42725091  1
  H+  H169  1  0.29977813  0.14354759  0.34036124  1
  H+  H170  1  0.76651565  0.14322125  0.49222616  1
  H+  H171  1  0.52545033  0.88405770  0.00573671  1
  H+  H172  1  0.67658780  0.30492307  0.99647375  1
  H+  H173  1  0.90440717  0.27934553  0.32783539  1
  H+  H174  1  0.14360030  0.27619838  0.84476686  1
  H+  H175  1  0.86883438  0.76766330  0.16603242  1
  H+  H176  1  0.85766933  0.22589559  0.66660449  1
  H+  H177  1  0.02758499  0.39069311  0.35068726  1
  H+  H178  1  0.37165167  0.62875682  0.33791354  1
  H+  H179  1  0.88998840  0.61590403  0.45361772  1
  H+  H180  1  0.72873866  0.12218722  0.83899250  1
  H+  H181  1  0.20856102  0.34857247  0.51746572  1
  H+  H182  1  0.37315899  -0.01671410  0.98264780  1
  H+  H183  1  0.20679157  0.60467125  0.84719819  1
  H+  H184  1  0.53090251  0.70856406  0.43944591  1
  H+  H185  1  0.45873782  0.36203398  0.68920338  1
  H+  H186  1  0.34895832  0.38333914  0.68751430  1
  H+  H187  1  0.08729305  0.69166544  0.69785073  1
  H+  H188  1  0.85114191  0.36865542  0.15721296  1
  H+  H189  1  0.08922563  0.24293353  0.32762569  1
  H+  H190  1  0.28823664  0.69491676  0.45960096  1
  H+  H191  1  0.62030629  0.62314085  0.32869489  1
  H+  H192  1  0.03005614  0.03116239  0.37672339  1
  H+  H193  1  0.72336679  0.86206448  0.16446035  1
  H+  H194  1  0.81931912  0.04469419  0.55053301  1
  H+  H195  1  1.02505690  0.89511587  0.49528476  1
  H+  H196  1  0.13340842  0.77204826  0.32745115  1
  H+  H197  1  0.12103286  0.47858400  0.50097217  1
  H+  H198  1  0.89357911  0.82431413  0.26349177  1
  H+  H199  1  0.09893896  0.46303468  0.67661415  1
  H+  H200  1  0.35956678  0.14245195  0.67183242  1
  H+  H201  1  0.59334516  0.39044953  0.71396476  1
  H+  H202  1  0.29675059  0.89034230  0.13150065  1
  H+  H203  1  0.12940451  0.13590386  0.82925943  1
  H+  H204  1  0.53039682  0.13438309  0.14986034  1
  H+  H205  1  0.86706534  0.26684265  0.50954066  1
  H+  H206  1  0.87391164  0.86403100  0.66205285  1
  H+  H207  1  0.53021629  0.13406314  0.33422770  1
  H+  H208  1  0.43316991  0.81943618  0.77991100  1
  H+  H209  1  0.77797589  0.37764954  0.33774758  1
  H+  H210  1  0.21607558  0.60446249  0.67182347  1
  H+  H211  1  0.54139515  0.16613625  0.82722273  1
  H+  H212  1  0.84292269  0.46563029  0.67581650  1
  H+  H213  1  0.88480726  0.61863128  0.48765856  1
  H+  H214  1  0.72574451  0.36683147  0.18038612  1
  H+  H215  1  0.99999438  0.59414352  0.52867424  1
  H+  H216  1  0.52931111  0.89770782  0.34951394  1
  H+  H217  1  0.41380767  0.76319878  0.31571598  1
  H+  H218  1  0.29107340  0.91678073  0.66792820  1
  H+  H219  1  0.34861074  0.47246030  0.68247394  1
  H+  H220  1  0.72657831  0.86117674  0.99371331  1
  H+  H221  1  0.17074475  0.09144644  0.59572247  1
  H+  H222  1  0.15114680  0.24414222  0.18222352  1
  H+  H223  1  0.60213588  0.63216731  -0.00302953  1
  H+  H224  1  0.38998594  0.87004932  0.66757347  1
  H+  H225  1  0.22800397  0.60770340  0.52568359  1
  H+  H226  1  0.54379281  0.15205504  -0.00849969  1
  H+  H227  1  0.61084339  0.47656326  0.00068553  1
  H+  H228  1  0.63386421  0.76152971  0.31420679  1
  H+  H229  1  0.09723404  0.73803829  0.16637033  1
  H+  H230  1  0.37083115  0.61269672  0.51188478  1
  H+  H231  1  0.87466161  0.60606069  0.66567301  1
  H+  H232  1  0.52786201  0.38298702  0.00093679  1
  H+  H233  1  0.39700802  0.00412819  0.51874131  1
  H+  H234  1  0.24628136  0.62878457  0.18886099  1
  H+  H235  1  0.58029419  0.92757128  0.44366376  1
  H+  H236  1  0.84203517  0.87352264  0.33654835  1
  H+  H237  1  0.90088965  0.36661220  0.32985764  1
  H+  H238  1  0.37698852  0.84157626  0.82087158  1
  H+  H239  1  0.85499692  0.13288684  0.81939787  1
  H+  H240  1  0.62907594  0.38920495  0.48396808  1
  H+  H241  1  0.52244910  0.38395807  0.15450737  1
  H+  H242  1  0.39017126  0.25957621  0.84222681  1
  H+  H243  1  0.27530028  0.89080405  0.33751757  1
  H+  H244  1  0.39092487  0.10882454  0.17032846  1
  H+  H245  1  0.96922904  0.85556243  0.83942770  1
  H+  H246  1  0.76406772  0.87161627  0.82852735  1
  H+  H247  1  0.87111527  0.15326920  0.00508627  1
  H+  H248  1  0.58310629  0.57459717  0.51895534  1
  H+  H249  1  0.61631944  0.88838725  0.15390911  1
  H+  H250  1  0.31240179  0.88983437  0.76095040  1
  H+  H251  1  0.48706489  0.86862591  0.16066677  1
  H+  H252  1  0.24789147  0.84773116  0.81822929  1
  H+  H253  1  0.09384764  0.61832634  0.84079186  1
  H+  H254  1  0.14885583  0.77593068  1.02669609  1
  H+  H255  1  0.37621028  0.38498130  0.15567416  1
  H+  H256  1  0.12338340  0.89898435  0.34126301  1
  H+  H257  1  0.66311765  0.82908261  0.56784658  1
  H+  H258  1  0.77737908  0.70418508  0.43820291  1
  H+  H259  1  0.42456564  0.32801559  0.23123485  1
  H+  H260  1  0.42996519  0.83735692  0.22015717  1
  H+  H261  1  0.02085735  0.12800765  0.16118684  1
  H+  H262  1  0.39309275  0.36862468  0.52674242  1
  H+  H263  1  0.62310535  -0.01062126  0.83410533  1
  H+  H264  1  0.87095301  0.61745920  0.30726953  1
  H+  H265  1  0.88212296  0.27227096  0.83155170  1
  H+  H266  1  0.78792875  0.42535427  0.48257689  1
  H+  H267  1  0.85535538  0.88519920  0.15676165  1
  H+  H268  1  0.37773493  0.76194134  -0.00186312  1
  H+  H269  1  0.10533446  0.88089013  0.83307491  1
  H+  H270  1  0.37818889  0.13418870  0.82788836  1
  H+  H271  1  0.62535276  0.51342506  0.82361927  1
  H+  H272  1  0.63400154  0.77208831  0.16313517  1
  H+  H273  1  0.12659111  0.40728799  0.01384125  1
  H+  H274  1  0.11866694  0.48550468  0.35299474  1
  H+  H275  1  0.46123572  0.61339385  0.99344362  1
  H+  H276  1  0.64533724  0.38192931  0.18345999  1
  H+  H277  1  0.61373551  0.99003970  0.35040210  1
  H+  H278  1  0.35371307  0.72271973  0.68101980  1
  H+  H279  1  0.94717068  0.59160028  0.15406444  1
  H+  H280  1  0.85795047  0.00004206  0.84340415  1
  H+  H281  1  0.82843272  0.16533848  0.75953190  1
  H+  H282  1  0.52489439  0.12616936  0.49541870  1
  H+  H283  1  0.11199019  0.38248079  0.49917689  1
  H+  H284  1  -0.01942420  0.38717374  0.16907275  1
  H+  H285  1  0.27142319  0.12660990  0.16450292  1
  H+  H286  1  0.84208335  0.44844261  0.13926525  1
  H+  H287  1  0.48561103  0.61083769  0.31848239  1
  H+  H288  1  0.84318352  0.63034867  0.37066264  1
  H+  H289  1  0.14046858  0.11995970  0.66078380  1
  H+  H290  1  0.50492037  0.80081184  0.28594972  1
  H+  H291  1  0.71316459  0.85573925  0.66307453  1
  H+  H292  1  0.87435938  0.35566441  0.83620997  1
  H+  H293  1  0.18385197  0.54874099  1.00008293  1
  H+  H294  1  0.09114321  0.42278648  0.42527233  1
  H+  H295  1  0.41486067  0.33922507  0.62162605  1
  H+  H296  1  0.08392386  0.46768331  0.09668305  1
  H+  H297  1  0.83547526  0.17266557  0.39325868  1
  H+  H298  1  0.42578345  0.09085645  0.61301925  1
  H+  H299  1  0.96233397  0.86200768  0.66306395  1
  H+  H300  1  0.58529149  0.16235927  0.39542677  1
  H+  H301  1  0.08296994  0.15721485  0.10235410  1
  H+  H302  1  0.05842582  0.63435125  0.75662360  1
  H+  H303  1  0.91538482  0.84951347  0.56790869  1
  H+  H304  1  0.42546282  0.07938605  0.26360285  1
  H+  H305  1  0.61431678  0.47680608  0.32835446  1
  H+  H306  1  0.33169680  0.15602851  0.77159903  1
  H+  H307  1  0.33918600  0.41300714  0.06063131  1
  H+  H308  1  0.68385827  0.34619189  0.27696822  1
  H+  H309  1  0.88774821  0.55337511  0.89922789  1
  H+  H310  1  0.59378219  0.17325723  0.05494569  1
  H+  H311  1  0.36007307  0.88042857  0.49631142  1
  H+  H312  1  0.15985529  0.57263947  0.58017431  1
  H+  H313  1  0.56842586  0.66079697  0.73678086  1
  H+  H314  1  0.47462264  0.02439790  0.56101145  1
  H+  H315  1  0.17018354  0.07756503  0.89698140  1
  H+  H316  1  0.58343430  0.41684027  0.09515201  1
  H+  H317  1  0.17161079  0.84955576  0.56189165  1
  H+  H318  1  0.82002925  0.65498209  0.05824887  1
  H+  H319  1  0.59112171  0.65603414  0.38785554  1
  H+  H320  1  0.63067132  0.33505044  0.61802506  1
  H+  H321  1  0.91623962  0.08093989  0.93978532  1
  H+  H322  1  0.42049955  0.83598859  0.57631320  1
  H+  H323  1  0.12488672  0.63867420  -0.00180809  1
  H+  H324  1  0.91774745  0.07691626  0.60754408  1
  H+  H325  1  0.11392572  0.97483762  0.82862570  1
  H+  H326  1  0.15757271  0.82415568  0.26549273  1
  H+  H327  1  0.10093447  0.93283190  0.40178426  1
  H+  H328  1  0.67312725  0.09334472  0.90145794  1
  H+  H329  1  0.07176203  0.91682464  0.07098520  1
  H+  H330  1  0.88366593  0.55921514  0.21068345  1
  H+  H331  1  0.82038941  0.90752240  0.73571121  1
  H+  H332  1  0.40192212  0.57551033  0.60903329  1
  H+  H333  1  0.16520809  0.33460508  0.90522552  1
  H+  H334  1  0.91423130  0.82530148  0.93420904  1
  H+  H335  1  0.31799119  0.65198057  0.77604129  1
  H+  H336  1  0.36542943  0.60329458  0.99131457  1
  H+  H337  1  0.83306638  0.91477295  0.06280049  1
  H+  H338  1  0.91046657  0.07857068  0.22888976  1
  H+  H339  1  0.19370132  0.36209935  0.26054013  1
  H+  H340  1  0.93471283  0.34282743  0.23189481  1
  H+  H341  1  0.84768687  0.42111862  0.39495091  1
  H+  H342  1  0.65918283  0.57004334  0.25206711  1
  H+  H343  1  0.42264238  0.32448019  0.92753691  1
  H+  H344  1  0.22845452  0.36292849  0.99476153  1
  H+  H345  1  0.58957476  0.17510187  0.73961789  1
  H+  H346  1  0.59870101  0.42245399  0.39622769  1
  H+  H347  1  0.22714056  0.26750327  0.22736269  1
  H+  H348  1  0.43880123  0.09978115  0.91086604  1
  H+  H349  1  0.57795671  0.66339149  0.09285001  1
  H+  H350  1  0.65155586  0.57157993  0.61271374  1
  H+  H351  1  0.05191318  0.11608836  0.41143020  1
  H+  H352  1  0.10018412  0.38204594  0.82807781  1
  H+  H353  1  0.64177913  0.11524707  0.32213900  1
  H+  H354  1  0.71934681  0.11468032  0.66067926  1
  H+  H355  1  0.11528739  0.88516669  0.02501557  1
  H+  H356  1  0.35433793  0.67001791  0.39738821  1
  H+  H357  1  0.67488711  0.08599106  0.22743296  1
  H+  H358  1  0.68315170  0.30093911  0.82376910  1
  H+  H359  1  0.82812855  0.65972553  0.76813124  1
  H+  H360  1  0.34235414  0.41361732  0.39077535  1
  H+  H361  1  0.65987057  0.38277493  0.99866992  1
  H+  H362  1  0.60525492  0.72220026  0.83079674  1
  H+  H363  1  0.17448690  0.58776570  0.28172971  1
  H+  H364  1  0.32173496  0.42264682  0.77242519  1
  H+  H365  1  0.96894771  0.55261200  0.27021352  1
  H+  H366  1  0.17205088  0.07904650  0.23674232  1
  H+  H367  1  0.23604587  0.86732925  1.02384647  1
  H+  H368  1  0.93262694  0.55745437  0.58481464  1
  H+  H369  1  0.89009350  0.02353081  0.99856432  1
  H+  H370  1  0.36214471  0.93482386  0.04500080  1
  H+  H371  1  0.06903188  0.89363094  0.74398706  1
  H+  H372  1  0.33366792  0.91894115  0.39635532  1
  H+  H373  1  0.66447284  0.83001812  0.90217765  1
  H+  H374  1  0.04533089  0.42026328  0.00913628  1
  H+  H375  1  0.87129215  0.58894150  0.99583443  1
  H+  H376  1  0.86261572  0.00846549  0.32245090  1
  H+  H377  1  0.90471684  0.31054375  1.00200341  1
  H+  H378  1  0.40540145  0.57711300  0.90412213  1
  H+  H379  1  0.65795152  0.57488439  0.92464792  1
  H+  H380  1  0.12826370  0.11083380  0.51330878  1
  H+  H381  1  0.58978604  0.92512976  0.73933421  1
  H+  H382  1  0.15675525  0.81834966  0.89937510  1
  H+  H383  1  0.15090796  0.32463393  0.57787444  1
  O2-  O384  1  0.08235908  0.15336841  0.14782953  1
  O2-  O385  1  0.06189410  0.15360656  0.49230870  1
  O2-  O386  1  0.09909020  0.16766419  0.81429881  1
  O2-  O387  1  0.06335664  0.47946846  0.13597848  1
  O2-  O388  1  0.09227688  0.42073193  0.47992401  1
  O2-  O389  1  0.07169456  0.41111912  0.80919686  1
  O2-  O390  1  0.04987873  0.62280375  0.13314915  1
  O2-  O391  1  0.09398428  0.67096476  0.48997523  1
  O2-  O392  1  0.06066059  0.64814492  0.82557885  1
  O2-  O393  1  0.06487897  0.90784094  0.15040521  1
  O2-  O394  1  0.08633629  0.92649600  0.48228645  1
  O2-  O395  1  0.07840864  0.91295263  0.81542205  1
  O2-  O396  1  0.33196402  0.15967674  0.14930187  1
  O2-  O397  1  0.34539998  0.18653557  0.48439806  1
  O2-  O398  1  0.33255267  0.15266131  0.81619656  1
  O2-  O399  1  0.34301983  0.41237679  0.14044905  1
  O2-  O400  1  0.30269452  0.42330751  0.46958583  1
  O2-  O401  1  0.32191809  0.42611267  0.81894812  1
  O2-  O402  1  0.32913392  0.66465764  0.15676653  1
  O2-  O403  1  0.33006064  0.68568525  0.48170055  1
  O2-  O404  1  0.31938120  0.65124322  0.82133278  1
  O2-  O405  1  0.35852354  0.92614900  0.12617329  1
  O2-  O406  1  0.33488473  0.91500106  0.48097331  1
  O2-  O407  1  0.29974597  0.85439874  0.79805960  1
  O2-  O408  1  0.58702217  0.16159258  0.12965044  1
  O2-  O409  1  0.58265467  0.16532416  0.47770762  1
  O2-  O410  1  0.60387361  0.19246923  0.81138130  1
  O2-  O411  1  0.58283823  0.42036305  0.14078002  1
  O2-  O412  1  0.63444709  0.43733728  0.45852465  1
  O2-  O413  1  0.56468976  0.41611120  0.79338462  1
  O2-  O414  1  0.58089055  0.66564712  0.13839803  1
  O2-  O415  1  0.55619294  0.68370289  0.46611884  1
  O2-  O416  1  0.57470847  0.66257266  0.81404718  1
  O2-  O417  1  0.58835782  0.92176680  0.14026383  1
  O2-  O418  1  0.58239558  0.92305828  0.49044614  1
  O2-  O419  1  0.59640527  0.92833132  0.81846803  1
  O2-  O420  1  0.84436603  0.17257383  0.14279377  1
  O2-  O421  1  0.82806038  0.17844068  0.47731740  1
  O2-  O422  1  0.82929811  0.16705693  0.80490200  1
  O2-  O423  1  0.81225341  0.38546201  0.13776444  1
  O2-  O424  1  0.84326039  0.42818978  0.47808140  1
  O2-  O425  1  0.80243380  0.39536993  0.80874409  1
  O2-  O426  1  0.81729182  0.66523735  0.13499063  1
  O2-  O427  1  0.78560333  0.68968501  0.47952271  1
  O2-  O428  1  0.82709334  0.65816494  0.81352443  1
  O2-  O429  1  0.82735572  0.91682424  0.13927363  1
  O2-  O430  1  0.82499527  0.91790719  0.47338757  1
  O2-  O431  1  0.82459580  0.90452187  0.81230911  1
  O2-  O432  1  0.16593571  0.07190103  0.19146657  1
  O2-  O433  1  0.16481289  0.08696203  0.52712207  1
  O2-  O434  1  0.17171742  0.07856209  0.85147393  1
  O2-  O435  1  0.19957962  0.29374218  0.20480463  1
  O2-  O436  1  0.14843944  0.32214227  0.53185160  1
  O2-  O437  1  0.16748115  0.33626023  0.85916455  1
  O2-  O438  1  0.18483860  0.60207820  0.20844151  1
  O2-  O439  1  0.16589998  0.57405452  0.53427024  1
  O2-  O440  1  0.14497346  0.57457076  0.85733169  1
  O2-  O441  1  0.13383766  0.80095020  0.16894573  1
  O2-  O442  1  0.16826093  0.84113245  0.51709845  1
  O2-  O443  1  0.14430746  0.81410845  0.85601726  1
  O2-  O444  1  0.42337957  0.08097004  0.18495040  1
  O2-  O445  1  0.44457283  0.05185522  0.54342967  1
  O2-  O446  1  0.44467508  0.11305720  0.84646303  1
  O2-  O447  1  0.41936885  0.32669368  0.18610561  1
  O2-  O448  1  0.41923114  0.33789977  0.54483345  1
  O2-  O449  1  0.41967587  0.31945667  0.85780926  1
  O2-  O450  1  0.41734343  0.57974150  0.18131667  1
  O2-  O451  1  0.39889610  0.57967169  0.52333475  1
  O2-  O452  1  0.40583941  0.57627607  0.85791341  1
  O2-  O453  1  0.42542712  0.83901537  0.17536288  1
  O2-  O454  1  0.42085918  0.83614697  0.53068737  1
  O2-  O455  1  0.42343314  0.82517323  0.82283391  1
  O2-  O456  1  0.68017571  0.08869779  0.18217008  1
  O2-  O457  1  0.67052793  0.08912601  0.52297195  1
  O2-  O458  1  0.66918607  0.09129943  0.85556363  1
  O2-  O459  1  0.68202654  0.36741615  0.20811897  1
  O2-  O460  1  0.64200017  0.31684945  0.53131078  1
  O2-  O461  1  0.71672852  0.36343605  0.83534468  1
  O2-  O462  1  0.65586330  0.57821105  0.18126518  1
  O2-  O463  1  0.62952955  0.56291316  0.52714768  1
  O2-  O464  1  0.65895606  0.57191575  0.84418684  1
  O2-  O465  1  0.66276749  0.83181019  0.17981434  1
  O2-  O466  1  0.66247622  0.82939231  0.52215151  1
  O2-  O467  1  0.66408966  0.82913440  0.85634074  1
  O2-  O468  1  0.91635518  0.08149780  0.18374491  1
  O2-  O469  1  0.87163029  0.06355525  0.52667986  1
  O2-  O470  1  0.86604926  0.05392302  0.86418966  1
  O2-  O471  1  0.92756281  0.33872152  0.18726897  1
  O2-  O472  1  0.89360058  0.32798161  0.52773450  1
  O2-  O473  1  0.91295476  0.33304897  0.84500816  1
  O2-  O474  1  0.88577230  0.56757437  0.16663204  1
  O2-  O475  1  0.95325352  0.54135041  0.54767643  1
  O2-  O476  1  0.89110765  0.55728597  0.85390882  1
  O2-  O477  1  0.89702745  0.82657775  0.18431506  1
  O2-  O478  1  0.91839053  0.85170313  0.52207962  1
  O2-  O479  1  0.90876486  0.82494533  0.85414399  1
  O2-  O480  1  0.19335012  0.09471382  0.31407750  1
  O2-  O481  1  0.17437996  0.09357176  0.64307016  1
  O2-  O482  1  0.15975289  0.07523800  0.97534496  1
  O2-  O483  1  0.21320271  0.40511071  0.29377150  1
  O2-  O484  1  0.15295448  0.32478647  0.65388588  1
  O2-  O485  1  0.16708001  0.33583098  0.98118072  1
  O2-  O486  1  0.17168719  0.58352975  0.32784340  1
  O2-  O487  1  0.15600468  0.57091584  0.65551026  1
  O2-  O488  1  0.21739410  0.61053585  0.98598740  1
  O2-  O489  1  0.16139666  0.83069055  0.30980688  1
  O2-  O490  1  0.18501659  0.86832942  0.63971997  1
  O2-  O491  1  0.17736600  0.83523952  1.04293551  1
  O2-  O492  1  0.42750466  0.08195043  0.30907932  1
  O2-  O493  1  0.42098211  0.10016810  0.65703766  1
  O2-  O494  1  0.43443418  0.08963190  0.95952656  1
  O2-  O495  1  0.42978069  0.33031081  0.31138495  1
  O2-  O496  1  0.40275385  0.33338707  0.66669540  1
  O2-  O497  1  0.42172070  0.32824950  0.97450386  1
  O2-  O498  1  0.42353983  0.58268423  0.30703494  1
  O2-  O499  1  0.40111760  0.57553233  0.65396621  1
  O2-  O500  1  0.40146085  0.57777092  0.97775844  1
  O2-  O501  1  0.46002307  0.81479688  0.29496384  1
  O2-  O502  1  0.41516984  0.83369105  0.65521809  1
  O2-  O503  1  0.42035518  0.82221288  0.98772745  1
  O2-  O504  1  0.67101398  0.08357114  0.30697634  1
  O2-  O505  1  0.65863018  0.08510207  0.64620913  1
  O2-  O506  1  0.67169870  0.08672372  0.97685412  1
  O2-  O507  1  0.69118908  0.33644164  0.32160927  1
  O2-  O508  1  0.64072731  0.33654458  0.66213405  1
  O2-  O509  1  0.70408488  0.36713151  0.98851826  1
  O2-  O510  1  0.66462073  0.56791868  0.29851735  1
  O2-  O511  1  0.66621282  0.58572628  0.65576258  1
  O2-  O512  1  0.65731640  0.57966145  0.96996232  1
  O2-  O513  1  0.65584097  0.82246263  0.30383635  1
  O2-  O514  1  0.65386623  0.82658274  0.64581923  1
  O2-  O515  1  0.66603895  0.83102918  0.97856350  1
  O2-  O516  1  0.89957591  0.07002212  0.30960061  1
  O2-  O517  1  0.91609669  0.08040393  0.65217016  1
  O2-  O518  1  0.92200116  0.08493082  0.98452392  1
  O2-  O519  1  0.93854169  0.34220506  0.31768516  1
  O2-  O520  1  0.90347725  0.33425245  0.64170176  1
  O2-  O521  1  0.94407982  0.37209167  0.99461202  1
  O2-  O522  1  0.93095076  0.55995122  0.29814249  1
  O2-  O523  1  0.90107341  0.56951480  0.65617964  1
  O2-  O524  1  0.90123773  0.55887695  0.97788375  1
  O2-  O525  1  0.88973365  0.82133336  0.30876096  1
  O2-  O526  1  0.90529273  0.83630882  0.64347542  1
  O2-  O527  1  0.91289628  0.82335155  0.97955829  1
  O2-  O528  1  0.08636050  0.16590979  0.02340018  1
  O2-  O529  1  0.04635463  0.09111021  0.37036037  1
  O2-  O530  1  0.08401237  0.15948553  0.69001526  1
  O2-  O531  1  0.10715752  0.44852639  0.02382996  1
  O2-  O532  1  0.08853835  0.42419690  0.36946736  1
  O2-  O533  1  0.06303404  0.40145343  0.68868778  1
  O2-  O534  1  0.08610031  0.65942077  0.01204126  1
  O2-  O535  1  0.08696968  0.66672316  0.36507306  1
  O2-  O536  1  0.05898444  0.63153336  0.70953581  1
  O2-  O537  1  0.08042684  0.91420185  0.02626442  1
  O2-  O538  1  0.10633936  0.93988253  0.35700996  1
  O2-  O539  1  0.05620427  0.86768788  0.70124763  1
  O2-  O540  1  0.30457831  0.19529362  0.03288371  1
  O2-  O541  1  0.36039059  0.17438259  0.35501083  1
  O2-  O542  1  0.32127061  0.16544709  0.68539978  1
  O2-  O543  1  0.33519094  0.41183214  0.01533040  1
  O2-  O544  1  0.34937865  0.41631198  0.34623941  1
  O2-  O545  1  0.31675373  0.41334721  0.70056124  1
  O2-  O546  1  0.29955363  0.64537079  0.01044006  1
  O2-  O547  1  0.34386581  0.66203913  0.35334960  1
  O2-  O548  1  0.32165165  0.66206038  0.69532533  1
  O2-  O549  1  0.34215728  0.92490658  0.00213264  1
  O2-  O550  1  0.33549578  0.92086796  0.35150090  1
  O2-  O551  1  0.34660587  0.93416191  0.68809981  1
  O2-  O552  1  0.60228451  0.18049471  0.00948433  1
  O2-  O553  1  0.59052213  0.16434084  0.35052229  1
  O2-  O554  1  0.58259562  0.17074356  0.69337262  1
  O2-  O555  1  0.58660650  0.41781956  0.01853296  1
  O2-  O556  1  0.58247058  0.41874938  0.35011200  1
  O2-  O557  1  0.55688008  0.41415080  0.72805777  1
  O2-  O558  1  0.57219471  0.66167916  0.01418646  1
  O2-  O559  1  0.58952400  0.65350770  0.34319470  1
  O2-  O560  1  0.56475360  0.65751681  0.69118152  1
  O2-  O561  1  0.58774329  0.91750410  0.01779243  1
  O2-  O562  1  0.57601162  0.93910922  0.37591565  1
  O2-  O563  1  0.58185365  0.91946810  0.69403891  1
  O2-  O564  1  0.84001909  0.18284256  0.01815480  1
  O2-  O565  1  0.84007315  0.17423173  0.34843507  1
  O2-  O566  1  0.82762058  0.16532795  0.68114431  1
  O2-  O567  1  0.86566329  0.47671523  0.01105902  1
  O2-  O568  1  0.84547031  0.41376125  0.35032680  1
  O2-  O569  1  0.81221465  0.40255477  0.68570490  1
  O2-  O570  1  0.82553244  0.65105036  0.01305210  1
  O2-  O571  1  0.83658515  0.63922133  0.32772637  1
  O2-  O572  1  0.82891580  0.66450066  0.68754857  1
  O2-  O573  1  0.83446662  0.91585613  0.01708004  1
  O2-  O574  1  0.81439946  0.90644376  0.35286512  1
  O2-  O575  1  0.81918377  0.90961682  0.69001123  1
