# generated using pymatgen
data_H2O
_symmetry_space_group_name_H-M   'P 1'
_cell_length_a   17.99588584
_cell_length_b   17.99538385
_cell_length_c   21.99560686
_cell_angle_alpha   90.00328753
_cell_angle_beta   89.99768419
_cell_angle_gamma   120.00567776
_symmetry_Int_Tables_number   1
_chemical_formula_structural   H2O
_chemical_formula_sum   'H384 O192'
_cell_volume   6168.45035698
_cell_formula_units_Z   192
loop_
 _symmetry_equiv_pos_site_id
 _symmetry_equiv_pos_as_xyz
  1  'x, y, z'
loop_
 _atom_type_symbol
 _atom_type_oxidation_number
  H+  1.0
  O2-  -2.0
loop_
 _atom_site_type_symbol
 _atom_site_label
 _atom_site_symmetry_multiplicity
 _atom_site_fract_x
 _atom_site_fract_y
 _atom_site_fract_z
 _atom_site_occupancy
  H+  H0  1  0.37961940  0.10751539  0.82420644  1
  H+  H1  1  0.62049335  0.00210097  0.66061665  1
  H+  H2  1  0.47294645  0.11696631  0.65995572  1
  H+  H3  1  0.11489523  0.24469380  0.17105066  1
  H+  H4  1  0.85972547  0.63269561  1.00567737  1
  H+  H5  1  0.05651121  0.38286264  0.74982874  1
  H+  H6  1  0.97401931  0.61535162  0.98673241  1
  H+  H7  1  0.37393172  0.30585018  0.57681158  1
  H+  H8  1  0.23505011  0.37906537  0.00192693  1
  H+  H9  1  0.61241900  0.52961705  0.49758314  1
  H+  H10  1  0.63010435  0.26187203  0.51935712  1
  H+  H11  1  0.22712880  0.85864790  0.16044802  1
  H+  H12  1  0.36998638  0.59990023  0.32701876  1
  H+  H13  1  0.63499185  0.98177221  0.20652102  1
  H+  H14  1  0.40946662  0.58460197  0.60234697  1
  H+  H15  1  0.66901688  -0.00025587  0.18155183  1
  H+  H16  1  0.88660995  0.40832840  0.82420022  1
  H+  H17  1  0.11253826  0.48557503  0.49207457  1
  H+  H18  1  0.36815456  0.99862919  -0.00159418  1
  H+  H19  1  0.74038013  0.15313970  0.18296574  1
  H+  H20  1  0.13324716  0.50265527  0.67359939  1
  H+  H21  1  0.62823445  0.51174775  0.17145997  1
  H+  H22  1  0.61441669  0.75523701  0.33077087  1
  H+  H23  1  0.26856574  0.85470507  0.34973506  1
  H+  H24  1  0.81562164  0.36982070  0.38554476  1
  H+  H25  1  0.65941445  0.36057696  0.50483158  1
  H+  H26  1  0.35369350  0.67617209  0.75177295  1
  H+  H27  1  0.32834576  0.19892174  0.50267546  1
  H+  H28  1  0.90458331  0.25639496  0.00017600  1
  H+  H29  1  0.22623145  0.11135971  0.16799451  1
  H+  H30  1  0.38244015  0.34466379  0.17795327  1
  H+  H31  1  0.11639172  0.15660642  0.17139287  1
  H+  H32  1  0.14214227  0.75636359  0.52881587  1
  H+  H33  1  0.13519353  0.52819363  0.98578381  1
  H+  H34  1  0.93763600  0.34547828  0.60475372  1
  H+  H35  1  0.32404978  0.66815399  0.05435883  1
  H+  H36  1  0.59366763  0.49875061  0.65218082  1
  H+  H37  1  0.12305929  0.86707477  0.85917450  1
  H+  H38  1  0.11085284  0.72637284  0.34814402  1
  H+  H39  1  0.88926744  0.02863234  0.32904363  1
  H+  H40  1  0.35493819  0.62593922  0.49608886  1
  H+  H41  1  0.26964044  0.14151450  0.67191963  1
  H+  H42  1  0.36109068  0.21646558  0.16851197  1
  H+  H43  1  0.22553889  0.36420023  0.33663088  1
  H+  H44  1  0.21380933  0.60985838  0.16324027  1
  H+  H45  1  0.34537820  0.72254107  0.15646182  1
  H+  H46  1  0.09299487  -0.02650980  0.33258894  1
  H+  H47  1  0.75022966  0.64697174  0.49736547  1
  H+  H48  1  0.61032342  0.13601879  0.82704142  1
  H+  H49  1  0.63305033  0.86217134  0.33335229  1
  H+  H50  1  0.32638175  0.17304277  0.76769734  1
  H+  H51  1  0.89813143  0.88626720  0.65818482  1
  H+  H52  1  0.27990733  0.27891937  0.55797741  1
  H+  H53  1  0.61532592  0.38457830  0.67952096  1
  H+  H54  1  0.35403400  0.63925364  0.15217142  1
  H+  H55  1  0.13943429  0.37629480  0.17952099  1
  H+  H56  1  0.88733467  0.11667986  0.51213514  1
  H+  H57  1  0.35445930  0.39021101  0.68117960  1
  H+  H58  1  0.20754661  0.09076923  0.50864411  1
  H+  H59  1  0.47764946  0.86214419  0.50122304  1
  H+  H60  1  0.13977698  0.54095545  0.82894977  1
  H+  H61  1  0.67652761  0.35445370  0.21395429  1
  H+  H62  1  0.60308203  0.69964591  0.16728212  1
  H+  H63  1  0.50262718  0.40529791  0.50473486  1
  H+  H64  1  0.13217442  0.60462935  0.51356338  1
  H+  H65  1  1.01882918  0.64029104  0.15066389  1
  H+  H66  1  0.65776293  0.11775527  0.34142166  1
  H+  H67  1  0.86570960  0.73493259  0.83467434  1
  H+  H68  1  0.36186016  0.98160579  0.08655889  1
  H+  H69  1  0.15035534  0.11955652  1.00147907  1
  H+  H70  1  0.95668766  0.23585562  0.04659960  1
  H+  H71  1  0.60952825  0.38553127  0.14752575  1
  H+  H72  1  0.88589617  0.27107399  0.16369057  1
  H+  H73  1  0.87074751  0.86779938  0.50592414  1
  H+  H74  1  0.38322726  0.02002109  0.17638906  1
  H+  H75  1  0.89412983  0.27447882  0.50797260  1
  H+  H76  1  0.87865503  0.25309656  0.68038262  1
  H+  H77  1  0.77288714  0.89657971  0.49511079  1
  H+  H78  1  0.86413216  -0.01534968  0.50131209  1
  H+  H79  1  -0.00886138  0.38284762  -0.00974070  1
  H+  H80  1  0.73266121  0.77783802  0.62276616  1
  H+  H81  1  0.97380749  0.11164214  0.51355231  1
  H+  H82  1  0.67145533  0.59657155  0.90243852  1
  H+  H83  1  0.10930257  0.87016259  0.17558453  1
  H+  H84  1  0.62661050  0.85651882  0.83884955  1
  H+  H85  1  0.89889590  0.35996479  0.31385980  1
  H+  H86  1  0.84834938  0.86142472  0.00911456  1
  H+  H87  1  0.89737611  0.03009769  0.17068477  1
  H+  H88  1  0.89146434  0.02544704  0.83245378  1
  H+  H89  1  0.77749120  0.38904178  0.14839199  1
  H+  H90  1  0.63271517  0.52094609  0.98633129  1
  H+  H91  1  0.36558416  0.13126212  1.01765455  1
  H+  H92  1  0.89202423  0.53539115  0.83253773  1
  H+  H93  1  0.94998457  0.85822003  0.32851807  1
  H+  H94  1  0.57982362  0.58080363  0.65250614  1
  H+  H95  1  0.50367146  0.86818420  0.66931312  1
  H+  H96  1  0.97552780  0.87105741  0.84820507  1
  H+  H97  1  0.64695772  0.27767553  0.83321330  1
  H+  H98  1  0.59434937  0.87080022  0.67450944  1
  H+  H99  1  0.75395247  0.41755593  0.30134854  1
  H+  H100  1  0.35232526  0.21596158  0.34186381  1
  H+  H101  1  0.71435194  0.08265169  0.66095489  1
  H+  H102  1  0.91081834  0.43844588  0.39336820  1
  H+  H103  1  0.60452397  0.64647786  0.48939203  1
  H+  H104  1  0.89693813  0.74362697  0.68152331  1
  H+  H105  1  0.37175258  0.52804659  0.16932770  1
  H+  H106  1  0.88028467  0.76624098  0.99699691  1
  H+  H107  1  0.62103464  0.84793897  -0.01276460  1
  H+  H108  1  0.88055282  0.60778385  0.17281463  1
  H+  H109  1  0.39133192  0.52743697  0.50878841  1
  H+  H110  1  0.37562460  0.09977360  0.51133073  1
  H+  H111  1  0.92976714  0.63096707  0.67581642  1
  H+  H112  1  0.74127362  0.63413251  0.68306855  1
  H+  H113  1  0.23692919  0.85481606  0.52649624  1
  H+  H114  1  0.21868638  0.59870736  0.50879132  1
  H+  H115  1  0.46922985  0.61157692  -0.00566813  1
  H+  H116  1  0.64145436  0.27887929  -0.01037837  1
  H+  H117  1  0.97972237  0.87392065  0.65231733  1
  H+  H118  1  0.11210771  0.48093796  0.15932877  1
  H+  H119  1  0.20577238  0.85456941  -0.05144128  1
  H+  H120  1  0.35614300  0.23198675  0.67474466  1
  H+  H121  1  0.10318899  0.72302217  -0.01735313  1
  H+  H122  1  0.27519801  0.39903025  0.49771678  1
  H+  H123  1  0.36908281  0.76062342  0.97556517  1
  H+  H124  1  0.15114739  0.28977253  0.00427673  1
  H+  H125  1  0.72911580  0.36191515  0.66836395  1
  H+  H126  1  0.25258994  0.62532075  0.67700970  1
  H+  H127  1  0.10601090  0.95563742  0.18559151  1
  H+  H128  1  1.03241379  0.65207165  0.81250580  1
  H+  H129  1  0.78857761  0.39075506  0.82601807  1
  H+  H130  1  0.77658325  0.38976722  -0.00184392  1
  H+  H131  1  0.63113938  0.60901585  -0.00758907  1
  H+  H132  1  0.34773194  0.94866653  0.34824898  1
  H+  H133  1  0.96745866  0.86032904  0.99202778  1
  H+  H134  1  0.77547645  0.37564838  0.52098105  1
  H+  H135  1  0.61935857  0.40362826  0.32649906  1
  H+  H136  1  0.83809321  0.16773216  0.09668774  1
  H+  H137  1  0.38598870  0.35989996  -0.00551008  1
  H+  H138  1  0.65842026  0.58193328  0.26666711  1
  H+  H139  1  0.11291482  0.86990284  0.69419338  1
  H+  H140  1  0.40419780  0.62152040  0.83495303  1
  H+  H141  1  0.35314055  -0.02038133  0.80167870  1
  H+  H142  1  0.23308467  0.10991291  0.99966622  1
  H+  H143  1  0.35670190  0.42999978  0.21157228  1
  H+  H144  1  0.10892426  0.14109148  0.34231784  1
  H+  H145  1  0.99107116  0.37180219  0.66821747  1
  H+  H146  1  0.38920744  0.78392111  0.81784973  1
  H+  H147  1  0.37413152  0.91083825  0.11987428  1
  H+  H148  1  0.70844390  0.84315510  -0.00464786  1
  H+  H149  1  0.47916330  0.83996643  0.13924038  1
  H+  H150  1  0.11095166  0.63932671  -0.00691384  1
  H+  H151  1  0.33962651  0.86320831  0.97213004  1
  H+  H152  1  0.10361923  0.97229317  -0.00587712  1
  H+  H153  1  0.14203833  0.62914410  0.83127029  1
  H+  H154  1  0.74572583  0.11719478  0.33756641  1
  H+  H155  1  0.46485634  0.60871309  0.17056791  1
  H+  H156  1  0.38583826  0.27045174  0.99266287  1
  H+  H157  1  0.12210167  0.51644729  0.33506438  1
  H+  H158  1  0.04192958  0.20705317  0.66531956  1
  H+  H159  1  0.81803877  0.43880747  0.46825929  1
  H+  H160  1  0.63270669  0.01919890  0.83884647  1
  H+  H161  1  0.35653628  0.12553125  0.16911029  1
  H+  H162  1  0.13428438  0.06093506  0.13797280  1
  H+  H163  1  0.09020223  0.34728999  0.69717510  1
  H+  H164  1  0.84875768  0.72588344  0.34491241  1
  H+  H165  1  0.61617033  0.15233774  0.17618322  1
  H+  H166  1  0.63579286  0.36485637  -0.01293699  1
  H+  H167  1  0.34384560  0.63059996  0.66806171  1
  H+  H168  1  0.02452123  0.38429704  0.33103608  1
  H+  H169  1  0.50534895  0.12306048  0.50913682  1
  H+  H170  1  0.71299447  0.49984298  0.46669603  1
  H+  H171  1  0.75488020  0.64864555  0.65080875  1
  H+  H172  1  0.89044203  0.13023877  0.66862282  1
  H+  H173  1  0.60184616  0.71540203  0.00753987  1
  H+  H174  1  0.35973585  0.36519037  0.83685440  1
  H+  H175  1  0.37378191  0.76389240  0.65679562  1
  H+  H176  1  0.83450599  0.94229900  0.00843045  1
  H+  H177  1  0.46631109  0.10386832  0.82319069  1
  H+  H178  1  0.42842448  0.81497371  0.40712757  1
  H+  H179  1  0.02026643  0.14019983  0.80026629  1
  H+  H180  1  0.79506715  0.89619129  0.16680661  1
  H+  H181  1  0.11705764  0.39168929  0.34133988  1
  H+  H182  1  0.46020958  0.07763774  1.01371217  1
  H+  H183  1  0.63286801  0.39881256  0.82533842  1
  H+  H184  1  0.76255819  0.63542794  0.34428847  1
  H+  H185  1  0.34737663  0.47372617  0.67970785  1
  H+  H186  1  0.63386085  0.13813710  0.01082782  1
  H+  H187  1  0.34968192  0.38013438  0.50175068  1
  H+  H188  1  0.36438196  0.47503949  0.82983743  1
  H+  H189  1  0.85310892  -0.10623784  0.34024097  1
  H+  H190  1  0.12196911  0.61303751  0.34200511  1
  H+  H191  1  0.87439972  -0.00265599  0.67913838  1
  H+  H192  1  0.02877596  0.63731786  0.51550495  1
  H+  H193  1  0.36174205  0.47052972  0.34249031  1
  H+  H194  1  0.07639350  0.87732132  0.33011030  1
  H+  H195  1  0.01673546  0.81357285  0.71433443  1
  H+  H196  1  0.52022739  0.38423442  -0.00386987  1
  H+  H197  1  0.87421949  0.22812972  0.33720289  1
  H+  H198  1  0.63019610  0.48595117  0.82634267  1
  H+  H199  1  0.60988194  0.73818067  0.48911485  1
  H+  H200  1  0.34016610  0.12126446  0.34126852  1
  H+  H201  1  0.77191092  0.88726979  0.82711731  1
  H+  H202  1  0.73655598  0.63426061  0.84059858  1
  H+  H203  1  0.89724650  0.37481260  0.98536374  1
  H+  H204  1  0.09462384  0.88315734  -0.02462503  1
  H+  H205  1  0.88850678  0.53421654  0.33544293  1
  H+  H206  1  0.21252233  0.10714201  0.32393279  1
  H+  H207  1  0.08892073  0.42723020  0.06510796  1
  H+  H208  1  0.40832176  0.07894611  0.57506692  1
  H+  H209  1  0.34543545  0.83168834  0.21436929  1
  H+  H210  1  0.61618504  0.22409099  0.67492294  1
  H+  H211  1  0.72415790  0.10871533  0.84360414  1
  H+  H212  1  0.29347089  0.89597245  0.74238266  1
  H+  H213  1  0.14026615  0.03343618  0.66913842  1
  H+  H214  1  0.64446551  0.84030435  0.16964119  1
  H+  H215  1  0.12539015  0.25759522  0.51779385  1
  H+  H216  1  0.15385605  0.13018249  0.84842792  1
  H+  H217  1  0.15340952  0.08107819  0.26440356  1
  H+  H218  1  0.12592037  0.60927700  0.16244873  1
  H+  H219  1  0.02206671  0.14299046  0.34315984  1
  H+  H220  1  0.71532391  0.08462374  0.98442961  1
  H+  H221  1  0.35236497  0.71333869  0.49141287  1
  H+  H222  1  0.86704740  0.47649535  0.15531202  1
  H+  H223  1  0.91056279  0.53175545  0.52845526  1
  H+  H224  1  0.51828228  0.37910848  0.15587833  1
  H+  H225  1  0.46257918  0.61455802  0.66408426  1
  H+  H226  1  0.13398000  0.27711096  0.33613141  1
  H+  H227  1  0.88125701  0.61884521  0.33523325  1
  H+  H228  1  0.50770774  0.63527129  0.33741320  1
  H+  H229  1  0.85758424  0.13105120  0.83490769  1
  H+  H230  1  0.19193737  0.89247672  0.31374657  1
  H+  H231  1  0.53681549  0.89192255  0.34889076  1
  H+  H232  1  0.84960080  0.75381331  0.50189780  1
  H+  H233  1  0.87399616  0.13920681  0.34179149  1
  H+  H234  1  0.75383800  0.86065473  0.65874910  1
  H+  H235  1  0.61676980  0.71996695  0.67715088  1
  H+  H236  1  0.63225456  0.10930586  0.51331293  1
  H+  H237  1  0.52394308  0.63228183  0.83734548  1
  H+  H238  1  0.47106960  0.10777253  0.18600883  1
  H+  H239  1  0.71777211  0.60187115  0.17242242  1
  H+  H240  1  0.10906036  0.23664943  0.71727206  1
  H+  H241  1  0.57092747  0.91699444  0.14375701  1
  H+  H242  1  0.34948249  0.88549501  0.80518939  1
  H+  H243  1  1.01910872  0.64201092  0.34961261  1
  H+  H244  1  0.48371703  0.36948245  0.66508598  1
  H+  H245  1  0.89736471  0.53037223  0.66892960  1
  H+  H246  1  0.43861257  0.07664740  0.33798667  1
  H+  H247  1  0.93631419  0.06085747  0.97508619  1
  H+  H248  1  0.11363376  0.98528132  0.83710137  1
  H+  H249  1  0.89467595  0.36407469  0.51193325  1
  H+  H250  1  0.38938309  0.84961330  0.35996307  1
  H+  H251  1  0.10261667  0.12217608  0.49920684  1
  H+  H252  1  0.78641098  0.19410977  0.70529120  1
  H+  H253  1  0.61276832  0.72814537  0.83368828  1
  H+  H254  1  1.01805673  0.38525271  0.49198229  1
  H+  H255  1  0.38544218  0.85849513  0.50421698  1
  H+  H256  1  0.60944374  0.13114757  0.67176996  1
  H+  H257  1  0.51415966  0.37260140  0.51544014  1
  H+  H258  1  0.85950290  0.13339829  0.15742471  1
  H+  H259  1  0.16464020  0.34450749  0.24239491  1
  H+  H260  1  0.36279708  0.26452719  0.83682359  1
  H+  H261  1  0.03188826  0.32852898  0.84835285  1
  H+  H262  1  0.61063880  0.18785333  0.27863997  1
  H+  H263  1  0.16861383  0.29598824  0.61901122  1
  H+  H264  1  0.93260841  0.14703140  0.98011932  1
  H+  H265  1  0.47389823  0.35596350  0.33276801  1
  H+  H266  1  0.63360276  0.27765895  0.16547995  1
  H+  H267  1  0.83855542  0.17179145  0.43713147  1
  H+  H268  1  0.88719433  0.85261342  0.17520029  1
  H+  H269  1  0.62675165  0.61508444  0.32382807  1
  H+  H270  1  0.38491303  0.35526089  0.33298416  1
  H+  H271  1  0.86289875  0.64300601  0.83167870  1
  H+  H272  1  0.86994764  0.39417349  0.67246843  1
  H+  H273  1  0.61528845  -0.01882824  0.49805983  1
  H+  H274  1  1.00752113  0.87726690  0.49029612  1
  H+  H275  1  0.69822684  0.92548081  0.20263403  1
  H+  H276  1  0.67808305  0.32061614  0.30671800  1
  H+  H277  1  0.21681033  0.61050791  0.33929619  1
  H+  H278  1  0.77027845  0.63188262  1.00650576  1
  H+  H279  1  0.11585050  0.73810073  0.82957717  1
  H+  H280  1  0.45009608  0.72596904  0.77130611  1
  H+  H281  1  0.26772639  0.38506998  0.17791463  1
  H+  H282  1  0.47451719  0.62212821  0.50600044  1
  H+  H283  1  0.51486824  0.88862912  0.82492181  1
  H+  H284  1  0.77590561  0.14205485  0.49561234  1
  H+  H285  1  0.34887085  0.70792461  0.35074469  1
  H+  H286  1  0.35624374  -0.02861186  0.50812543  1
  H+  H287  1  0.26993567  0.13696467  0.82933844  1
  H+  H288  1  0.88345135  0.69987382  0.74649487  1
  H+  H289  1  0.33548838  0.41531754  0.40396013  1
  H+  H290  1  0.57520140  0.91077823  0.76771492  1
  H+  H291  1  0.92057516  0.59257571  0.89246355  1
  H+  H292  1  0.39402618  0.05691717  0.27318436  1
  H+  H293  1  0.83882463  0.42016804  0.73254217  1
  H+  H294  1  0.62928378  -0.01870346  0.34173067  1
  H+  H295  1  0.39652563  0.83131042  0.88021146  1
  H+  H296  1  0.41772736  0.58652059  0.90021777  1
  H+  H297  1  0.84044829  0.91028826  0.10306571  1
  H+  H298  1  0.46280059  0.42215284  0.62188573  1
  H+  H299  1  0.58476776  0.16586988  0.76607805  1
  H+  H300  1  0.07656819  0.67096528  0.08944880  1
  H+  H301  1  0.83783111  0.41993520  0.05705865  1
  H+  H302  1  0.26454484  0.63388869  0.99467169  1
  H+  H303  1  0.28207119  0.86646745  0.02491044  1
  H+  H304  1  0.57718942  0.41521353  0.05646672  1
  H+  H305  1  0.89168769  0.81900145  0.26982363  1
  H+  H306  1  0.66575529  0.07625721  0.56814852  1
  H+  H307  1  0.16335174  0.58731148  0.92449921  1
  H+  H308  1  0.31362440  0.64289686  0.40545865  1
  H+  H309  1  0.11601454  0.00567568  0.50908031  1
  H+  H310  1  0.83774609  0.93266087  0.40042047  1
  H+  H311  1  0.13048417  0.72736852  0.72471737  1
  H+  H312  1  0.31581644  0.15071814  0.43869138  1
  H+  H313  1  0.65795168  0.07315426  0.92597911  1
  H+  H314  1  0.41239211  0.81945685  0.59674599  1
  H+  H315  1  0.65742264  0.82624012  0.89823368  1
  H+  H316  1  0.45700487  0.85082009  0.97161646  1
  H+  H317  1  0.67701011  0.33621591  0.89256790  1
  H+  H318  1  0.12141442  0.39666292  0.00756551  1
  H+  H319  1  0.58970089  0.42029837  0.73874311  1
  H+  H320  1  0.14060066  0.76547446  0.16461232  1
  H+  H321  1  0.88597045  0.52547600  0.98604885  1
  H+  H322  1  0.05540117  0.15929010  0.00743739  1
  H+  H323  1  0.41680431  0.81705709  0.24085554  1
  H+  H324  1  0.18199051  0.82189375  0.59240942  1
  H+  H325  1  0.02651949  0.38755283  0.15701744  1
  H+  H326  1  0.56682084  0.15586938  0.45143048  1
  H+  H327  1  0.86092548  0.88666085  0.83044105  1
  H+  H328  1  0.88760476  0.36167635  0.16401280  1
  H+  H329  1  0.32533631  0.41454723  0.77056469  1
  H+  H330  1  0.34991310  0.42563354  0.07089654  1
  H+  H331  1  0.57000791  0.66972681  0.39764700  1
  H+  H332  1  0.85165530  0.71270519  0.16305768  1
  H+  H333  1  0.64757448  0.43603062  0.41705169  1
  H+  H334  1  0.39390951  0.32597597  0.89962955  1
  H+  H335  1  0.59409610  0.95916364  -0.00808965  1
  H+  H336  1  0.81365947  0.67634939  0.43660693  1
  H+  H337  1  0.41721471  0.32250144  0.23817886  1
  H+  H338  1  0.90322438  0.83486543  0.56610520  1
  H+  H339  1  0.08896990  0.67550557  0.45407053  1
  H+  H340  1  0.33748773  0.16788078  0.07188782  1
  H+  H341  1  0.82435600  0.65542846  0.10214236  1
  H+  H342  1  0.96801009  0.84112366  0.18652579  1
  H+  H343  1  0.06524501  0.91265668  0.43218584  1
  H+  H344  1  0.63325304  0.63425229  0.84017902  1
  H+  H345  1  0.57408301  0.65395749  0.06670371  1
  H+  H346  1  0.60684333  0.48260313  0.33846328  1
  H+  H347  1  0.90914368  0.83402190  0.90427632  1
  H+  H348  1  0.07674402  0.41960878  0.42690562  1
  H+  H349  1  0.62553336  0.56861698  0.56366107  1
  H+  H350  1  0.84343309  0.93060748  0.73559951  1
  H+  H351  1  0.07972591  0.91385813  0.78298416  1
  H+  H352  1  0.07781758  0.16015011  0.44092361  1
  H+  H353  1  0.68625802  0.21745207  0.05244949  1
  H+  H354  1  0.66686741  0.83030060  0.27288873  1
  H+  H355  1  0.94353896  0.09956233  0.88190610  1
  H+  H356  1  0.56974818  0.20444558  0.33595078  1
  H+  H357  1  0.92450923  0.32813854  0.25369580  1
  H+  H358  1  0.66605707  0.33093885  0.61111790  1
  H+  H359  1  0.17509296  0.82629309  0.26103795  1
  H+  H360  1  0.55140428  0.88836296  0.04523457  1
  H+  H361  1  0.32052901  0.90746556  0.44967826  1
  H+  H362  1  0.37880893  0.61066505  0.99069765  1
  H+  H363  1  0.60087523  0.61184196  0.16277438  1
  H+  H364  1  0.91897134  0.08819727  0.26833839  1
  H+  H365  1  0.91969255  0.10014056  0.60938114  1
  H+  H366  1  0.17679826  0.08475881  0.90379980  1
  H+  H367  1  0.57839916  0.66304244  0.73704477  1
  H+  H368  1  0.15202307  0.55496282  0.61210826  1
  H+  H369  1  0.63706188  0.86984540  0.51176574  1
  H+  H370  1  0.09730113  0.18123776  0.07468646  1
  H+  H371  1  0.16086806  0.07535057  0.60351222  1
  H+  H372  1  0.57695785  0.15958054  0.11297297  1
  H+  H373  1  0.67373905  0.83296613  0.56487734  1
  H+  H374  1  0.69137003  0.12228081  0.24655745  1
  H+  H375  1  0.95759400  0.37365491  0.89469044  1
  H+  H376  1  0.59502287  0.92270342  0.43868230  1
  H+  H377  1  0.38614080  0.12115569  0.66000716  1
  H+  H378  1  0.37161170  0.48184266  0.01027082  1
  H+  H379  1  0.83916282  0.18485880  0.78845623  1
  H+  H380  1  0.97858249  0.12494891  0.17485763  1
  H+  H381  1  0.40429029  0.58031516  0.26540625  1
  H+  H382  1  0.94147242  0.59502788  0.58509237  1
  H+  H383  1  0.91803339  0.58526810  0.23114093  1
  O2-  O384  1  0.08496445  0.18412958  0.15492763  1
  O2-  O385  1  0.07488863  0.15642764  0.48613511  1
  O2-  O386  1  0.08024690  0.16889147  0.78371188  1
  O2-  O387  1  0.08824874  0.41900945  0.14534979  1
  O2-  O388  1  0.07853277  0.42175376  0.47300017  1
  O2-  O389  1  -0.00692274  0.33598303  0.82092800  1
  O2-  O390  1  0.07879421  0.67090672  0.13474358  1
  O2-  O391  1  0.09330681  0.67086834  0.49852266  1
  O2-  O392  1  0.09448756  0.68630171  0.80321123  1
  O2-  O393  1  0.07170845  0.89562089  0.17294355  1
  O2-  O394  1  0.06760350  0.90930913  0.47687742  1
  O2-  O395  1  0.07945331  0.92147087  0.82787673  1
  O2-  O396  1  0.32844055  0.15653710  0.15179686  1
  O2-  O397  1  0.31454293  0.14307278  0.48342889  1
  O2-  O398  1  0.33049063  0.17353062  0.81305656  1
  O2-  O399  1  0.33241618  0.41340538  0.17074390  1
  O2-  O400  1  0.33474928  0.42183750  0.48329093  1
  O2-  O401  1  0.32993487  0.41449902  0.81672683  1
  O2-  O402  1  0.32324767  0.66763371  0.13479416  1
  O2-  O403  1  0.32026681  0.65156919  0.47926494  1
  O2-  O404  1  0.39299797  0.69525370  0.78943546  1
  O2-  O405  1  0.33989338  0.93914166  0.12108081  1
  O2-  O406  1  0.32545136  0.90859734  0.49466417  1
  O2-  O407  1  0.31791722  0.91496454  0.79036125  1
  O2-  O408  1  0.57171239  0.16469918  0.15739985  1
  O2-  O409  1  0.56882562  0.15482284  0.49562981  1
  O2-  O410  1  0.58341882  0.16893261  0.81150438  1
  O2-  O411  1  0.57586390  0.41439710  0.13696072  1
  O2-  O412  1  0.68920743  0.44236496  0.44976230  1
  O2-  O413  1  0.60043545  0.42700241  0.81109837  1
  O2-  O414  1  0.56963395  0.64319569  0.14879382  1
  O2-  O415  1  0.57653049  0.67799619  0.47265927  1
  O2-  O416  1  0.58643194  0.66488234  0.82141355  1
  O2-  O417  1  0.53741007  0.86135550  0.12340011  1
  O2-  O418  1  0.58592249  0.91973561  0.48332763  1
  O2-  O419  1  0.57657663  0.91183240  0.81306438  1
  O2-  O420  1  0.82952695  0.16374101  0.14118906  1
  O2-  O421  1  0.83723669  0.17323779  0.48255017  1
  O2-  O422  1  0.82410155  0.16113440  0.82971844  1
  O2-  O423  1  0.83946022  0.41768958  0.13711628  1
  O2-  O424  1  0.83335184  0.41382139  0.50206020  1
  O2-  O425  1  0.84764264  0.42837189  0.80915736  1
  O2-  O426  1  0.82099250  0.65202295  0.14769413  1
  O2-  O427  1  0.81092090  0.68151975  0.48259720  1
  O2-  O428  1  0.83212718  0.67464972  0.81827059  1
  O2-  O429  1  0.85214104  0.92133359  0.14758847  1
  O2-  O430  1  0.83476236  0.92485177  0.48327557  1
  O2-  O431  1  0.83236284  0.91783650  0.81307743  1
  O2-  O432  1  0.16244071  0.08344864  0.17712240  1
  O2-  O433  1  0.14823815  0.06637255  0.52510504  1
  O2-  O434  1  0.17402966  0.08559523  0.85865081  1
  O2-  O435  1  0.16882005  0.34530413  0.19698655  1
  O2-  O436  1  0.15687031  0.31883565  0.53277295  1
  O2-  O437  1  0.13181245  0.19739050  0.83620297  1
  O2-  O438  1  0.15486867  0.57958920  0.17998792  1
  O2-  O439  1  0.15669612  0.56589715  0.52121195  1
  O2-  O440  1  0.16828870  0.59649920  0.84921540  1
  O2-  O441  1  0.17589401  0.82342997  0.18528950  1
  O2-  O442  1  0.17750083  0.81890909  0.54652418  1
  O2-  O443  1  0.14868358  0.83021046  0.87126309  1
  O2-  O444  1  0.40975577  0.07431118  0.20029806  1
  O2-  O445  1  0.40787161  0.07219966  0.52779089  1
  O2-  O446  1  0.40363102  0.06898072  0.83063612  1
  O2-  O447  1  0.41641480  0.31874935  0.19253168  1
  O2-  O448  1  0.33461542  0.28606738  0.54127413  1
  O2-  O449  1  0.38835440  0.32617880  0.85405030  1
  O2-  O450  1  0.40467671  0.58792950  0.18448128  1
  O2-  O451  1  0.41521357  0.58805118  0.52282236  1
  O2-  O452  1  0.42732702  0.58741972  0.85506461  1
  O2-  O453  1  0.39359825  0.82413418  0.20250098  1
  O2-  O454  1  0.41417648  0.82313222  0.50457537  1
  O2-  O455  1  0.40506537  0.84117564  0.83541285  1
  O2-  O456  1  0.69619457  0.15485027  0.20903251  1
  O2-  O457  1  0.66755010  0.08216361  0.52280746  1
  O2-  O458  1  0.66098697  0.07821555  0.85643055  1
  O2-  O459  1  0.66944697  0.34130036  0.16967258  1
  O2-  O460  1  0.66756074  0.32219707  0.53317249  1
  O2-  O461  1  0.68234030  0.33845121  0.84751149  1
  O2-  O462  1  0.65709808  0.57169188  0.18852893  1
  O2-  O463  1  0.64560801  0.58417132  0.51897080  1
  O2-  O464  1  0.67360469  0.60437628  0.85591198  1
  O2-  O465  1  0.69023640  0.86722015  0.20016706  1
  O2-  O466  1  0.66791175  0.83732657  0.52026313  1
  O2-  O467  1  0.65792457  0.82637954  0.85263757  1
  O2-  O468  1  0.91674606  0.08884464  0.18672341  1
  O2-  O469  1  0.91336961  0.08393738  0.52973685  1
  O2-  O470  1  0.92406547  0.08886466  0.83901847  1
  O2-  O471  1  0.91767828  0.33116904  0.17945180  1
  O2-  O472  1  0.92939815  0.33643020  0.52114389  1
  O2-  O473  1  0.97795058  0.39927262  0.85305755  1
  O2-  O474  1  0.91585222  0.58158787  0.18630584  1
  O2-  O475  1  0.94197703  0.59323014  0.53812301  1
  O2-  O476  1  0.91974829  0.59605455  0.84715271  1
  O2-  O477  1  0.90439835  0.81330301  0.19434570  1
  O2-  O478  1  0.89291992  0.82758334  0.52024505  1
  O2-  O479  1  0.91252433  0.83710224  0.85877062  1
  O2-  O480  1  0.15159374  0.07757004  0.30907661  1
  O2-  O481  1  0.17143724  0.08801004  0.64789636  1
  O2-  O482  1  0.17287069  0.08307494  0.98489825  1
  O2-  O483  1  0.16507963  0.33859270  0.32163423  1
  O2-  O484  1  0.20788705  0.31283649  0.58283826  1
  O2-  O485  1  0.17396327  0.34956570  0.99007973  1
  O2-  O486  1  0.15303526  0.58164153  0.32633800  1
  O2-  O487  1  0.15693316  0.56082843  0.65645540  1
  O2-  O488  1  0.16423242  0.58863636  0.97051924  1
  O2-  O489  1  0.17254283  0.83185314  0.30667718  1
  O2-  O490  1  0.18424371  0.82902993  0.66991455  1
  O2-  O491  1  0.14324408  0.82538229  0.93800362  1
  O2-  O492  1  0.38232362  0.04872119  0.31861926  1
  O2-  O493  1  0.41432352  0.09054336  0.64268725  1
  O2-  O494  1  0.39973259  0.05069796  1.02495486  1
  O2-  O495  1  0.41380433  0.32392901  0.31712455  1
  O2-  O496  1  0.43351878  0.36517347  0.64123045  1
  O2-  O497  1  0.41280723  0.32914120  0.97448385  1
  O2-  O498  1  0.40629997  0.57699137  0.31069543  1
  O2-  O499  1  0.40359992  0.58284141  0.64746265  1
  O2-  O500  1  0.40978183  0.57999801  0.97731703  1
  O2-  O501  1  0.42437513  0.82006666  0.36273952  1
  O2-  O502  1  0.41635936  0.82225028  0.64120689  1
  O2-  O503  1  0.39606559  0.82022489  0.95751725  1
  O2-  O504  1  0.68305574  0.08542923  0.32385191  1
  O2-  O505  1  0.65649868  0.06301526  0.64556265  1
  O2-  O506  1  0.65660027  0.06831099  0.97317617  1
  O2-  O507  1  0.69382677  0.37877445  0.29111172  1
  O2-  O508  1  0.66672432  0.32976312  0.65633911  1
  O2-  O509  1  0.66971101  0.33765109  0.97300373  1
  O2-  O510  1  0.65846711  0.58531316  0.31225449  1
  O2-  O511  1  0.58064132  0.53657767  0.62585306  1
  O2-  O512  1  0.66379144  0.58306536  0.97373032  1
  O2-  O513  1  0.65319888  0.82083419  0.31740630  1
  O2-  O514  1  0.70537680  0.80995227  0.63689697  1
  O2-  O515  1  0.65063828  0.81521367  0.97587277  1
  O2-  O516  1  0.92122913  0.09059087  0.31357101  1
  O2-  O517  1  0.92521796  0.10520619  0.65460679  1
  O2-  O518  1  0.96420544  0.11998724  0.96115723  1
  O2-  O519  1  0.92815109  0.32916007  0.29982711  1
  O2-  O520  1  0.93213336  0.34786035  0.64935018  1
  O2-  O521  1  0.93260974  0.34975689  0.97025339  1
  O2-  O522  1  0.91616170  0.59324777  0.31992807  1
  O2-  O523  1  0.93976189  0.58856801  0.65439868  1
  O2-  O524  1  0.91286996  0.58662207  0.97268909  1
  O2-  O525  1  0.88896366  0.82280510  0.31542407  1
  O2-  O526  1  0.92031944  0.85148879  0.63740320  1
  O2-  O527  1  0.90311560  0.82647364  0.98211598  1
  O2-  O528  1  0.10999163  0.18243715  0.03052574  1
  O2-  O529  1  0.08218640  0.17307596  0.35978857  1
  O2-  O530  1  0.09689155  0.25687840  0.67842743  1
  O2-  O531  1  0.08801328  0.42649577  0.01972563  1
  O2-  O532  1  0.08161656  0.41966864  0.35249924  1
  O2-  O533  1  0.07757184  0.39404783  0.70736673  1
  O2-  O534  1  0.08026582  0.67013458  0.00738991  1
  O2-  O535  1  0.07987139  0.66744076  0.36468484  1
  O2-  O536  1  0.13907058  0.73248478  0.67946540  1
  O2-  O537  1  0.06800264  0.90920124  0.00020681  1
  O2-  O538  1  0.05686440  0.91361372  0.34899983  1
  O2-  O539  1  0.06292034  0.87464618  0.70756624  1
  O2-  O540  1  0.34048701  0.16796908  0.02663951  1
  O2-  O541  1  0.31404178  0.15526207  0.35526294  1
  O2-  O542  1  0.33014372  0.17298937  0.68921004  1
  O2-  O543  1  0.34679709  0.42183070  0.02659022  1
  O2-  O544  1  0.33300124  0.41080981  0.35846874  1
  O2-  O545  1  0.32139541  0.41562441  0.69775168  1
  O2-  O546  1  0.32630908  0.66526301  0.00923336  1
  O2-  O547  1  0.31143978  0.64546541  0.35916943  1
  O2-  O548  1  0.31671535  0.66222936  0.68592243  1
  O2-  O549  1  0.30351886  0.89011217  -0.01548613  1
  O2-  O550  1  0.32590829  0.89138842  0.36811421  1
  O2-  O551  1  0.26988240  0.87099082  0.68474243  1
  O2-  O552  1  0.62847333  0.18194745  0.03603435  1
  O2-  O553  1  0.62339969  0.21108552  0.32006457  1
  O2-  O554  1  0.58184785  0.16245178  0.68817401  1
  O2-  O555  1  0.58105290  0.41623045  0.01111969  1
  O2-  O556  1  0.58627453  0.42214600  0.35227112  1
  O2-  O557  1  0.58300325  0.41355974  0.69280686  1
  O2-  O558  1  0.57318882  0.65420093  0.02156938  1
  O2-  O559  1  0.56929662  0.66880041  0.35152995  1
  O2-  O560  1  0.57229104  0.66299882  0.69231000  1
  O2-  O561  1  0.56051999  0.89615254  0.00054174  1
  O2-  O562  1  0.59973942  0.91970532  0.35620556  1
  O2-  O563  1  0.56567275  0.90178385  0.68779662  1
  O2-  O564  1  0.90310174  0.20660760  0.02351076  1
  O2-  O565  1  0.84439028  0.17102546  0.35756023  1
  O2-  O566  1  0.84015844  0.19436524  0.69909609  1
  O2-  O567  1  0.83780348  0.41925576  0.01165056  1
  O2-  O568  1  0.86307688  0.41844823  0.36462258  1
  O2-  O569  1  0.83376281  0.41800501  0.68707859  1
  O2-  O570  1  0.82930777  0.66171637  0.02366710  1
  O2-  O571  1  0.82112607  0.66584725  0.36281428  1
  O2-  O572  1  0.92079929  0.71851291  0.70968154  1
  O2-  O573  1  0.81150973  0.88597671  0.02703809  1
  O2-  O574  1  0.83517874  0.93437426  0.35551268  1
  O2-  O575  1  0.84663045  0.93493026  0.69007840  1
