# generated using pymatgen
data_H2O
_symmetry_space_group_name_H-M   'P 1'
_cell_length_a   17.98136570
_cell_length_b   17.98719317
_cell_length_c   21.99230482
_cell_angle_alpha   89.95553348
_cell_angle_beta   90.00030221
_cell_angle_gamma   120.01153120
_symmetry_Int_Tables_number   1
_chemical_formula_structural   H2O
_chemical_formula_sum   'H384 O192'
_cell_volume   6159.37721800
_cell_formula_units_Z   192
loop_
 _symmetry_equiv_pos_site_id
 _symmetry_equiv_pos_as_xyz
  1  'x, y, z'
loop_
 _atom_type_symbol
 _atom_type_oxidation_number
  H+  1.0
  O2-  -2.0
loop_
 _atom_site_type_symbol
 _atom_site_label
 _atom_site_symmetry_multiplicity
 _atom_site_fract_x
 _atom_site_fract_y
 _atom_site_fract_z
 _atom_site_occupancy
  H+  H0  1  0.38792973  0.28014849  0.32818510  1
  H+  H1  1  0.79199072  0.88255380  0.86869058  1
  H+  H2  1  0.11483866  0.48282423  0.81767741  1
  H+  H3  1  0.70951335  0.86081878  0.18235875  1
  H+  H4  1  0.27378943  0.11544111  0.82811670  1
  H+  H5  1  0.62125665  0.77668046  0.48881088  1
  H+  H6  1  0.36944631  0.23037512  0.49226731  1
  H+  H7  1  0.45748792  0.31953754  0.94755997  1
  H+  H8  1  0.21837310  0.35883565  0.65944171  1
  H+  H9  1  0.37552376  1.01625503  0.19981109  1
  H+  H10  1  0.60579792  0.21630382  0.49725665  1
  H+  H11  1  0.27179794  0.62781515  1.00402821  1
  H+  H12  1  0.38899116  0.37276865  0.49622931  1
  H+  H13  1  0.88008256  0.51968063  0.65120112  1
  H+  H14  1  0.01710892  0.13529373  0.48995713  1
  H+  H15  1  0.31514305  0.90954936  0.03497768  1
  H+  H16  1  0.52704637  0.40374397  0.01977436  1
  H+  H17  1  0.76466699  0.38075797  0.67683337  1
  H+  H18  1  0.62344487  0.64014460  0.84537694  1
  H+  H19  1  0.71074342  0.85948996  0.63791318  1
  H+  H20  1  0.15099309  0.00353441  0.46810146  1
  H+  H21  1  0.82599612  0.66143300  0.43757901  1
  H+  H22  1  0.83467088  0.91218984  0.40639877  1
  H+  H23  1  0.34639625  0.98326337  0.34629852  1
  H+  H24  1  0.85152855  0.37972871  0.67084341  1
  H+  H25  1  0.53015765  0.38145190  0.48233314  1
  H+  H26  1  0.70845390  0.36553628  1.01381466  1
  H+  H27  1  0.13225692  0.65631294  0.34555399  1
  H+  H28  1  0.87661871  0.61108239  0.99698789  1
  H+  H29  1  0.61504281  0.37319226  0.48541563  1
  H+  H30  1  0.52272737  0.40857131  0.33566990  1
  H+  H31  1  0.52749271  0.62949206  0.15842409  1
  H+  H32  1  0.72689123  0.59534840  0.51269473  1
  H+  H33  1  0.36852954  0.74180880  0.15085498  1
  H+  H34  1  0.65696720  0.13496104  0.32974140  1
  H+  H35  1  0.14667076  0.26628289  -0.00726864  1
  H+  H36  1  0.37766971  0.52202391  0.32347052  1
  H+  H37  1  0.85765149  0.13768598  0.16401741  1
  H+  H38  1  0.37797210  0.65397772  0.32197029  1
  H+  H39  1  0.60415884  0.14173048  0.00310228  1
  H+  H40  1  0.42351701  0.34572203  0.55356655  1
  H+  H41  1  0.36445627  0.73305944  0.67100452  1
  H+  H42  1  0.60307504  0.88388232  0.66525589  1
  H+  H43  1  0.10149040  0.88918657  0.65033130  1
  H+  H44  1  0.59630451  0.88757791  0.48821849  1
  H+  H45  1  0.16984283  0.57153692  0.92728065  1
  H+  H46  1  0.61016739  0.72113633  0.15793021  1
  H+  H47  1  0.64187423  0.50342091  0.50832910  1
  H+  H48  1  0.86116136  0.72038071  0.34353411  1
  H+  H49  1  0.86141482  0.47402473  0.34331409  1
  H+  H50  1  0.86544366  0.63501973  0.49312928  1
  H+  H51  1  0.85710834  0.73445057  1.00337480  1
  H+  H52  1  0.12695765  0.73553457  0.80906230  1
  H+  H53  1  0.63301366  0.54197405  0.32690268  1
  H+  H54  1  0.64174991  0.61868277  0.17113658  1
  H+  H55  1  0.35076253  0.47564583  0.66641408  1
  H+  H56  1  0.38928020  0.10171530  0.51879944  1
  H+  H57  1  0.51719981  0.12418443  0.50196674  1
  H+  H58  1  0.62177840  0.25671781  0.66598898  1
  H+  H59  1  0.41835166  0.06213190  0.89653094  1
  H+  H60  1  0.89083184  0.02207235  0.86423563  1
  H+  H61  1  0.13871135  0.36002905  0.50874140  1
  H+  H62  1  0.60416009  0.23160747  0.00854484  1
  H+  H63  1  0.23904623  0.86855226  0.66036938  1
  H+  H64  1  0.62162793  0.77041983  0.64285610  1
  H+  H65  1  1.01700296  0.63230185  0.66099801  1
  H+  H66  1  0.62956184  0.35591329  0.18099404  1
  H+  H67  1  0.62219168  0.82670306  0.22409262  1
  H+  H68  1  0.61136769  0.21948191  0.34865329  1
  H+  H69  1  0.86368250  0.38545839  0.82401853  1
  H+  H70  1  0.47906608  0.12088802  0.98935364  1
  H+  H71  1  0.76761009  0.13747625  0.16394283  1
  H+  H72  1  0.32810451  0.41838680  0.43070397  1
  H+  H73  1  0.62124225  0.48015641  0.83836759  1
  H+  H74  1  0.34960196  0.21104246  0.99931678  1
  H+  H75  1  0.38818277  0.60670618  0.16787410  1
  H+  H76  1  0.95829984  0.88043531  0.99426490  1
  H+  H77  1  0.51809626  0.10122897  0.81607734  1
  H+  H78  1  0.13763074  0.35831660  0.17723720  1
  H+  H79  1  0.25014662  0.87242821  0.20896614  1
  H+  H80  1  0.63559582  0.11340793  0.50725804  1
  H+  H81  1  0.76503546  0.64019041  0.34180342  1
  H+  H82  1  0.86082465  0.13499840  0.66640213  1
  H+  H83  1  0.27541597  0.64242446  0.66953038  1
  H+  H84  1  0.61123497  0.39416860  1.01303790  1
  H+  H85  1  0.63291077  0.02360062  0.17582310  1
  H+  H86  1  0.83223926  0.42538151  0.24332336  1
  H+  H87  1  0.37477559  0.85530364  0.67073752  1
  H+  H88  1  0.31500794  0.42602785  0.72934319  1
  H+  H89  1  0.18895852  0.87941598  0.33354452  1
  H+  H90  1  0.38515876  0.35912857  0.17022428  1
  H+  H91  1  0.22998202  0.61599536  0.83233759  1
  H+  H92  1  0.72699834  0.35728188  0.51373092  1
  H+  H93  1  0.10887735  -0.02914197  0.17032728  1
  H+  H94  1  0.19803355  0.77482184  0.00543939  1
  H+  H95  1  0.77155024  0.63148928  0.67147483  1
  H+  H96  1  0.27093328  0.38353398  0.49180170  1
  H+  H97  1  0.38226463  0.61637675  0.65376402  1
  H+  H98  1  0.70925508  0.11852218  0.99599610  1
  H+  H99  1  0.23241406  0.12371409  0.50216649  1
  H+  H100  1  0.33701726  0.87026923  0.21556357  1
  H+  H101  1  0.66887894  0.69539522  0.56061357  1
  H+  H102  1  0.87349207  0.77328567  0.50052979  1
  H+  H103  1  0.86150366  0.63425113  0.66587194  1
  H+  H104  1  0.37661554  0.30769643  0.91132600  1
  H+  H105  1  0.77567298  0.64382303  0.15817369  1
  H+  H106  1  0.86288973  0.51724544  0.00500936  1
  H+  H107  1  0.64848735  0.78078005  0.85116773  1
  H+  H108  1  0.28443241  0.13834634  0.34194398  1
  H+  H109  1  0.88207773  0.77314523  0.65284696  1
  H+  H110  1  0.47193766  0.61392081  0.84343437  1
  H+  H111  1  0.91755650  0.31767008  0.24344766  1
  H+  H112  1  0.82077242  0.40914402  0.45050192  1
  H+  H113  1  0.72872205  0.62528588  0.00236732  1
  H+  H114  1  0.29215371  0.90981787  -0.03321902  1
  H+  H115  1  0.64456027  0.37804140  0.85817495  1
  H+  H116  1  0.34926165  0.09380705  0.82492514  1
  H+  H117  1  0.63465404  1.02223357  0.65846852  1
  H+  H118  1  0.26765056  0.11632491  0.66903756  1
  H+  H119  1  0.64458301  1.01359202  0.84087972  1
  H+  H120  1  0.19556620  0.76560334  0.97170451  1
  H+  H121  1  0.38607685  0.27074122  0.17352099  1
  H+  H122  1  0.13433060  0.26263136  0.33042056  1
  H+  H123  1  0.76279293  0.88313471  0.48088716  1
  H+  H124  1  0.47755844  0.86048592  0.15521650  1
  H+  H125  1  0.24643455  0.87901939  0.50496742  1
  H+  H126  1  0.30438713  0.60902029  0.50225242  1
  H+  H127  1  0.51061065  0.62741489  0.65794791  1
  H+  H128  1  0.65463517  0.16063444  0.67958369  1
  H+  H129  1  0.35355204  0.07104838  0.66895735  1
  H+  H130  1  0.39134378  0.78522879  0.83178819  1
  H+  H131  1  0.15711189  0.02086302  0.36953335  1
  H+  H132  1  0.04977078  0.53422699  0.29537357  1
  H+  H133  1  0.27120213  0.88843463  0.72866465  1
  H+  H134  1  0.97463551  0.36003908  0.82726042  1
  H+  H135  1  0.90283805  0.36428026  0.97698646  1
  H+  H136  1  0.71763245  0.35189259  0.32885593  1
  H+  H137  1  0.13673370  0.26844475  0.17658144  1
  H+  H138  1  0.12110550  0.46506095  0.00624219  1
  H+  H139  1  0.84550372  0.96871882  0.64447886  1
  H+  H140  1  0.58258205  0.66636969  0.89692604  1
  H+  H141  1  -0.00152191  0.60092895  0.00625873  1
  H+  H142  1  0.35795583  0.38909157  0.33830647  1
  H+  H143  1  0.84540289  0.88815952  1.02142711  1
  H+  H144  1  0.37967491  0.87274980  0.52252036  1
  H+  H145  1  0.88311469  0.50837588  0.50509077  1
  H+  H146  1  0.15149314  0.86835844  0.92559648  1
  H+  H147  1  0.57753404  0.63459163  0.48350974  1
  H+  H148  1  0.39525128  1.02772608  -0.01475924  1
  H+  H149  1  0.87322647  0.59952039  0.36596505  1
  H+  H150  1  0.37459533  0.30288029  0.81206584  1
  H+  H151  1  0.74228562  0.62013842  0.83924163  1
  H+  H152  1  0.02051797  0.13114256  0.83270444  1
  H+  H153  1  0.90213096  0.76391703  0.82561535  1
  H+  H154  1  0.85552229  0.88812729  0.17456966  1
  H+  H155  1  0.26677291  0.38489722  0.34023888  1
  H+  H156  1  0.14126750  0.35271336  0.99743859  1
  H+  H157  1  0.63051346  0.11084134  0.17216787  1
  H+  H158  1  0.60787148  0.89023926  0.00604694  1
  H+  H159  1  0.10385305  0.87362175  0.16837177  1
  H+  H160  1  0.12684723  0.74251563  0.34611270  1
  H+  H161  1  0.60041607  0.21651049  0.16389099  1
  H+  H162  1  0.85930041  0.23388688  0.49127680  1
  H+  H163  1  0.66837570  0.08282735  0.59874200  1
  H+  H164  1  0.51629358  0.63228317  0.98958797  1
  H+  H165  1  0.27924308  0.38178809  0.99787314  1
  H+  H166  1  0.83789587  0.66030561  0.76035854  1
  H+  H167  1  0.19510426  0.96634466  0.94264082  1
  H+  H168  1  0.72587881  0.11617505  0.50218147  1
  H+  H169  1  0.38349399  0.35952393  0.70865487  1
  H+  H170  1  0.88709455  0.52614822  0.16863582  1
  H+  H171  1  0.66662225  0.56422843  0.60274418  1
  H+  H172  1  0.86328915  0.64132438  0.14641383  1
  H+  H173  1  0.91108205  0.57731450  0.59048997  1
  H+  H174  1  0.10684082  0.22014000  0.82707429  1
  H+  H175  1  0.15511718  0.13914141  0.65375350  1
  H+  H176  1  0.04262664  0.12426488  0.00812099  1
  H+  H177  1  0.90910408  0.56970142  0.41985994  1
  H+  H178  1  0.07801514  0.40676687  0.44377558  1
  H+  H179  1  0.88630182  0.27110977  0.17978481  1
  H+  H180  1  0.51689670  0.88757133  0.67567044  1
  H+  H181  1  0.68808949  0.59277571  0.90198282  1
  H+  H182  1  0.97577710  0.86678739  0.17778470  1
  H+  H183  1  0.10817351  0.22411858  0.49283713  1
  H+  H184  1  0.15065736  0.79019822  0.49830530  1
  H+  H185  1  0.27204351  0.63848890  0.16118496  1
  H+  H186  1  0.16939639  0.88482489  0.79622467  1
  H+  H187  1  0.63838379  0.53303800  1.00357477  1
  H+  H188  1  0.52506861  0.38823854  0.16905524  1
  H+  H189  1  0.86921299  0.36885050  0.50918729  1
  H+  H190  1  0.87942275  0.88378753  0.85183222  1
  H+  H191  1  0.13559865  0.61832748  0.65082369  1
  H+  H192  1  0.14697456  0.61452261  0.17031125  1
  H+  H193  1  0.38250622  0.51492392  0.16603158  1
  H+  H194  1  0.97892239  0.60262178  0.50266356  1
  H+  H195  1  0.12515360  0.77239179  0.63868146  1
  H+  H196  1  0.87785693  1.02474107  0.49486950  1
  H+  H197  1  0.88581417  0.27073370  0.99241520  1
  H+  H198  1  0.61337416  0.73430017  -0.01014529  1
  H+  H199  1  0.86350204  0.38612865  0.19288847  1
  H+  H200  1  -0.02725288  0.60777491  0.14637938  1
  H+  H201  1  0.12892449  0.58602252  0.98725097  1
  H+  H202  1  0.39561507  0.92290828  0.85064424  1
  H+  H203  1  0.32982465  0.40705428  0.09612010  1
  H+  H204  1  0.27047367  0.37947716  0.15666960  1
  H+  H205  1  0.87468431  0.26746666  0.65791682  1
  H+  H206  1  0.13106922  1.00482402  0.00402276  1
  H+  H207  1  0.11847275  0.72562722  0.14998165  1
  H+  H208  1  0.44105450  0.61727499  0.49475571  1
  H+  H209  1  0.11279409  0.13139335  0.17220831  1
  H+  H210  1  0.36259857  0.13031170  0.00391821  1
  H+  H211  1  0.85284843  0.88002295  0.48817160  1
  H+  H212  1  0.84620169  0.87982175  0.64505233  1
  H+  H213  1  0.11134850  0.12308720  0.34819248  1
  H+  H214  1  0.79520481  0.18670534  0.32782803  1
  H+  H215  1  0.22693072  0.10958629  0.18529356  1
  H+  H216  1  0.93933616  0.14077425  1.00793197  1
  H+  H217  1  0.12236409  0.98108249  0.81158418  1
  H+  H218  1  0.16135473  0.92386446  0.45347901  1
  H+  H219  1  0.71527494  0.35118191  0.19135379  1
  H+  H220  1  0.97995340  0.10046053  0.33268415  1
  H+  H221  1  0.70801211  0.71928027  0.54127413  1
  H+  H222  1  0.83409729  0.38295989  0.06219759  1
  H+  H223  1  0.14720605  0.52511848  0.17302277  1
  H+  H224  1  0.03199897  0.37788674  0.00799455  1
  H+  H225  1  0.66097424  0.08191693  0.93249748  1
  H+  H226  1  0.64428666  0.53095771  0.17890899  1
  H+  H227  1  0.61625745  0.47269735  0.68447988  1
  H+  H228  1  0.04103914  0.85438043  0.32666529  1
  H+  H229  1  0.13491941  0.10864551  0.83941059  1
  H+  H230  1  0.96078175  0.36490409  0.51003746  1
  H+  H231  1  0.86338924  0.21683835  0.82012962  1
  H+  H232  1  0.48214970  0.11448493  0.33756260  1
  H+  H233  1  0.38412511  0.85217269  0.98268379  1
  H+  H234  1  0.36114032  0.71905759  1.00475431  1
  H+  H235  1  0.39211538  0.85305329  0.12580437  1
  H+  H236  1  0.88120163  0.11603157  0.49377965  1
  H+  H237  1  0.47308766  0.36636834  0.72037419  1
  H+  H238  1  0.47361648  0.85542780  0.99232250  1
  H+  H239  1  0.97020907  0.86459363  0.64856532  1
  H+  H240  1  0.96664627  1.10816628  0.65201666  1
  H+  H241  1  0.87142669  0.88244335  0.34279614  1
  H+  H242  1  0.82478515  0.12498659  0.01457636  1
  H+  H243  1  0.39040508  0.51837398  0.99449314  1
  H+  H244  1  1.03599214  0.64967892  0.82403698  1
  H+  H245  1  0.09078305  0.68008580  -0.00345663  1
  H+  H246  1  0.04221363  0.88640556  0.80818349  1
  H+  H247  1  -0.02940462  0.11246456  0.17847120  1
  H+  H248  1  0.08208246  0.16223028  0.40197115  1
  H+  H249  1  0.36392411  0.64805074  0.82226762  1
  H+  H250  1  0.22872614  0.08906835  0.99614280  1
  H+  H251  1  0.53375264  0.88478597  0.82388874  1
  H+  H252  1  0.77064535  0.13197092  0.67102172  1
  H+  H253  1  0.61936176  0.63530575  -0.00969772  1
  H+  H254  1  0.34319482  0.48656556  0.82512549  1
  H+  H255  1  0.88623006  0.77694704  0.17548535  1
  H+  H256  1  0.84944101  0.97768952  0.02186050  1
  H+  H257  1  0.36415626  0.52132180  0.49957469  1
  H+  H258  1  0.08213773  0.77295454  0.20778640  1
  H+  H259  1  0.51182209  0.63527937  0.33065110  1
  H+  H260  1  0.11971906  0.35680495  0.83947361  1
  H+  H261  1  0.61140380  0.11690348  0.82730224  1
  H+  H262  1  0.60135962  0.97640354  0.49735943  1
  H+  H263  1  0.36703359  0.38093506  -0.00507825  1
  H+  H264  1  0.60466059  0.97847840  0.00317060  1
  H+  H265  1  0.07426112  0.41282682  0.59232058  1
  H+  H266  1  0.33694169  0.35613279  0.83836703  1
  H+  H267  1  0.87655394  -0.02031771  0.34051660  1
  H+  H268  1  0.35871115  0.13076312  0.16611957  1
  H+  H269  1  0.31982354  0.88697547  0.33848692  1
  H+  H270  1  0.66713446  0.34754719  0.94478587  1
  H+  H271  1  1.02701164  0.38624681  0.16882574  1
  H+  H272  1  0.71548348  0.86154742  1.00418372  1
  H+  H273  1  0.13946018  0.11723179  0.49971358  1
  H+  H274  1  0.12779067  0.35547037  0.64892224  1
  H+  H275  1  0.06851550  0.86576057  0.02614656  1
  H+  H276  1  0.08875077  0.44904615  0.34572926  1
  H+  H277  1  0.38047081  0.00449374  0.51310410  1
  H+  H278  1  0.46539729  0.10068138  0.17861435  1
  H+  H279  1  0.32805618  0.15792034  0.10564500  1
  H+  H280  1  0.60343862  0.88309751  0.15589201  1
  H+  H281  1  0.12248101  0.64126559  0.49769087  1
  H+  H282  1  0.09938834  0.21902793  0.67365043  1
  H+  H283  1  0.59932716  0.37588857  0.68328880  1
  H+  H284  1  0.89565144  0.52386046  0.83858973  1
  H+  H285  1  0.42255026  0.09132398  0.27757803  1
  H+  H286  1  0.54355494  0.25894353  0.63206868  1
  H+  H287  1  0.73369033  0.37659158  0.85822981  1
  H+  H288  1  0.81368954  0.44378996  0.09811990  1
  H+  H289  1  0.90659586  0.60737610  0.25931919  1
  H+  H290  1  0.08683312  0.42166716  0.75945474  1
  H+  H291  1  0.41196309  0.33578865  0.26724846  1
  H+  H292  1  0.13322788  0.52803302  0.64532980  1
  H+  H293  1  0.65317364  0.83235060  0.54931378  1
  H+  H294  1  0.92236086  0.83411903  0.26417435  1
  H+  H295  1  0.08400672  0.41205701  0.10781921  1
  H+  H296  1  0.62176542  0.18293793  0.74072416  1
  H+  H297  1  0.83066014  0.41817789  0.76876673  1
  H+  H298  1  0.31506882  0.93401602  0.11035685  1
  H+  H299  1  0.68707168  0.11025255  0.26817415  1
  H+  H300  1  0.08214899  0.92465853  0.70991097  1
  H+  H301  1  0.40100448  0.58269017  0.59153476  1
  H+  H302  1  0.14115671  0.56437313  0.26917947  1
  H+  H303  1  0.57113722  0.16120110  0.10257097  1
  H+  H304  1  0.58013232  0.15423644  0.40574603  1
  H+  H305  1  0.65091646  0.31955087  0.56514209  1
  H+  H306  1  0.46694762  0.86872608  0.52181471  1
  H+  H307  1  0.57780530  0.92048744  0.09808529  1
  H+  H308  1  0.55644628  0.66475493  0.42104518  1
  H+  H309  1  0.40848069  0.58599616  0.89890382  1
  H+  H310  1  0.33420807  0.67467196  0.76112280  1
  H+  H311  1  0.85097166  0.96571610  0.76055793  1
  H+  H312  1  0.87999915  0.02535226  0.18152611  1
  H+  H313  1  0.41039261  0.83919546  0.60627981  1
  H+  H314  1  0.91713364  0.58054084  0.89839564  1
  H+  H315  1  0.09114488  0.15821425  0.10857511  1
  H+  H316  1  0.66770752  0.84045651  0.93848057  1
  H+  H317  1  0.85897171  0.38286003  0.33127804  1
  H+  H318  1  0.33836203  0.92147255  0.44887320  1
  H+  H319  1  0.41067645  0.57524735  0.26066104  1
  H+  H320  1  0.18828398  0.11897381  0.59276989  1
  H+  H321  1  0.59994965  0.77384739  0.33972717  1
  H+  H322  1  0.10105365  0.36677656  0.34787146  1
  H+  H323  1  0.06927536  0.15665370  0.73129189  1
  H+  H324  1  0.82269894  0.17211280  0.07529615  1
  H+  H325  1  0.88950783  0.87515080  0.94208916  1
  H+  H326  1  0.25118419  0.39736950  0.82401307  1
  H+  H327  1  0.73168791  0.10435944  0.84071573  1
  H+  H328  1  0.12419816  0.47856971  0.49470096  1
  H+  H329  1  0.87989811  0.94706787  0.75697085  1
  H+  H330  1  0.83364492  0.68014898  0.06589354  1
  H+  H331  1  0.08934906  0.65643506  0.09434923  1
  H+  H332  1  0.16948390  0.07516087  0.24573147  1
  H+  H333  1  0.15970572  0.06914614  0.89638600  1
  H+  H334  1  0.67130961  0.60244467  0.26810112  1
  H+  H335  1  0.94696692  0.81709723  0.88468943  1
  H+  H336  1  0.88383657  0.10660031  0.84651934  1
  H+  H337  1  0.32762807  0.66361705  0.09447770  1
  H+  H338  1  0.87077414  0.63217332  0.82075226  1
  H+  H339  1  0.65078900  0.87028686  0.84115147  1
  H+  H340  1  0.93174106  0.65504792  0.25421186  1
  H+  H341  1  0.14318307  0.84472256  0.26978123  1
  H+  H342  1  0.38665238  0.60697456  0.99983139  1
  H+  H343  1  0.06252284  0.91330129  0.08487272  1
  H+  H344  1  0.37540137  0.14353437  0.34257882  1
  H+  H345  1  0.27393607  0.93455251  0.10396704  1
  H+  H346  1  0.82089945  0.91648142  0.11757739  1
  H+  H347  1  0.16158110  0.32483118  0.27223905  1
  H+  H348  1  0.92276436  0.09094019  0.94410897  1
  H+  H349  1  0.58874991  0.41418277  0.78469749  1
  H+  H350  1  0.58996220  0.43112690  0.38908179  1
  H+  H351  1  0.63408330  0.60167753  0.65583817  1
  H+  H352  1  1.00637482  0.38143759  0.64431303  1
  H+  H353  1  0.34155994  0.16826229  0.43594227  1
  H+  H354  1  0.42594436  0.83112005  0.89518327  1
  H+  H355  1  0.91223557  0.08794847  0.58951641  1
  H+  H356  1  0.25351350  0.89072701  0.82602486  1
  H+  H357  1  0.15499146  0.32829869  0.89786804  1
  H+  H358  1  0.83256181  0.15400804  0.76325950  1
  H+  H359  1  0.08732166  -0.00545281  0.32188671  1
  H+  H360  1  0.16501988  0.83954958  0.58041375  1
  H+  H361  1  0.14113253  0.61539673  0.83388989  1
  H+  H362  1  0.59133355  0.91333589  0.76360714  1
  H+  H363  1  0.07941506  0.66671805  0.71894508  1
  H+  H364  1  0.46559809  0.78552615  0.28639345  1
  H+  H365  1  0.91468187  0.07437815  0.27627954  1
  H+  H366  1  0.19073462  0.59562591  0.56326587  1
  H+  H367  1  0.16761692  0.32468787  0.56555062  1
  H+  H368  1  0.96006764  0.33065991  0.34369644  1
  H+  H369  1  0.92074929  0.32374977  0.88792499  1
  H+  H370  1  0.89493800  0.32561909  0.59662383  1
  H+  H371  1  0.57009263  0.65989963  0.71619029  1
  H+  H372  1  0.64569645  0.31452550  0.27954636  1
  H+  H373  1  0.35289713  0.97644546  0.66574872  1
  H+  H374  1  0.58794239  0.42176831  0.11217657  1
  H+  H375  1  0.39892062  0.04411089  0.60719308  1
  H+  H376  1  0.60795351  0.64800449  0.33428898  1
  H+  H377  1  0.43222717  0.28041377  0.62507212  1
  H+  H378  1  0.83993422  0.18838324  0.42703384  1
  H+  H379  1  0.31381459  0.11709064  0.73491014  1
  H+  H380  1  0.41304664  0.23709838  0.60985880  1
  H+  H381  1  0.10030547  0.67731040  0.43986206  1
  H+  H382  1  0.13181568  0.12778183  0.00727029  1
  H+  H383  1  0.90276154  0.83478441  0.55756694  1
  O2-  O384  1  0.08408343  0.16093326  0.15302855  1
  O2-  O385  1  0.07840887  0.16450250  0.47605081  1
  O2-  O386  1  0.07877457  0.15889012  0.81414932  1
  O2-  O387  1  0.08724950  0.41692142  0.15294800  1
  O2-  O388  1  0.08542786  0.41552303  0.48881115  1
  O2-  O389  1  0.08137300  0.42104655  0.80360228  1
  O2-  O390  1  0.09571950  0.66350509  0.13916454  1
  O2-  O391  1  0.08675680  0.66572073  0.48464986  1
  O2-  O392  1  0.09297519  0.67215280  0.80417135  1
  O2-  O393  1  0.07488615  0.91219731  0.15310819  1
  O2-  O394  1  0.14921446  0.96623825  0.43414453  1
  O2-  O395  1  0.10022241  0.92421677  0.79105348  1
  O2-  O396  1  0.32866413  0.16148801  0.15070990  1
  O2-  O397  1  0.33950676  0.16870822  0.48117457  1
  O2-  O398  1  0.33027470  0.13295674  0.80961519  1
  O2-  O399  1  0.33104989  0.41024705  0.14121567  1
  O2-  O400  1  0.33135901  0.41876219  0.47639894  1
  O2-  O401  1  0.31039879  0.42858656  0.80668956  1
  O2-  O402  1  0.33260928  0.67095525  0.14108602  1
  O2-  O403  1  0.27044668  0.63790002  0.49175696  1
  O2-  O404  1  0.33264105  0.67694547  0.80710048  1
  O2-  O405  1  0.31134858  0.90702887  0.22148476  1
  O2-  O406  1  0.33645942  0.92237808  0.49336605  1
  O2-  O407  1  0.35821580  0.94740710  0.86194368  1
  O2-  O408  1  0.57049894  0.15623102  0.14773560  1
  O2-  O409  1  0.57632306  0.15526228  0.48324568  1
  O2-  O410  1  0.57906095  0.14227132  0.80863175  1
  O2-  O411  1  0.58720770  0.41872520  0.15718656  1
  O2-  O412  1  0.59060315  0.40839038  0.46863902  1
  O2-  O413  1  0.59048897  0.41798337  0.82991574  1
  O2-  O414  1  0.58744462  0.66107321  0.14347623  1
  O2-  O415  1  0.54987088  0.66521558  0.46711455  1
  O2-  O416  1  0.58736494  0.66807660  0.85229827  1
  O2-  O417  1  0.57249936  0.91505433  0.14333406  1
  O2-  O418  1  0.56224462  0.91662750  0.48422186  1
  O2-  O419  1  0.59456058  0.91213623  0.80947053  1
  O2-  O420  1  0.82862870  0.16917799  0.14806024  1
  O2-  O421  1  0.83428325  0.17598287  0.47124182  1
  O2-  O422  1  0.83454653  0.15485296  0.80916625  1
  O2-  O423  1  0.83235430  0.41878095  0.19771212  1
  O2-  O424  1  0.82759401  0.41348043  0.49450271  1
  O2-  O425  1  0.83778543  0.42153788  0.81381231  1
  O2-  O426  1  0.83543024  0.67705232  0.14023530  1
  O2-  O427  1  0.83045438  0.66223333  0.48290560  1
  O2-  O428  1  0.84107475  0.66346917  0.80640873  1
  O2-  O429  1  0.82448168  0.91889525  0.16267456  1
  O2-  O430  1  0.82520718  0.91336510  0.46849516  1
  O2-  O431  1  0.85449748  0.91045450  0.87837037  1
  O2-  O432  1  0.16664357  0.07969498  0.20120851  1
  O2-  O433  1  0.17126226  0.08941753  0.51579253  1
  O2-  O434  1  0.16272482  0.07473206  0.85167677  1
  O2-  O435  1  0.16951092  0.32925042  0.19109676  1
  O2-  O436  1  0.16863521  0.32777450  0.51984089  1
  O2-  O437  1  0.15113838  0.32726851  0.85259477  1
  O2-  O438  1  0.17923699  0.58651194  0.18686948  1
  O2-  O439  1  0.18480661  0.58391388  0.51799709  1
  O2-  O440  1  0.16902736  0.58208539  0.84782506  1
  O2-  O441  1  0.13362535  0.81984327  0.18883631  1
  O2-  O442  1  0.17849865  0.85006858  0.51254697  1
  O2-  O443  1  0.20496333  0.85622630  0.79816213  1
  O2-  O444  1  0.40832483  0.08034643  0.19827337  1
  O2-  O445  1  0.41660099  0.06962784  0.53417701  1
  O2-  O446  1  0.41030480  0.04055966  0.85312458  1
  O2-  O447  1  0.41675872  0.33163016  0.18768935  1
  O2-  O448  1  0.42149015  0.34308660  0.50930983  1
  O2-  O449  1  0.34607052  0.30767852  0.84939895  1
  O2-  O450  1  0.41532801  0.57456695  0.18285161  1
  O2-  O451  1  0.38371041  0.58120099  0.51409997  1
  O2-  O452  1  0.41036580  0.58995597  0.85391265  1
  O2-  O453  1  0.41005228  0.82718394  0.15733394  1
  O2-  O454  1  0.40888809  0.84189921  0.54137237  1
  O2-  O455  1  0.42845774  0.84284559  0.85074058  1
  O2-  O456  1  0.66559603  0.08534954  0.18701640  1
  O2-  O457  1  0.66901460  0.08607486  0.52250499  1
  O2-  O458  1  0.67267543  0.07284473  0.85859790  1
  O2-  O459  1  0.65178203  0.31746262  0.19450040  1
  O2-  O460  1  0.66204843  0.32250926  0.52075818  1
  O2-  O461  1  0.67817428  0.35386080  0.87941382  1
  O2-  O462  1  0.67689324  0.59338219  0.18831255  1
  O2-  O463  1  0.66758895  0.56019653  0.52916204  1
  O2-  O464  1  0.68313214  0.59421679  0.85733676  1
  O2-  O465  1  0.64593637  0.82781953  0.18131217  1
  O2-  O466  1  0.65969783  0.83585812  0.50394929  1
  O2-  O467  1  0.67938568  0.84231030  0.86379025  1
  O2-  O468  1  0.91076843  0.08756635  0.19355454  1
  O2-  O469  1  0.91043638  0.08501266  0.50972273  1
  O2-  O470  1  0.91775754  0.08531334  0.86977036  1
  O2-  O471  1  0.92064396  0.32915670  0.19894231  1
  O2-  O472  1  0.90049160  0.33227035  0.52325150  1
  O2-  O473  1  0.91499130  0.32575347  0.84334614  1
  O2-  O474  1  0.90965590  0.57695650  0.14137457  1
  O2-  O475  1  0.91594610  0.57543748  0.51137470  1
  O2-  O476  1  0.92546470  0.58488762  0.85383342  1
  O2-  O477  1  0.91453343  0.83590332  0.19373659  1
  O2-  O478  1  0.89772038  0.83443169  0.51227031  1
  O2-  O479  1  0.93781428  0.82464087  0.84191465  1
  O2-  O480  1  0.14347679  0.04536033  0.33243244  1
  O2-  O481  1  0.20723153  0.14652112  0.63338610  1
  O2-  O482  1  0.16960121  0.05453622  0.97739225  1
  O2-  O483  1  0.16005633  0.32430546  0.31758445  1
  O2-  O484  1  0.15830466  0.32307022  0.64239871  1
  O2-  O485  1  0.17180537  0.32597670  0.97691699  1
  O2-  O486  1  0.10731277  0.54743322  0.30741200  1
  O2-  O487  1  0.17015824  0.59073421  0.63831060  1
  O2-  O488  1  0.16956917  0.56739909  0.97286516  1
  O2-  O489  1  0.13181988  0.84237360  0.31440179  1
  O2-  O490  1  0.15467633  0.83378421  0.62719440  1
  O2-  O491  1  0.20534071  0.91770508  0.93823068  1
  O2-  O492  1  0.42070750  0.09032946  0.32285841  1
  O2-  O493  1  0.39256206  0.04065311  0.65340649  1
  O2-  O494  1  0.41959113  0.08812579  0.97110340  1
  O2-  O495  1  0.41121009  0.33976782  0.31246148  1
  O2-  O496  1  0.41120677  0.33204204  0.73025867  1
  O2-  O497  1  0.40022482  0.31037958  0.95594252  1
  O2-  O498  1  0.41016630  0.58111740  0.30579323  1
  O2-  O499  1  0.40842438  0.58285126  0.63674369  1
  O2-  O500  1  0.41965864  0.58090734  0.98220662  1
  O2-  O501  1  0.40082449  0.75722413  0.27953210  1
  O2-  O502  1  0.41150005  0.83340410  0.65479245  1
  O2-  O503  1  0.41408418  0.81874070  0.97569463  1
  O2-  O504  1  0.70390127  0.12833537  0.31075581  1
  O2-  O505  1  0.67005452  0.08296358  0.64448103  1
  O2-  O506  1  0.65170499  0.08330561  0.97782758  1
  O2-  O507  1  0.65478666  0.31546597  0.32389984  1
  O2-  O508  1  0.60459915  0.29534480  0.64072824  1
  O2-  O509  1  0.65312296  0.33968651  0.99207217  1
  O2-  O510  1  0.66766210  0.60481531  0.31326593  1
  O2-  O511  1  0.66707549  0.57189790  0.64868531  1
  O2-  O512  1  0.66748839  0.59312737  0.98645254  1
  O2-  O513  1  0.61041495  0.83383113  0.33355497  1
  O2-  O514  1  0.64662668  0.83002021  0.62795326  1
  O2-  O515  1  0.65752858  0.82996437  0.98388259  1
  O2-  O516  1  0.91818215  0.06521299  0.32044039  1
  O2-  O517  1  0.90741137  0.08324340  0.63473123  1
  O2-  O518  1  0.92595143  0.08586355  0.99007061  1
  O2-  O519  1  0.90103745  0.30669977  0.32523764  1
  O2-  O520  1  0.90057795  0.32819654  0.64283255  1
  O2-  O521  1  0.92654028  0.32635432  0.97187865  1
  O2-  O522  1  0.90284632  0.56671632  0.37546939  1
  O2-  O523  1  0.91190058  0.57983081  0.63614254  1
  O2-  O524  1  0.89880388  0.57255789  0.98401925  1
  O2-  O525  1  0.92024115  0.82916560  0.31129466  1
  O2-  O526  1  0.90753063  0.83145538  0.63515168  1
  O2-  O527  1  0.89833978  0.84738557  0.97881528  1
  O2-  O528  1  0.10245251  0.15831799  0.02275206  1
  O2-  O529  1  0.08461689  0.15908281  0.35612795  1
  O2-  O530  1  0.06681826  0.15758546  0.68620123  1
  O2-  O531  1  0.09058355  0.40701585  0.02572143  1
  O2-  O532  1  0.06635954  0.39172033  0.36493064  1
  O2-  O533  1  0.07087129  0.41399907  0.63674818  1
  O2-  O534  1  0.06106735  0.62390224  0.01642526  1
  O2-  O535  1  0.13823285  0.70370222  0.37103338  1
  O2-  O536  1  0.07873668  0.66436689  0.67391974  1
  O2-  O537  1  0.05531395  0.91029102  0.03762095  1
  O2-  O538  1  0.00807622  0.88576690  0.33202396  1
  O2-  O539  1  0.06988959  0.91749776  0.66583743  1
  O2-  O540  1  0.32721936  0.15479014  0.02054877  1
  O2-  O541  1  0.34354399  0.17449537  0.35569292  1
  O2-  O542  1  0.30479681  0.09774750  0.69139056  1
  O2-  O543  1  0.34027030  0.41279184  0.01264871  1
  O2-  O544  1  0.32782308  0.41961579  0.35398117  1
  O2-  O545  1  0.31783072  0.41725886  0.68469291  1
  O2-  O546  1  0.33055739  0.65921262  0.02287426  1
  O2-  O547  1  0.36351803  0.70017191  0.33080893  1
  O2-  O548  1  0.33522223  0.67051049  0.68536167  1
  O2-  O549  1  0.33949328  0.91659888  -0.00589910  1
  O2-  O550  1  0.30370422  0.92417838  0.35999831  1
  O2-  O551  1  0.29322926  0.89001506  0.68706836  1
  O2-  O552  1  0.57372848  0.16985107  0.02157066  1
  O2-  O553  1  0.58159070  0.15618588  0.36020376  1
  O2-  O554  1  0.65363738  0.20843694  0.70174297  1
  O2-  O555  1  0.58791845  0.43190740  0.03013830  1
  O2-  O556  1  0.58378777  0.44576042  0.34665060  1
  O2-  O557  1  0.58712801  0.41628226  0.70606214  1
  O2-  O558  1  0.58277012  0.66744173  -0.01583301  1
  O2-  O559  1  0.56990516  0.67003609  0.34990735  1
  O2-  O560  1  0.57249787  0.65679065  0.67212408  1
  O2-  O561  1  0.57521342  0.91839799  0.01976357  1
  O2-  O562  1  0.56804790  0.82795175  0.27864795  1
  O2-  O563  1  0.57936323  0.91627235  0.68739338  1
  O2-  O564  1  0.81992188  0.17384688  0.02871784  1
  O2-  O565  1  0.85826005  0.21663112  0.34558078  1
  O2-  O566  1  0.83173662  0.16424910  0.68620087  1
  O2-  O567  1  0.81017746  0.42070162  0.05712471  1
  O2-  O568  1  0.83281444  0.41775018  0.31995215  1
  O2-  O569  1  0.82550812  0.41408150  0.68722103  1
  O2-  O570  1  0.83049586  0.67531749  0.01972891  1
  O2-  O571  1  0.82400828  0.66227471  0.36001293  1
  O2-  O572  1  0.83302321  0.66364285  0.68541164  1
  O2-  O573  1  0.81431164  0.91772343  0.03634635  1
  O2-  O574  1  0.84264939  0.91462342  0.35703830  1
  O2-  O575  1  0.80924746  0.90598686  0.65090427  1
