# generated using pymatgen
data_H2O
_symmetry_space_group_name_H-M   'P 1'
_cell_length_a   17.98012612
_cell_length_b   17.98197395
_cell_length_c   22.00248230
_cell_angle_alpha   89.98707772
_cell_angle_beta   90.02300955
_cell_angle_gamma   120.00023613
_symmetry_Int_Tables_number   1
_chemical_formula_structural   H2O
_chemical_formula_sum   'H384 O192'
_cell_volume   6160.71816420
_cell_formula_units_Z   192
loop_
 _symmetry_equiv_pos_site_id
 _symmetry_equiv_pos_as_xyz
  1  'x, y, z'
loop_
 _atom_type_symbol
 _atom_type_oxidation_number
  H+  1.0
  O2-  -2.0
loop_
 _atom_site_type_symbol
 _atom_site_label
 _atom_site_symmetry_multiplicity
 _atom_site_fract_x
 _atom_site_fract_y
 _atom_site_fract_z
 _atom_site_occupancy
  H+  H0  1  0.27822734  0.63532227  0.83018563  1
  H+  H1  1  0.94894826  0.34019819  0.22152923  1
  H+  H2  1  0.46983062  0.86652377  0.65430042  1
  H+  H3  1  0.12558032  0.76287241  0.32685548  1
  H+  H4  1  0.27551190  0.90732147  0.48341793  1
  H+  H5  1  0.99975499  0.36973053  0.16046272  1
  H+  H6  1  0.83875068  0.66703491  0.05513909  1
  H+  H7  1  0.40183520  0.78929547  1.00171009  1
  H+  H8  1  0.87895598  0.36287935  0.50441839  1
  H+  H9  1  0.37447480  0.89080824  0.82114896  1
  H+  H10  1  0.47871204  0.60524762  0.63648235  1
  H+  H11  1  0.17113332  0.57686374  0.90417635  1
  H+  H12  1  0.58006754  0.40052233  0.89022454  1
  H+  H13  1  0.89173722  0.61619128  0.50940563  1
  H+  H14  1  0.63557219  0.86257502  0.67093637  1
  H+  H15  1  0.16396969  0.09080932  0.60751793  1
  H+  H16  1  0.42807943  0.83542988  0.56178864  1
  H+  H17  1  0.63416084  0.10833795  0.99640939  1
  H+  H18  1  0.64285690  0.38346268  0.65154439  1
  H+  H19  1  0.18762157  0.33487588  0.92688217  1
  H+  H20  1  0.23435889  0.32727771  0.82572170  1
  H+  H21  1  0.20915614  0.37156038  0.64626550  1
  H+  H22  1  0.62211802  0.89459201  0.82644478  1
  H+  H23  1  0.37776283  0.85698568  0.64629341  1
  H+  H24  1  0.41645510  0.15565031  0.16875932  1
  H+  H25  1  0.12049881  0.62377426  0.34222235  1
  H+  H26  1  0.25920542  0.46052417  0.45268488  1
  H+  H27  1  0.37510292  0.26130633  0.83759018  1
  H+  H28  1  0.10762528  0.12353824  0.33013290  1
  H+  H29  1  0.87279161  0.71974345  0.14347507  1
  H+  H30  1  1.02907055  0.87645518  0.84321194  1
  H+  H31  1  0.49930531  0.05135343  0.65818367  1
  H+  H32  1  0.11822304  0.89051043  0.16230224  1
  H+  H33  1  0.54766107  0.53862257  0.87075055  1
  H+  H34  1  0.13286088  0.03311583  0.16810773  1
  H+  H35  1  0.45883795  0.35328879  0.65091219  1
  H+  H36  1  0.14218580  0.09860506  0.84740532  1
  H+  H37  1  0.38849922  0.24483514  0.48545125  1
  H+  H38  1  0.77669868  0.13422208  0.82901755  1
  H+  H39  1  0.77962686  0.39112161  0.49185839  1
  H+  H40  1  0.88079563  0.59825209  0.66290720  1
  H+  H41  1  0.51748497  0.12776575  0.00868772  1
  H+  H42  1  0.34334428  0.24746568  0.14515288  1
  H+  H43  1  0.23965806  0.18936045  0.54655547  1
  H+  H44  1  0.26301018  0.86291359  0.67276892  1
  H+  H45  1  0.46272004  0.36794427  0.19194249  1
  H+  H46  1  0.52805426  0.37740363  0.36244604  1
  H+  H47  1  0.26763318  0.87993184  0.33115282  1
  H+  H48  1  0.15711975  0.45540094  0.11319163  1
  H+  H49  1  0.14576319  0.00670808  0.99238231  1
  H+  H50  1  0.98022353  0.61173891  0.84544816  1
  H+  H51  1  0.00538089  0.37447597  0.00814355  1
  H+  H52  1  0.99651691  0.19138737  0.16991604  1
  H+  H53  1  0.87521468  0.47643827  0.83037303  1
  H+  H54  1  0.36784152  0.39014326  0.99899655  1
  H+  H55  1  0.89150143  0.77641723  0.84253457  1
  H+  H56  1  0.77642451  0.88770136  0.67698095  1
  H+  H57  1  0.85575692  0.21926480  1.00882486  1
  H+  H58  1  0.60111967  0.48001407  0.68193842  1
  H+  H59  1  -0.02337768  0.60275817  0.15997416  1
  H+  H60  1  0.39134915  0.11013578  0.83849008  1
  H+  H61  1  0.61893092  0.62312044  0.68791874  1
  H+  H62  1  0.38560919  0.53786977  0.48528181  1
  H+  H63  1  0.32941368  0.15436609  0.76576438  1
  H+  H64  1  0.17076235  0.06969325  0.90750152  1
  H+  H65  1  0.61848454  0.90023114  0.48784239  1
  H+  H66  1  0.65074469  0.10866217  0.17806808  1
  H+  H67  1  0.67007655  0.08112598  0.90245320  1
  H+  H68  1  0.89652989  0.11897768  0.83803441  1
  H+  H69  1  0.61264530  0.12931782  0.35322195  1
  H+  H70  1  0.87188496  0.89382041  0.82841330  1
  H+  H71  1  0.07759699  0.88783748  0.75050121  1
  H+  H72  1  0.15003827  0.20895975  0.79480459  1
  H+  H73  1  0.37366296  0.63657387  0.67027811  1
  H+  H74  1  0.39613574  0.60671823  0.32088081  1
  H+  H75  1  0.12647385  0.34132123  0.31173045  1
  H+  H76  1  0.88580477  0.85691310  0.66482629  1
  H+  H77  1  0.77666521  0.63698387  0.49488042  1
  H+  H78  1  0.12660125  0.50999912  0.99123528  1
  H+  H79  1  0.87542357  0.26645949  0.49963130  1
  H+  H80  1  0.16447717  0.64232002  0.50377496  1
  H+  H81  1  0.49267032  0.87269152  0.49858784  1
  H+  H82  1  0.52582410  0.13131512  0.83484560  1
  H+  H83  1  0.48408988  0.62204344  0.49137643  1
  H+  H84  1  0.34933442  0.46246179  0.66080382  1
  H+  H85  1  0.84417504  0.24350210  0.64972555  1
  H+  H86  1  1.13601528  0.41238092  0.47552976  1
  H+  H87  1  0.58846548  0.46845454  0.22377393  1
  H+  H88  1  0.61858074  0.21863851  0.83290565  1
  H+  H89  1  0.39582913  0.53735441  0.16499754  1
  H+  H90  1  0.86317197  0.08618098  0.18019950  1
  H+  H91  1  0.88817023  0.85243476  0.16335724  1
  H+  H92  1  0.86830612  0.62899304  0.14221201  1
  H+  H93  1  0.86619556  0.22345473  0.82712481  1
  H+  H94  1  0.62920193  0.75148669  0.16464865  1
  H+  H95  1  0.40032722  0.77029175  0.49577669  1
  H+  H96  1  0.63108965  0.26145256  0.18168013  1
  H+  H97  1  0.36399875  0.94655181  0.15191818  1
  H+  H98  1  0.68196541  0.32537665  0.89699121  1
  H+  H99  1  0.74085803  0.35725086  0.83659042  1
  H+  H100  1  0.01930323  0.20323526  0.13990263  1
  H+  H101  1  0.10771586  0.72168273  0.68161758  1
  H+  H102  1  0.53684025  0.98403064  0.70614290  1
  H+  H103  1  0.21927213  0.62183245  0.17363044  1
  H+  H104  1  0.87066511  0.62906180  0.33966556  1
  H+  H105  1  0.87338529  0.63391568  0.83082964  1
  H+  H106  1  0.92201480  0.48464272  0.67943754  1
  H+  H107  1  0.74209362  0.08955381  0.64846818  1
  H+  H108  1  0.36668499  0.98812928  0.47668867  1
  H+  H109  1  0.20605472  0.22147160  0.10493813  1
  H+  H110  1  0.86946154  0.34345809  0.65451449  1
  H+  H111  1  0.61450467  0.72829022  0.00597571  1
  H+  H112  1  0.38642039  0.65723898  0.02692094  1
  H+  H113  1  0.76667535  0.63096356  0.68195817  1
  H+  H114  1  0.72220466  0.87354308  0.51663382  1
  H+  H115  1  0.91632295  0.83874837  0.90098473  1
  H+  H116  1  0.87602830  0.98555948  0.82822876  1
  H+  H117  1  0.13928657  0.85302687  0.87086932  1
  H+  H118  1  0.60754578  0.21579246  1.00788791  1
  H+  H119  1  0.39960384  0.27254665  0.31989442  1
  H+  H120  1  0.38205788  0.11141692  0.15954024  1
  H+  H121  1  0.33462764  0.95329717  0.65358517  1
  H+  H122  1  0.83804715  0.91891194  0.73522940  1
  H+  H123  1  0.88560191  0.84350165  0.30054949  1
  H+  H124  1  0.11117725  0.97194599  0.33300228  1
  H+  H125  1  0.87987266  0.10583531  0.33591534  1
  H+  H126  1  0.88399443  0.61015933  0.98966491  1
  H+  H127  1  -0.01718754  0.61748663  0.31296771  1
  H+  H128  1  0.37573345  0.27385628  -0.01424578  1
  H+  H129  1  1.01794148  0.86534422  0.69042951  1
  H+  H130  1  0.89166919  1.02450466  0.66505467  1
  H+  H131  1  0.87781338  0.22255599  0.34321745  1
  H+  H132  1  0.87219484  0.35310156  -0.00634056  1
  H+  H133  1  0.97089408  0.60514260  0.99186403  1
  H+  H134  1  0.61185201  0.73140734  0.50456751  1
  H+  H135  1  0.10854702  0.71887468  0.15214914  1
  H+  H136  1  0.63166995  0.97122267  0.16847981  1
  H+  H137  1  0.87044160  0.71656535  0.33928858  1
  H+  H138  1  1.08436723  0.85588970  1.01483731  1
  H+  H139  1  0.11934283  0.47254416  0.84093580  1
  H+  H140  1  0.25767979  0.13268121  0.67632656  1
  H+  H141  1  0.85146001  0.89183583  0.37084182  1
  H+  H142  1  0.62017491  0.65323075  0.82435521  1
  H+  H143  1  0.11180427  0.48647518  0.68469239  1
  H+  H144  1  0.02847919  0.88817288  0.15744304  1
  H+  H145  1  0.39643372  0.88739489  0.30452465  1
  H+  H146  1  0.83692052  0.17177419  0.42785279  1
  H+  H147  1  0.35011608  -0.02968940  0.99742846  1
  H+  H148  1  0.52690499  0.63768763  0.16108903  1
  H+  H149  1  -0.01375870  0.11953881  0.83894343  1
  H+  H150  1  0.38457456  0.11180301  0.99067011  1
  H+  H151  1  0.38447604  0.73139197  0.32568893  1
  H+  H152  1  0.62273385  0.37889845  0.83682880  1
  H+  H153  1  0.16099103  0.13889183  0.50183667  1
  H+  H154  1  0.61870530  0.64030129  0.00686235  1
  H+  H155  1  0.41593027  0.84084119  0.24957336  1
  H+  H156  1  0.16803315  0.37941501  0.87292935  1
  H+  H157  1  0.47937106  0.86076317  0.84142076  1
  H+  H158  1  0.61503370  0.97747359  0.01116876  1
  H+  H159  1  0.11859812  0.61344772  0.65854752  1
  H+  H160  1  0.63506329  0.11758341  0.51087208  1
  H+  H161  1  0.77537263  0.14235857  0.48755470  1
  H+  H162  1  0.22271034  0.85471940  0.96641687  1
  H+  H163  1  0.63261359  0.35035268  -0.02142970  1
  H+  H164  1  0.13183407  0.12970273  0.65820389  1
  H+  H165  1  0.84742465  0.95433718  0.16675711  1
  H+  H166  1  0.14393644  0.12920249  0.16310403  1
  H+  H167  1  0.12513851  0.84507256  0.67609679  1
  H+  H168  1  0.91820487  0.57784271  0.21972998  1
  H+  H169  1  0.46139830  -0.02134213  0.22471934  1
  H+  H170  1  0.61777834  0.98088553  0.83094456  1
  H+  H171  1  0.86173072  0.46487596  0.15859573  1
  H+  H172  1  0.62814881  0.01540262  0.34109977  1
  H+  H173  1  0.72204186  0.35399632  -0.00516501  1
  H+  H174  1  0.39484899  0.02271513  0.83683627  1
  H+  H175  1  0.58457029  0.25783193  0.69067170  1
  H+  H176  1  0.85514778  0.46967459  0.00919600  1
  H+  H177  1  0.96610251  0.09938593  0.32998891  1
  H+  H178  1  0.36655800  0.13541043  0.33012233  1
  H+  H179  1  0.60595912  0.50384824  0.84601637  1
  H+  H180  1  0.85697540  0.88855112  0.50868451  1
  H+  H181  1  0.32192205  0.07154318  0.63715936  1
  H+  H182  1  -0.01518868  0.35635606  0.84872978  1
  H+  H183  1  0.27188122  0.39879007  0.14929335  1
  H+  H184  1  0.38215730  0.01775853  0.32558511  1
  H+  H185  1  0.88491231  0.77282981  0.50957106  1
  H+  H186  1  0.51277479  0.37962298  -0.02559659  1
  H+  H187  1  0.65393394  0.79406062  0.84231842  1
  H+  H188  1  0.63046522  0.86291733  0.99891747  1
  H+  H189  1  -0.01664875  0.62139538  0.50986758  1
  H+  H190  1  0.77423182  0.14654753  0.33827785  1
  H+  H191  1  0.97868026  0.85709795  0.31677610  1
  H+  H192  1  0.62698077  0.22832906  0.49959104  1
  H+  H193  1  0.65825160  0.58420576  0.73698148  1
  H+  H194  1  0.10667550  0.21163467  0.32787679  1
  H+  H195  1  0.66879108  0.18387856  0.67901561  1
  H+  H196  1  0.74087969  0.88297200  0.84555473  1
  H+  H197  1  0.86663001  0.13178647  0.67588849  1
  H+  H198  1  0.66861315  0.16440607  0.70922839  1
  H+  H199  1  0.54163578  0.92819159  0.33059880  1
  H+  H200  1  0.14129045  0.60671610  0.84484004  1
  H+  H201  1  0.27453139  0.12302144  0.82761706  1
  H+  H202  1  0.87419320  0.22274295  0.15872767  1
  H+  H203  1  0.13090059  0.60007558  0.98994004  1
  H+  H204  1  0.88312375  0.10958626  0.99633334  1
  H+  H205  1  0.26812874  0.37178147  0.32661923  1
  H+  H206  1  0.64011744  0.62056319  0.50138340  1
  H+  H207  1  0.88097283  0.76527940  0.66270860  1
  H+  H208  1  0.12078768  0.96193720  0.84145482  1
  H+  H209  1  0.58739730  0.37634720  0.21369548  1
  H+  H210  1  0.38961199  0.77213700  0.84155656  1
  H+  H211  1  0.78565117  0.63482767  0.83072333  1
  H+  H212  1  0.78046782  0.13726366  0.16502277  1
  H+  H213  1  0.10743068  0.32827391  0.01124097  1
  H+  H214  1  0.07411634  0.91528519  0.39349175  1
  H+  H215  1  0.53488366  0.10690981  0.16700746  1
  H+  H216  1  0.47393899  0.10280565  0.33314848  1
  H+  H217  1  0.58959519  0.93677930  0.42686915  1
  H+  H218  1  0.88392001  0.11898957  0.51484992  1
  H+  H219  1  0.60631083  0.46669001  -0.02123150  1
  H+  H220  1  0.22702302  0.10816011  0.32025109  1
  H+  H221  1  0.72771134  0.84722273  0.16693272  1
  H+  H222  1  0.40355402  0.35901010  0.50222619  1
  H+  H223  1  0.18970084  0.60801260  0.56163669  1
  H+  H224  1  0.70646912  0.18244674  0.29978463  1
  H+  H225  1  0.85056309  0.97790487  0.35660022  1
  H+  H226  1  0.26070608  0.15268532  0.14784447  1
  H+  H227  1  0.37226122  0.72358051  0.67186352  1
  H+  H228  1  0.87094645  0.47966640  0.49687558  1
  H+  H229  1  0.64388384  0.00985778  0.65071309  1
  H+  H230  1  0.10976638  0.63020528  0.15190734  1
  H+  H231  1  0.16019684  0.28408192  0.15501215  1
  H+  H232  1  0.23801059  0.62788892  0.31672085  1
  H+  H233  1  0.38509927  0.51283790  0.31952239  1
  H+  H234  1  0.35283888  0.21073978  0.66858765  1
  H+  H235  1  0.11538811  0.71947407  0.84393265  1
  H+  H236  1  0.01195928  0.89090762  0.49388866  1
  H+  H237  1  0.29672436  0.66016228  0.48706028  1
  H+  H238  1  0.57357751  0.93380815  0.74254807  1
  H+  H239  1  0.72711871  0.37788998  0.66412935  1
  H+  H240  1  0.12476055  0.85102555  0.32559912  1
  H+  H241  1  0.63962783  0.51736000  0.36855691  1
  H+  H242  1  0.17046733  0.51252613  0.47947386  1
  H+  H243  1  0.01567694  0.14625703  0.66625570  1
  H+  H244  1  0.39769178  0.62432963  0.84664299  1
  H+  H245  1  0.62970036  0.77152436  0.66530977  1
  H+  H246  1  0.37891025  0.49299922  1.00062399  1
  H+  H247  1  1.01160670  0.09245088  1.01884948  1
  H+  H248  1  0.73016937  0.61448272  0.98890307  1
  H+  H249  1  0.82770619  0.15889043  0.73242915  1
  H+  H250  1  0.88155570  0.87289900  0.99272836  1
  H+  H251  1  0.33374472  0.81206302  0.15574791  1
  H+  H252  1  0.56477922  0.39146104  0.71841626  1
  H+  H253  1  0.14494353  0.36855398  0.16809109  1
  H+  H254  1  0.90809238  0.40449167  0.34596783  1
  H+  H255  1  0.71699328  0.35087660  0.18339513  1
  H+  H256  1  0.21927853  0.85270660  0.16717171  1
  H+  H257  1  0.62983102  0.34125070  0.34329615  1
  H+  H258  1  0.12518306  0.74591700  0.49078697  1
  H+  H259  1  0.36077767  0.37825892  0.33441214  1
  H+  H260  1  0.48130345  0.11850833  0.50754487  1
  H+  H261  1  0.68666829  0.80933846  0.37666213  1
  H+  H262  1  0.72485080  0.11001278  -0.00225272  1
  H+  H263  1  0.52022496  0.37517031  0.50747012  1
  H+  H264  1  0.90309900  0.52790269  0.31782158  1
  H+  H265  1  0.35524480  0.88413514  -0.00296433  1
  H+  H266  1  0.85446339  0.97527527  0.00891586  1
  H+  H267  1  0.20487425  0.34704437  0.49885616  1
  H+  H268  1  0.42439999  0.59112116  0.93774462  1
  H+  H269  1  0.11902377  0.28714743  0.64859160  1
  H+  H270  1  0.64313306  0.36204832  0.50769765  1
  H+  H271  1  0.14663962  0.90645936  0.51877202  1
  H+  H272  1  0.36173682  0.40109983  0.14998268  1
  H+  H273  1  0.49298242  0.64297241  0.84674528  1
  H+  H274  1  0.86492057  0.73003937  -0.00303778  1
  H+  H275  1  0.76480190  0.88540560  0.00948449  1
  H+  H276  1  0.91231783  0.08554173  0.60500020  1
  H+  H277  1  0.63937221  0.11003371  0.84266312  1
  H+  H278  1  0.34241977  0.37134696  0.65594948  1
  H+  H279  1  0.12351970  0.08017432  1.00023099  1
  H+  H280  1  0.31527924  0.42733334  0.41886828  1
  H+  H281  1  0.10838897  0.71543189  -0.00797273  1
  H+  H282  1  0.62568404  0.58712545  0.18484136  1
  H+  H283  1  0.48253132  0.61318261  0.99778635  1
  H+  H284  1  0.10000586  0.20425358  0.48474288  1
  H+  H285  1  0.38378433  0.65319535  0.48295751  1
  H+  H286  1  0.49780048  0.08015146  0.68252076  1
  H+  H287  1  0.13693349  0.52288331  0.17101202  1
  H+  H288  1  0.31860888  0.90286704  0.08724847  1
  H+  H289  1  0.27197874  0.13371445  -0.00550463  1
  H+  H290  1  0.34391814  0.17379799  0.38819525  1
  H+  H291  1  0.02976440  0.57281521  0.37548565  1
  H+  H292  1  0.87313868  0.43306826  0.40260947  1
  H+  H293  1  0.65737814  0.84568547  0.57188077  1
  H+  H294  1  0.91996610  0.57917558  0.60373982  1
  H+  H295  1  0.09469726  0.67506282  0.43754656  1
  H+  H296  1  0.22804937  0.94351856  0.56298579  1
  H+  H297  1  0.58391237  0.15330320  0.10535574  1
  H+  H298  1  0.34080995  0.66595036  0.77150324  1
  H+  H299  1  0.47571139  0.35443473  0.28192361  1
  H+  H300  1  0.84101346  0.66503478  0.43820885  1
  H+  H301  1  0.82520755  0.92362419  0.45323417  1
  H+  H302  1  0.91682047  0.08273813  0.93738354  1
  H+  H303  1  0.16187700  0.82259769  0.22818983  1
  H+  H304  1  0.72308168  0.60626024  0.36231304  1
  H+  H305  1  0.61180143  0.46948237  0.50513903  1
  H+  H306  1  0.66533463  0.59769287  0.56427595  1
  H+  H307  1  0.14558257  0.32673291  0.55671663  1
  H+  H308  1  0.36387714  0.05454361  0.57823653  1
  H+  H309  1  0.56873908  0.39788585  0.09173820  1
  H+  H310  1  0.52555586  0.64791300  0.70753500  1
  H+  H311  1  0.08114754  0.19404097  0.72041331  1
  H+  H312  1  0.97246734  0.87514377  0.99526413  1
  H+  H313  1  0.46556514  0.34524185  0.84123314  1
  H+  H314  1  0.83120529  0.16009406  0.06881686  1
  H+  H315  1  0.90667243  0.32290985  0.93576004  1
  H+  H316  1  0.54935056  0.61941631  0.30071344  1
  H+  H317  1  0.42865950  0.58408885  0.22888316  1
  H+  H318  1  0.59386838  0.91584511  0.10774064  1
  H+  H319  1  0.08731750  0.13495299  0.06981915  1
  H+  H320  1  0.08267317  0.91062434  0.07181125  1
  H+  H321  1  0.39940901  0.32923631  0.92405042  1
  H+  H322  1  0.09615503  0.39359104  0.67756501  1
  H+  H323  1  0.62762169  0.71806413  0.34225392  1
  H+  H324  1  0.82780205  0.90526466  0.10185433  1
  H+  H325  1  0.08725741  0.98632610  0.48366316  1
  H+  H326  1  0.41395013  0.58127742  0.58207347  1
  H+  H327  1  0.32796602  0.17746905  0.05233925  1
  H+  H328  1  0.16886435  0.59458830  0.26183992  1
  H+  H329  1  0.88269460  0.05240526  0.24261913  1
  H+  H330  1  0.60623033  0.70402982  0.43716882  1
  H+  H331  1  0.35226011  0.68231882  0.38804948  1
  H+  H332  1  0.58624318  0.39947483  0.42181886  1
  H+  H333  1  0.41569259  0.07958448  0.93346816  1
  H+  H334  1  0.82594133  0.40786465  0.06840073  1
  H+  H335  1  0.58653539  0.66720474  0.09990364  1
  H+  H336  1  0.55633786  0.20281360  0.74952130  1
  H+  H337  1  0.58975705  0.16103947  0.44241005  1
  H+  H338  1  0.66048468  0.58582873  0.93456553  1
  H+  H339  1  0.63019421  0.59838635  0.25556867  1
  H+  H340  1  0.91565477  0.82996380  0.57035902  1
  H+  H341  1  0.43373503  0.04585333  0.23859499  1
  H+  H342  1  0.08252789  0.66522604  0.05660868  1
  H+  H343  1  0.32839119  0.91479670  0.39015776  1
  H+  H344  1  0.15525295  0.82745440  0.61165297  1
  H+  H345  1  0.08977766  0.11058942  0.77048321  1
  H+  H346  1  0.97527448  0.43839529  0.70183637  1
  H+  H347  1  0.63256898  0.02081711  0.50003538  1
  H+  H348  1  0.65366495  0.31041189  0.28165732  1
  H+  H349  1  0.60325814  0.21227360  0.35296331  1
  H+  H350  1  0.63856771  0.85671069  0.16805760  1
  H+  H351  1  0.39896726  0.12848157  0.49142374  1
  H+  H352  1  0.87956244  0.02815418  0.52002663  1
  H+  H353  1  0.68124502  0.33786480  0.56354190  1
  H+  H354  1  0.08635839  0.66896104  0.77946178  1
  H+  H355  1  0.37599833  0.33148855  0.22623669  1
  H+  H356  1  0.40873177  0.31985352  0.58846490  1
  H+  H357  1  0.92209109  0.81748612  0.21746075  1
  H+  H358  1  0.91452679  0.57732265  0.90222744  1
  H+  H359  1  0.42047515  0.83824319  0.93661396  1
  H+  H360  1  0.67566807  0.06876892  0.56982986  1
  H+  H361  1  0.16717236  0.32294078  0.25329981  1
  H+  H362  1  0.08802064  0.15128431  0.42447601  1
  H+  H363  1  0.29882435  0.15487769  0.48141032  1
  H+  H364  1  0.86774950  0.42152385  0.77137821  1
  H+  H365  1  0.25554284  0.33287893  0.75402639  1
  H+  H366  1  0.06641529  0.40848914  0.06738318  1
  H+  H367  1  0.34754894  0.92011167  0.76020821  1
  H+  H368  1  0.33842381  0.42579044  0.06351080  1
  H+  H369  1  0.83732734  0.66027047  0.73301557  1
  H+  H370  1  0.16548835  0.08137525  0.26160870  1
  H+  H371  1  0.09045975  0.41198967  0.78393507  1
  H+  H372  1  0.66605896  0.84077197  0.93824366  1
  H+  H373  1  0.68648567  0.09237251  0.24053900  1
  H+  H374  1  0.13910828  0.26710635  0.03788890  1
  H+  H375  1  0.61659637  0.41689330  0.09398034  1
  H+  H376  1  0.89772552  0.36048244  0.84300331  1
  H+  H377  1  0.60785878  0.69548413  0.76394582  1
  H+  H378  1  0.52397794  0.89196563  0.01212084  1
  H+  H379  1  0.87739103  0.30974559  0.57014377  1
  H+  H380  1  0.07777231  0.53954143  0.61050331  1
  H+  H381  1  0.01809366  0.63366363  0.68449566  1
  H+  H382  1  0.36475213  0.69903038  0.08444044  1
  H+  H383  1  0.86573982  0.37853925  0.15792945  1
  O2-  O384  1  0.14813905  0.20735945  0.11706010  1
  O2-  O385  1  0.09090690  0.14825513  0.46955732  1
  O2-  O386  1  0.09256536  0.15121028  0.80108226  1
  O2-  O387  1  0.10925719  0.43110299  0.14168438  1
  O2-  O388  1  0.16774099  0.46685433  0.45311004  1
  O2-  O389  1  0.08959019  0.41013606  0.82896039  1
  O2-  O390  1  0.07986978  0.66037260  0.13384219  1
  O2-  O391  1  0.09789575  0.68434299  0.48290172  1
  O2-  O392  1  0.08335718  0.66196671  0.82458835  1
  O2-  O393  1  0.09088373  0.92315323  0.14608532  1
  O2-  O394  1  0.07122873  0.92671090  0.47567216  1
  O2-  O395  1  0.09072619  0.89872614  0.83249480  1
  O2-  O396  1  0.30643172  0.19544242  0.12074837  1
  O2-  O397  1  0.35742109  0.18331708  0.46372460  1
  O2-  O398  1  0.33396329  0.15689043  0.81116189  1
  O2-  O399  1  0.33230977  0.43010997  0.13084291  1
  O2-  O400  1  0.30450496  0.44418874  0.45985022  1
  O2-  O401  1  0.23230014  0.29345677  0.78868612  1
  O2-  O402  1  0.32278938  0.69766726  0.15713381  1
  O2-  O403  1  0.35676669  0.68946261  0.46983082  1
  O2-  O404  1  0.33969986  0.66835700  0.81690059  1
  O2-  O405  1  0.31767448  0.89378253  0.13234465  1
  O2-  O406  1  0.33069036  0.92772926  0.46232945  1
  O2-  O407  1  0.35252485  0.92767404  0.80470756  1
  O2-  O408  1  0.59020730  0.15387444  0.15045757  1
  O2-  O409  1  0.59597219  0.16525478  0.48883015  1
  O2-  O410  1  0.58614873  0.15793370  0.81860076  1
  O2-  O411  1  0.55085639  0.40076819  0.22443531  1
  O2-  O412  1  0.58622660  0.40772347  0.49580184  1
  O2-  O413  1  0.58526058  0.40444836  0.84458873  1
  O2-  O414  1  0.58936111  0.66914860  0.14515593  1
  O2-  O415  1  0.59027527  0.67790166  0.48059528  1
  O2-  O416  1  0.60732085  0.69753477  0.80965311  1
  O2-  O417  1  0.60070885  0.91165992  0.15230066  1
  O2-  O418  1  0.58735451  0.93091522  0.47357648  1
  O2-  O419  1  0.58805649  0.92164067  0.81216832  1
  O2-  O420  1  0.83859632  0.16225382  0.14518106  1
  O2-  O421  1  0.83599756  0.17587783  0.47494081  1
  O2-  O422  1  0.83571327  0.16323966  0.81077794  1
  O2-  O423  1  0.82877689  0.40273916  0.14625025  1
  O2-  O424  1  0.84226147  0.42003670  0.48005576  1
  O2-  O425  1  0.84956908  0.41622664  0.81455665  1
  O2-  O426  1  0.84191907  0.66156168  0.12511002  1
  O2-  O427  1  0.83896296  0.66675871  0.48382653  1
  O2-  O428  1  0.84360485  0.66528916  0.81409097  1
  O2-  O429  1  0.82584419  0.89563426  0.14682380  1
  O2-  O430  1  0.82695123  0.92104617  0.49882588  1
  O2-  O431  1  0.84213764  0.92476857  0.81335215  1
  O2-  O432  1  0.16240649  0.09171926  0.18602778  1
  O2-  O433  1  0.20621034  0.13317763  0.52745758  1
  O2-  O434  1  0.17199602  0.06809013  0.86113781  1
  O2-  O435  1  0.17969219  0.34015579  0.18046498  1
  O2-  O436  1  0.14443814  0.31395566  0.51233831  1
  O2-  O437  1  0.21164348  0.36623816  0.88819718  1
  O2-  O438  1  0.15748750  0.58462539  0.18594434  1
  O2-  O439  1  0.19947361  0.61639296  0.51711285  1
  O2-  O440  1  0.17389815  0.57830541  0.85764559  1
  O2-  O441  1  0.15918286  0.82480932  0.18320003  1
  O2-  O442  1  0.18706245  0.89196170  0.53917100  1
  O2-  O443  1  0.16831752  0.82025905  0.88539561  1
  O2-  O444  1  0.44814094  0.01934929  0.20375178  1
  O2-  O445  1  0.41801638  0.08928829  0.51058153  1
  O2-  O446  1  0.42199059  0.08155308  0.85631357  1
  O2-  O447  1  0.39819308  0.34280040  0.18450103  1
  O2-  O448  1  0.42719006  0.32514055  0.51912268  1
  O2-  O449  1  0.40521303  0.32152049  0.85334871  1
  O2-  O450  1  0.43418654  0.59351282  0.18386557  1
  O2-  O451  1  0.42185028  0.59637974  0.50405767  1
  O2-  O452  1  0.43588387  0.60367692  0.86367000  1
  O2-  O453  1  0.34962378  0.77764755  0.18355044  1
  O2-  O454  1  0.43193384  0.83444681  0.51507626  1
  O2-  O455  1  0.41942457  0.83304407  0.85664342  1
  O2-  O456  1  0.68271613  0.08127035  0.19501026  1
  O2-  O457  1  0.66504645  0.08051798  0.52120095  1
  O2-  O458  1  0.67208205  0.08099092  0.85684434  1
  O2-  O459  1  0.65781451  0.31984584  0.19988095  1
  O2-  O460  1  0.67850979  0.33388124  0.51820839  1
  O2-  O461  1  0.68046163  0.32727632  0.85150231  1
  O2-  O462  1  0.63837060  0.56292558  0.22068906  1
  O2-  O463  1  0.66851552  0.59018683  0.52073047  1
  O2-  O464  1  0.60722934  0.55858113  0.85907891  1
  O2-  O465  1  0.66509399  0.81868032  0.18051420  1
  O2-  O466  1  0.65962637  0.84844193  0.52669841  1
  O2-  O467  1  0.67973625  0.85343376  0.85962531  1
  O2-  O468  1  0.87289338  0.04131663  0.19839131  1
  O2-  O469  1  0.90794594  0.08766866  0.53645714  1
  O2-  O470  1  0.92672775  0.08920484  0.85454732  1
  O2-  O471  1  0.94017233  0.33747330  0.17732731  1
  O2-  O472  1  0.90012145  0.32425648  0.52298571  1
  O2-  O473  1  0.92146001  0.32451500  0.85876998  1
  O2-  O474  1  0.91559011  0.57139627  0.17464506  1
  O2-  O475  1  0.92330288  0.58639260  0.52425062  1
  O2-  O476  1  0.91729215  0.58029184  0.85628134  1
  O2-  O477  1  0.92426795  0.82544943  0.17278088  1
  O2-  O478  1  0.91384424  0.83345968  0.52487815  1
  O2-  O479  1  0.92060145  0.83743160  0.85521485  1
  O2-  O480  1  0.16557284  0.07464776  0.30712440  1
  O2-  O481  1  0.15772542  0.09285587  0.65193132  1
  O2-  O482  1  0.16703324  0.06659459  0.97882292  1
  O2-  O483  1  0.16233325  0.31669420  0.29936198  1
  O2-  O484  1  0.14755196  0.34814303  0.63418432  1
  O2-  O485  1  0.12954981  0.28970458  0.99966608  1
  O2-  O486  1  0.17648807  0.60283143  0.30698689  1
  O2-  O487  1  0.13170067  0.57540139  0.63176482  1
  O2-  O488  1  0.16066627  0.56970131  0.97550133  1
  O2-  O489  1  0.15502625  0.82095999  0.30994091  1
  O2-  O490  1  0.15543243  0.81578388  0.65550226  1
  O2-  O491  1  0.16088912  0.82024103  0.95212435  1
  O2-  O492  1  0.41833523  0.07831854  0.31050591  1
  O2-  O493  1  0.32031436  0.02524292  0.61098270  1
  O2-  O494  1  0.41319925  0.07823237  0.97919452  1
  O2-  O495  1  0.42957512  0.33635627  0.31348487  1
  O2-  O496  1  0.39984559  0.31941398  0.63501672  1
  O2-  O497  1  0.40420759  0.33504833  0.97066665  1
  O2-  O498  1  0.42136283  0.57284129  0.30504628  1
  O2-  O499  1  0.41676427  0.57668500  0.62732087  1
  O2-  O500  1  0.42125874  0.58220442  0.98343500  1
  O2-  O501  1  0.44315258  0.88480777  0.28165606  1
  O2-  O502  1  0.41525201  0.83258333  0.63179292  1
  O2-  O503  1  0.42127745  0.84670185  0.98150142  1
  O2-  O504  1  0.69636214  0.12615058  0.31255386  1
  O2-  O505  1  0.69273621  0.04571111  0.62289373  1
  O2-  O506  1  0.66511432  0.07914338  0.98033845  1
  O2-  O507  1  0.65264603  0.30483132  0.32656787  1
  O2-  O508  1  0.67501189  0.35311655  0.63984193  1
  O2-  O509  1  0.66463958  0.31868486  0.97464968  1
  O2-  O510  1  0.66430571  0.57877392  0.37844007  1
  O2-  O511  1  0.65351961  0.58628507  0.69291212  1
  O2-  O512  1  0.66677154  0.58296478  0.97899650  1
  O2-  O513  1  0.63006930  0.75804702  0.37815657  1
  O2-  O514  1  0.66378497  0.83451801  0.65187027  1
  O2-  O515  1  0.66143886  0.83296546  0.98331298  1
  O2-  O516  1  0.90283360  0.06775526  0.32203126  1
  O2-  O517  1  0.91817938  0.08564485  0.65175467  1
  O2-  O518  1  0.91021413  0.07578369  0.98207596  1
  O2-  O519  1  0.96149658  0.33391480  0.31194044  1
  O2-  O520  1  0.84436942  0.29223690  0.62715655  1
  O2-  O521  1  0.90175894  0.32102905  0.98116061  1
  O2-  O522  1  0.92262013  0.58531765  0.29875165  1
  O2-  O523  1  0.91732266  0.57413672  0.64907209  1
  O2-  O524  1  0.90950080  0.57377995  0.97763814  1
  O2-  O525  1  0.92115012  0.81693971  0.29763226  1
  O2-  O526  1  0.91515405  0.82610877  0.64910641  1
  O2-  O527  1  0.91468752  0.84597229  0.97574932  1
  O2-  O528  1  0.05672234  0.08594233  0.03938388  1
  O2-  O529  1  0.07608489  0.15239215  0.34542460  1
  O2-  O530  1  0.07870907  0.18754980  0.67602522  1
  O2-  O531  1  0.06646677  0.40388254  0.02201336  1
  O2-  O532  1  0.03853708  0.36825658  0.33272414  1
  O2-  O533  1  0.07715620  0.42816617  0.70200694  1
  O2-  O534  1  0.07602209  0.65826429  0.01128139  1
  O2-  O535  1  0.07462100  0.63223009  0.36655431  1
  O2-  O536  1  0.07838845  0.66152794  0.69973153  1
  O2-  O537  1  0.07257436  0.90144460  0.02639894  1
  O2-  O538  1  0.07664288  0.91110909  0.34846719  1
  O2-  O539  1  0.07681027  0.88543085  0.70548665  1
  O2-  O540  1  0.33349589  0.17047382  0.00740608  1
  O2-  O541  1  0.33731712  0.16793364  0.34257799  1
  O2-  O542  1  0.31961804  0.15141163  0.68525207  1
  O2-  O543  1  0.34513138  0.42832176  0.01621171  1
  O2-  O544  1  0.32670609  0.40608364  0.34473664  1
  O2-  O545  1  0.31165945  0.40120756  0.67117207  1
  O2-  O546  1  0.38896594  0.70934245  0.04252353  1
  O2-  O547  1  0.34930537  0.67442082  0.34323792  1
  O2-  O548  1  0.35097709  0.66841716  0.69304132  1
  O2-  O549  1  0.31636408  0.90771493  0.00808721  1
  O2-  O550  1  0.32858567  0.91245869  0.34395067  1
  O2-  O551  1  0.32682587  0.90102721  0.67588734  1
  O2-  O552  1  0.57781504  0.15619541  0.02466236  1
  O2-  O553  1  0.57517739  0.15088380  0.37044347  1
  O2-  O554  1  0.53999467  0.23550236  0.72201258  1
  O2-  O555  1  0.57607226  0.40525908  -0.03367793  1
  O2-  O556  1  0.58751125  0.39800480  0.37596829  1
  O2-  O557  1  0.57527473  0.41591809  0.67758860  1
  O2-  O558  1  0.58535518  0.66759088  0.02131381  1
  O2-  O559  1  0.61153225  0.65540556  0.29371150  1
  O2-  O560  1  0.58142458  0.67308505  0.68759457  1
  O2-  O561  1  0.58449691  0.91730755  0.02724052  1
  O2-  O562  1  0.59271471  0.95653540  0.35703688  1
  O2-  O563  1  0.56089023  0.94646874  0.69947641  1
  O2-  O564  1  0.82734978  0.15817756  0.02311731  1
  O2-  O565  1  0.83731071  0.16493081  0.35900122  1
  O2-  O566  1  0.82811166  0.15594981  0.68688894  1
  O2-  O567  1  0.82355958  0.40845317  0.02272253  1
  O2-  O568  1  0.90490182  0.45278736  0.36361858  1
  O2-  O569  1  0.91737083  0.43228753  0.69881593  1
  O2-  O570  1  0.83534536  0.66826741  0.00837285  1
  O2-  O571  1  0.84721313  0.66155970  0.36128712  1
  O2-  O572  1  0.82981490  0.65609908  0.68803648  1
  O2-  O573  1  0.82567869  0.91440604  0.02428345  1
  O2-  O574  1  0.81822160  0.91999138  0.37816949  1
  O2-  O575  1  0.83769966  0.91681236  0.68965079  1
