# generated using pymatgen
data_H2O
_symmetry_space_group_name_H-M   'P 1'
_cell_length_a   17.99834314
_cell_length_b   17.99501649
_cell_length_c   22.01588779
_cell_angle_alpha   90.02219283
_cell_angle_beta   89.98865466
_cell_angle_gamma   120.02526077
_symmetry_Int_Tables_number   1
_chemical_formula_structural   H2O
_chemical_formula_sum   'H384 O192'
_cell_volume   6173.63536594
_cell_formula_units_Z   192
loop_
 _symmetry_equiv_pos_site_id
 _symmetry_equiv_pos_as_xyz
  1  'x, y, z'
loop_
 _atom_type_symbol
 _atom_type_oxidation_number
  H+  1.0
  O2-  -2.0
loop_
 _atom_site_type_symbol
 _atom_site_label
 _atom_site_symmetry_multiplicity
 _atom_site_fract_x
 _atom_site_fract_y
 _atom_site_fract_z
 _atom_site_occupancy
  H+  H0  1  0.10169785  0.42510302  0.07526421  1
  H+  H1  1  0.35234253  0.96932507  0.35262668  1
  H+  H2  1  0.35792054  0.12465664  0.34272266  1
  H+  H3  1  0.36773578  0.38880452  0.16148315  1
  H+  H4  1  0.28087272  0.15072753  0.15231037  1
  H+  H5  1  0.61842996  0.63813954  0.82314638  1
  H+  H6  1  0.85311515  0.88903691  0.15390542  1
  H+  H7  1  0.21814956  0.37920128  0.33102667  1
  H+  H8  1  0.88849576  0.27931018  0.96942965  1
  H+  H9  1  0.23830855  0.61859159  0.98912064  1
  H+  H10  1  0.77629265  0.14178365  -0.00805021  1
  H+  H11  1  0.23014277  0.10815247  0.32609965  1
  H+  H12  1  0.87041481  0.21131807  0.34890056  1
  H+  H13  1  0.27348544  0.62874993  0.82967287  1
  H+  H14  1  0.13362142  0.11718498  0.84142674  1
  H+  H15  1  0.60168139  0.90317248  0.40904642  1
  H+  H16  1  0.53035500  0.40116812  0.48875651  1
  H+  H17  1  0.52761781  0.40632033  0.66989285  1
  H+  H18  1  0.60546992  0.84744151  0.98500277  1
  H+  H19  1  0.88227982  0.52743835  0.98777481  1
  H+  H20  1  0.47410406  0.60618654  1.00057269  1
  H+  H21  1  0.12315981  0.26574545  0.84012555  1
  H+  H22  1  0.35960227  1.01937445  0.50774702  1
  H+  H23  1  0.64382443  0.62031162  0.51436787  1
  H+  H24  1  0.75465810  0.62425931  0.83596068  1
  H+  H25  1  0.61129170  0.88024007  0.15670454  1
  H+  H26  1  0.22473721  0.85790062  -0.02781322  1
  H+  H27  1  0.86327410  0.63192887  0.48319007  1
  H+  H28  1  0.41581940  0.24618744  0.30154011  1
  H+  H29  1  0.88068947  0.73056599  0.48461544  1
  H+  H30  1  0.61522964  0.13188060  -0.00134172  1
  H+  H31  1  0.39762482  0.76086645  0.83717438  1
  H+  H32  1  0.86896430  0.73904600  0.66485751  1
  H+  H33  1  0.27567345  0.38351067  0.00700608  1
  H+  H34  1  0.39586810  0.29574210  0.49935377  1
  H+  H35  1  0.34993183  0.99588509  0.82203071  1
  H+  H36  1  0.86923905  -0.00490845  0.51390618  1
  H+  H37  1  0.27594461  0.38587600  0.16345237  1
  H+  H38  1  0.14342392  0.63584678  0.53759205  1
  H+  H39  1  0.78007043  0.40232214  0.66391153  1
  H+  H40  1  0.88799741  0.11967306  0.98635466  1
  H+  H41  1  0.38601828  0.61226499  0.16652953  1
  H+  H42  1  0.09361223  0.91287654  0.11096599  1
  H+  H43  1  0.59476845  0.17072420  0.22220052  1
  H+  H44  1  0.85958339  0.89307532  -0.00047670  1
  H+  H45  1  0.92639805  0.33966039  0.87930631  1
  H+  H46  1  0.84756293  0.46826011  0.83934096  1
  H+  H47  1  0.88057432  0.61527779  -0.00743198  1
  H+  H48  1  0.34808925  0.87958935  0.34804857  1
  H+  H49  1  0.03348933  0.10553939  0.40361555  1
  H+  H50  1  0.10875995  0.15055422  0.15923497  1
  H+  H51  1  0.86025068  0.97504162  0.67400309  1
  H+  H52  1  0.86451151  0.98366415  0.00271739  1
  H+  H53  1  0.46084444  0.61640674  0.31415572  1
  H+  H54  1  0.62290994  0.48534924  0.48886800  1
  H+  H55  1  0.12855687  0.72581685  0.99943772  1
  H+  H56  1  0.40047365  0.36630440  0.32650879  1
  H+  H57  1  0.14630355  0.36405211  0.99965066  1
  H+  H58  1  0.37095484  0.35486756  0.29919237  1
  H+  H59  1  0.35292928  0.72657075  0.51098670  1
  H+  H60  1  0.48134404  0.61318269  0.66926281  1
  H+  H61  1  0.38927284  0.08406609  0.59673936  1
  H+  H62  1  0.38777087  0.86219882  0.98058706  1
  H+  H63  1  0.77334480  0.88316694  0.67238678  1
  H+  H64  1  0.01795896  0.38275435  0.80023657  1
  H+  H65  1  -0.04477378  0.60616427  0.83849679  1
  H+  H66  1  0.52217929  0.89098040  0.00592558  1
  H+  H67  1  0.67233429  0.83004874  0.60415008  1
  H+  H68  1  0.64093071  0.01461974  0.33142042  1
  H+  H69  1  0.86345258  0.39799113  0.66913327  1
  H+  H70  1  0.18968660  0.03194456  0.53760015  1
  H+  H71  1  0.76126777  0.13192187  0.67111052  1
  H+  H72  1  0.50862511  0.32754770  0.30085562  1
  H+  H73  1  0.86835657  0.48563973  0.34433484  1
  H+  H74  1  0.66230466  0.83171835  0.88929212  1
  H+  H75  1  0.35831798  0.96953903  0.67348823  1
  H+  H76  1  0.22772767  0.13068767  0.84306514  1
  H+  H77  1  0.39195736  0.14206132  0.84388726  1
  H+  H78  1  0.36432128  0.32832172  0.84131331  1
  H+  H79  1  0.36842030  0.72770005  0.16163554  1
  H+  H80  1  0.74105077  0.84697211  0.51302954  1
  H+  H81  1  0.10399985  0.73231895  0.36042763  1
  H+  H82  1  0.52570435  0.88013090  0.82137729  1
  H+  H83  1  0.63545115  0.85976905  0.66029115  1
  H+  H84  1  -0.03597010  0.87189322  0.18339654  1
  H+  H85  1  0.47483502  0.92753460  0.31592852  1
  H+  H86  1  0.62093202  0.39097650  1.00331659  1
  H+  H87  1  0.89148553  0.61834858  0.32473915  1
  H+  H88  1  0.82118728  0.14819142  0.44042362  1
  H+  H89  1  0.78242018  0.88249156  0.33854247  1
  H+  H90  1  0.12794147  0.77618186  0.82246198  1
  H+  H91  1  0.13910355  0.37013755  0.68196706  1
  H+  H92  1  0.35787421  0.72106156  0.67866187  1
  H+  H93  1  0.14303336  0.61780845  0.17869084  1
  H+  H94  1  0.10865098  0.22926177  0.68216328  1
  H+  H95  1  0.76269598  0.37380167  0.49170846  1
  H+  H96  1  0.97054422  0.35608393  0.67429996  1
  H+  H97  1  0.51864108  0.13451184  0.67613381  1
  H+  H98  1  0.35714259  0.44540143  0.84283179  1
  H+  H99  1  0.58719598  0.41240980  0.39451100  1
  H+  H100  1  0.22074505  0.60204737  0.67602866  1
  H+  H101  1  0.87175819  0.26173662  0.51576938  1
  H+  H102  1  0.71805126  0.35498489  0.84349889  1
  H+  H103  1  0.63013453  0.39137136  0.33744777  1
  H+  H104  1  0.90278204  0.64795996  0.64103214  1
  H+  H105  1  0.86071666  0.24484857  0.14613268  1
  H+  H106  1  0.76847450  0.13567485  0.82651803  1
  H+  H107  1  0.77675201  0.39024547  -0.00180846  1
  H+  H108  1  1.00999388  0.34924814  0.49990992  1
  H+  H109  1  0.53553826  0.14630205  0.16639884  1
  H+  H110  1  0.48484794  0.86195250  0.17773047  1
  H+  H111  1  0.51192810  0.37255297  0.82401350  1
  H+  H112  1  0.64419076  0.62159607  0.17147215  1
  H+  H113  1  0.00265262  0.37321340  0.34365572  1
  H+  H114  1  0.64396340  0.75632338  0.51829195  1
  H+  H115  1  0.63911721  0.61410190  0.65774187  1
  H+  H116  1  0.38958421  0.35912849  1.00468077  1
  H+  H117  1  0.11979670  0.86001149  0.83390513  1
  H+  H118  1  0.61928945  0.89002642  0.81823860  1
  H+  H119  1  0.11433537  0.72232385  0.68155094  1
  H+  H120  1  0.96603252  0.11295913  0.17238943  1
  H+  H121  1  0.40091593  0.54187982  0.51954652  1
  H+  H122  1  0.38306404  0.51949497  1.00144264  1
  H+  H123  1  0.36527567  0.63528759  1.00650165  1
  H+  H124  1  0.36493501  0.98422056  -0.01723579  1
  H+  H125  1  0.64527842  0.10534902  0.17537708  1
  H+  H126  1  0.62844735  0.10815241  0.83542107  1
  H+  H127  1  0.07687975  0.17329778  0.09823506  1
  H+  H128  1  0.60145869  0.71539285  0.00507632  1
  H+  H129  1  0.65231176  0.86354189  0.32510434  1
  H+  H130  1  0.15681834  0.13587851  0.50934825  1
  H+  H131  1  0.34824330  0.72773746  0.34594237  1
  H+  H132  1  0.10806971  0.97639054  0.82880427  1
  H+  H133  1  0.87933020  0.02141259  0.16949525  1
  H+  H134  1  0.86490003  0.97677887  0.82254456  1
  H+  H135  1  0.89075149  0.88149750  0.49008344  1
  H+  H136  1  0.05333684  0.19903836  0.40003479  1
  H+  H137  1  0.78451935  0.64214477  0.34046394  1
  H+  H138  1  0.85694030  0.38463832  0.82861885  1
  H+  H139  1  0.97782251  0.61752368  0.33145910  1
  H+  H140  1  0.39410660  0.38392221  0.50424619  1
  H+  H141  1  0.61330929  0.72739884  0.16038553  1
  H+  H142  1  0.51782615  0.13968926  0.82440104  1
  H+  H143  1  0.87209536  0.36754139  0.33102243  1
  H+  H144  1  0.01466783  0.13085758  0.82998710  1
  H+  H145  1  0.85392225  0.62839541  0.83540548  1
  H+  H146  1  0.14264435  0.10955354  0.32783265  1
  H+  H147  1  0.78337725  0.14863591  0.14750267  1
  H+  H148  1  0.63977497  0.87237185  0.50120114  1
  H+  H149  1  0.85064667  0.13173218  0.67451336  1
  H+  H150  1  0.89272762  0.53671073  0.16699752  1
  H+  H151  1  0.63156957  0.35891858  0.49850937  1
  H+  H152  1  0.54798745  0.76857893  0.94375243  1
  H+  H153  1  0.63970540  0.27453506  -0.00921898  1
  H+  H154  1  0.61569285  0.13365914  0.31222021  1
  H+  H155  1  0.07754710  0.83356045  0.50403651  1
  H+  H156  1  0.85958086  0.73601772  0.00245472  1
  H+  H157  1  0.33175211  0.65454383  0.77077444  1
  H+  H158  1  0.11520757  0.63236514  0.68073756  1
  H+  H159  1  0.73618127  0.36818627  0.32653749  1
  H+  H160  1  0.54537118  0.85692202  0.49792643  1
  H+  H161  1  0.27432959  0.40141151  0.67773704  1
  H+  H162  1  0.14113522  0.63170991  -0.00134912  1
  H+  H163  1  0.72827145  0.10278618  0.32955393  1
  H+  H164  1  0.89178920  0.86267935  0.33092391  1
  H+  H165  1  0.78354001  0.64882491  0.66877708  1
  H+  H166  1  0.63172688  0.36549616  0.65536810  1
  H+  H167  1  0.77042223  0.64414533  1.01475305  1
  H+  H168  1  0.89041514  0.27617169  0.82280170  1
  H+  H169  1  0.13281619  0.27898584  0.16951536  1
  H+  H170  1  0.09222182  -0.01993022  0.52333412  1
  H+  H171  1  0.65319883  0.29299787  0.17266690  1
  H+  H172  1  0.91388299  0.34699829  0.22798834  1
  H+  H173  1  0.53575880  0.87112758  0.35374307  1
  H+  H174  1  0.33188457  0.41479473  0.06835011  1
  H+  H175  1  0.92321801  0.59505362  0.22852586  1
  H+  H176  1  0.34667028  0.64648357  0.31819967  1
  H+  H177  1  0.28116475  0.18501926  0.47860158  1
  H+  H178  1  0.11440369  0.22794374  0.00556860  1
  H+  H179  1  0.60447181  -0.02988632  0.66963834  1
  H+  H180  1  0.83501414  0.11172513  0.50228470  1
  H+  H181  1  0.36176152  0.21678482  0.77817972  1
  H+  H182  1  0.14722728  0.28131582  0.32519605  1
  H+  H183  1  0.60547889  0.63109389  0.32786327  1
  H+  H184  1  0.37494496  0.99664729  0.19153940  1
  H+  H185  1  0.63695388  0.51812504  0.34128768  1
  H+  H186  1  0.38028328  0.85792892  0.67347002  1
  H+  H187  1  0.13150249  0.02673811  0.67911614  1
  H+  H188  1  1.01857284  0.88054173  0.33799855  1
  H+  H189  1  0.39979418  0.58134771  0.25761898  1
  H+  H190  1  0.62455658  0.72972273  0.81802107  1
  H+  H191  1  0.27821432  0.64156218  0.16376820  1
  H+  H192  1  0.00440487  0.54494197  0.79149533  1
  H+  H193  1  0.38561420  0.13099788  0.17228867  1
  H+  H194  1  0.62829193  0.51365162  0.84519507  1
  H+  H195  1  0.12192833  0.72553930  0.16135748  1
  H+  H196  1  0.36256649  0.63445549  0.67757568  1
  H+  H197  1  0.49492511  0.62805729  0.52665963  1
  H+  H198  1  0.96954884  0.11453485  0.66578920  1
  H+  H199  1  0.38926077  0.11650399  0.99184879  1
  H+  H200  1  0.73271619  0.86753949  0.83475059  1
  H+  H201  1  0.23691210  0.86764654  0.19395191  1
  H+  H202  1  0.62842041  0.35563201  0.83849846  1
  H+  H203  1  0.47645211  0.26107798  0.71829290  1
  H+  H204  1  0.17453826  0.28627538  0.52942821  1
  H+  H205  1  0.11110235  0.88559520  0.67929673  1
  H+  H206  1  0.38582719  0.52217497  0.16949962  1
  H+  H207  1  0.13635939  0.34896675  0.51816206  1
  H+  H208  1  0.13686383  0.02325491  0.99015034  1
  H+  H209  1  0.64876129  0.77534148  0.31084565  1
  H+  H210  1  1.01338139  0.20061514  0.48503933  1
  H+  H211  1  0.10923511  -0.02821811  0.34331829  1
  H+  H212  1  0.31811200  0.87025165  0.50886239  1
  H+  H213  1  0.85406910  0.37837760  0.49644271  1
  H+  H214  1  0.73449117  0.62101261  0.50394234  1
  H+  H215  1  0.97420854  0.10712279  0.31613039  1
  H+  H216  1  0.91103942  0.08102382  0.89624399  1
  H+  H217  1  0.44268655  0.88580001  0.52322547  1
  H+  H218  1  0.64038984  0.61329501  -0.00220711  1
  H+  H219  1  0.09266348  0.37834761  0.33854434  1
  H+  H220  1  0.53748214  0.40106628  0.15287530  1
  H+  H221  1  0.03059573  0.64067894  0.15582046  1
  H+  H222  1  0.31965110  0.06012727  0.64791295  1
  H+  H223  1  0.47814876  0.11371226  0.99066349  1
  H+  H224  1  0.87697707  0.85817269  0.82727415  1
  H+  H225  1  0.26395917  0.90367562  0.82322739  1
  H+  H226  1  0.96467982  0.85484719  0.83021352  1
  H+  H227  1  -0.02195615  0.62655927  0.64274200  1
  H+  H228  1  0.12316765  0.59503813  0.83811070  1
  H+  H229  1  0.36811418  0.22781129  0.00753121  1
  H+  H230  1  0.28097562  0.40698156  0.50930175  1
  H+  H231  1  0.10640433  0.13843733  0.68132311  1
  H+  H232  1  0.63608329  1.02350915  -0.01064266  1
  H+  H233  1  0.82281958  0.16015218  0.76533472  1
  H+  H234  1  0.64624621  0.52652801  0.99757392  1
  H+  H235  1  0.88099280  0.26965684  0.66671248  1
  H+  H236  1  -0.03118347  0.86340743  -0.03057422  1
  H+  H237  1  0.89157541  0.77177667  0.32923343  1
  H+  H238  1  0.12719010  0.47734172  0.01326981  1
  H+  H239  1  0.47052781  0.85884147  0.66607737  1
  H+  H240  1  0.03810301  0.18287814  0.50149421  1
  H+  H241  1  0.61404910  0.97033251  0.15847634  1
  H+  H242  1  0.61816573  0.22499327  0.31116650  1
  H+  H243  1  0.86394607  0.12078413  0.33838885  1
  H+  H244  1  0.60926567  0.22512666  0.82554430  1
  H+  H245  1  0.78658482  0.40839449  0.15378288  1
  H+  H246  1  0.83007781  0.27625358  0.30166962  1
  H+  H247  1  0.36596943  0.40028899  0.66682197  1
  H+  H248  1  0.39999137  0.28484112  0.15271750  1
  H+  H249  1  0.47927865  0.36052510  0.00329189  1
  H+  H250  1  0.16568027  0.59196260  0.24214709  1
  H+  H251  1  0.89086863  0.36836820  0.96979232  1
  H+  H252  1  0.12652607  0.87450825  0.33665482  1
  H+  H253  1  0.62757651  0.10952361  0.66001567  1
  H+  H254  1  0.62125429  0.48623178  0.67442426  1
  H+  H255  1  0.47473615  0.10279436  0.32486258  1
  H+  H256  1  0.66898725  0.59130167  0.38979180  1
  H+  H257  1  0.38814981  0.77373479  0.99160054  1
  H+  H258  1  -0.01869531  0.37786718  0.17339030  1
  H+  H259  1  0.87974881  0.10924509  0.83640663  1
  H+  H260  1  0.03570992  0.87621359  0.44359514  1
  H+  H261  1  0.88452866  0.74648448  0.15786209  1
  H+  H262  1  0.87075610  0.51834751  0.50095874  1
  H+  H263  1  0.63222865  0.27714703  0.65707888  1
  H+  H264  1  0.10861352  0.47543203  0.70468692  1
  H+  H265  1  0.14310705  0.04678783  0.17036717  1
  H+  H266  1  0.64957132  0.38062127  0.16888975  1
  H+  H267  1  0.62673307  0.00874815  0.50861917  1
  H+  H268  1  0.37466871  0.58278488  0.84347997  1
  H+  H269  1  0.58093147  0.11839072  0.48789813  1
  H+  H270  1  0.52458674  0.63675560  0.16174490  1
  H+  H271  1  0.37496519  0.50286004  0.66972576  1
  H+  H272  1  0.20570454  0.61739325  0.33479836  1
  H+  H273  1  0.34384448  0.50060194  0.34301598  1
  H+  H274  1  0.40829220  0.17782626  0.68376960  1
  H+  H275  1  0.84827081  0.72098071  0.82607001  1
  H+  H276  1  0.11632082  0.39372603  0.16779786  1
  H+  H277  1  0.62748250  0.49091985  0.15675658  1
  H+  H278  1  0.89744312  0.65831385  0.15219272  1
  H+  H279  1  0.39836097  0.86534161  0.18536587  1
  H+  H280  1  0.14293508  0.85530038  0.18446414  1
  H+  H281  1  0.11970294  0.48444407  0.17127022  1
  H+  H282  1  0.89598204  0.87442985  0.64691359  1
  H+  H283  1  0.13597285  0.51554227  0.83504237  1
  H+  H284  1  -0.02389709  0.11744871  -0.01062161  1
  H+  H285  1  0.70619535  0.10204171  0.50549798  1
  H+  H286  1  0.45282227  0.10487538  0.50329119  1
  H+  H287  1  0.10158345  0.64400272  0.36757933  1
  H+  H288  1  0.16589546  0.33552979  0.23063185  1
  H+  H289  1  0.07514793  0.16353806  0.77132438  1
  H+  H290  1  0.59271167  0.16467523  0.05933113  1
  H+  H291  1  0.02504456  0.81866624  0.13006658  1
  H+  H292  1  0.42852345  0.82561171  0.89288536  1
  H+  H293  1  0.16688560  0.08667344  0.93382042  1
  H+  H294  1  0.05967750  0.63436324  0.76042232  1
  H+  H295  1  0.04235865  0.86185193  0.03332065  1
  H+  H296  1  0.40485361  0.56172958  0.90495192  1
  H+  H297  1  0.85971146  0.69211497  0.08315058  1
  H+  H298  1  0.83495274  0.91684195  0.76202244  1
  H+  H299  1  0.90530388  0.83007181  0.24030982  1
  H+  H300  1  0.57004569  0.67544802  0.37032792  1
  H+  H301  1  0.15866438  0.18761167  0.45107906  1
  H+  H302  1  0.33573426  0.16559139  0.08999799  1
  H+  H303  1  0.16939923  0.58212835  0.93106785  1
  H+  H304  1  0.58321579  0.91635027  0.06439857  1
  H+  H305  1  0.36337572  0.64470932  0.51476601  1
  H+  H306  1  0.57596206  0.41662757  0.76777259  1
  H+  H307  1  0.07806710  0.91819415  0.76840309  1
  H+  H308  1  0.91688464  0.59695978  0.54908918  1
  H+  H309  1  0.65972308  0.07901370  0.92745416  1
  H+  H310  1  0.11762360  0.52770682  0.34234663  1
  H+  H311  1  0.15326600  0.82130877  0.60786560  1
  H+  H312  1  0.33268786  0.66761378  0.06323789  1
  H+  H313  1  0.65428796  0.32489562  0.55824602  1
  H+  H314  1  0.59823641  0.42550504  0.06387424  1
  H+  H315  1  0.83697716  0.18167550  0.04941657  1
  H+  H316  1  0.67691959  0.07149087  0.22991962  1
  H+  H317  1  0.93657498  0.84656167  0.59019550  1
  H+  H318  1  0.41948124  0.35221396  0.59497196  1
  H+  H319  1  0.02433778  0.88960097  0.67320371  1
  H+  H320  1  0.40431551  0.30277779  0.65957269  1
  H+  H321  1  0.67542931  0.84020140  0.22482297  1
  H+  H322  1  0.16590074  0.33253108  0.93639823  1
  H+  H323  1  0.40000276  0.06793806  0.27869033  1
  H+  H324  1  0.66240641  0.33075869  0.93069425  1
  H+  H325  1  0.14814628  0.07555348  0.61844052  1
  H+  H326  1  0.58544383  0.20801555  0.48614018  1
  H+  H327  1  0.13253884  0.35768963  0.82960717  1
  H+  H328  1  0.16526365  0.83740584  0.27580521  1
  H+  H329  1  0.08101254  0.70985845  0.46195471  1
  H+  H330  1  0.29630971  0.89500318  0.44401050  1
  H+  H331  1  0.83443709  0.42235769  0.40444157  1
  H+  H332  1  0.91061853  0.07238425  0.25767853  1
  H+  H333  1  0.22119658  0.61913538  0.52956697  1
  H+  H334  1  0.33572161  0.17724999  0.39053729  1
  H+  H335  1  0.10410294  0.66904894  0.06386185  1
  H+  H336  1  0.16840260  0.34603685  0.61850722  1
  H+  H337  1  0.39451945  0.83634141  0.58338908  1
  H+  H338  1  0.34862562  0.14989476  0.48868018  1
  H+  H339  1  0.06624130  0.37905241  0.43965304  1
  H+  H340  1  0.32306825  0.91719596  0.03556050  1
  H+  H341  1  0.34460731  0.41467514  0.35210093  1
  H+  H342  1  0.41691794  0.09808083  0.89670055  1
  H+  H343  1  0.63080273  1.01978586  0.83368442  1
  H+  H344  1  0.84756933  0.90725007  0.43565408  1
  H+  H345  1  0.45030098  0.16793813  0.22560887  1
  H+  H346  1  0.68254713  0.59543813  0.22644858  1
  H+  H347  1  0.58692279  0.66322398  0.73128220  1
  H+  H348  1  0.89900319  0.82490749  0.91787070  1
  H+  H349  1  0.17463525  0.09596733  0.23229757  1
  H+  H350  1  0.84103633  0.42470087  0.05464756  1
  H+  H351  1  0.58431250  0.66539784  0.46329351  1
  H+  H352  1  0.67334318  0.58444781  0.60042846  1
  H+  H353  1  0.15409038  0.81540100  0.91996112  1
  H+  H354  1  0.90332030  0.07434538  0.60927355  1
  H+  H355  1  0.32518062  0.92105476  0.73704015  1
  H+  H356  1  0.68380401  0.34934896  0.26352008  1
  H+  H357  1  0.84531441  0.67354544  0.39958031  1
  H+  H358  1  0.22311339  0.85910125  0.66228034  1
  H+  H359  1  0.91059896  0.32622843  0.57197927  1
  H+  H360  1  0.42294048  0.58884867  0.60716652  1
  H+  H361  1  0.58538589  0.66426881  0.06853903  1
  H+  H362  1  0.72557816  0.86609138  0.16137071  1
  H+  H363  1  0.11216583  0.87243885  0.98629520  1
  H+  H364  1  0.87517452  0.40858256  0.15462016  1
  H+  H365  1  0.32824752  0.44264844  0.44566834  1
  H+  H366  1  0.26576888  0.36091696  0.83886319  1
  H+  H367  1  0.94184597  0.09232055  0.51692465  1
  H+  H368  1  0.60965679  0.72117151  0.67124167  1
  H+  H369  1  0.44071849  0.32521505  0.21487151  1
  H+  H370  1  0.22591685  0.87160388  0.33952965  1
  H+  H371  1  0.57815641  0.16610873  0.73495775  1
  H+  H372  1  0.66310517  0.57608862  0.90448894  1
  H+  H373  1  0.57981628  0.91221542  0.72956847  1
  H+  H374  1  0.35346070  0.94105451  0.13406450  1
  H+  H375  1  0.65178937  0.07712448  0.59925221  1
  H+  H376  1  0.90437963  0.58886515  0.90348768  1
  H+  H377  1  0.11119071  0.13753246  0.00767771  1
  H+  H378  1  0.15675217  0.57216407  0.61967354  1
  H+  H379  1  0.86994396  0.97184167  0.33801915  1
  H+  H380  1  0.27698927  0.13690177  0.00253178  1
  H+  H381  1  0.42780273  0.84767638  0.27300881  1
  H+  H382  1  0.18737520  0.84156433  0.50346296  1
  H+  H383  1  0.83132784  0.92144553  0.09085814  1
  O2-  O384  1  0.07552324  0.17666922  0.14400503  1
  O2-  O385  1  0.18781641  0.19353450  0.49005006  1
  O2-  O386  1  0.07650648  0.16213337  0.81684635  1
  O2-  O387  1  0.08625008  0.42510520  0.15467296  1
  O2-  O388  1  0.06337370  0.35626752  0.48091218  1
  O2-  O389  1  0.08176366  0.41568369  0.78636209  1
  O2-  O390  1  0.09152082  0.66901278  0.14105455  1
  O2-  O391  1  0.09021672  0.71684707  0.50734940  1
  O2-  O392  1  0.04073689  0.60525698  0.80269107  1
  O2-  O393  1  0.06874378  0.87489514  0.14609748  1
  O2-  O394  1  0.03915612  0.87328336  0.48858905  1
  O2-  O395  1  0.07542552  0.91588201  0.81445633  1
  O2-  O396  1  0.33955950  0.17233889  0.13625291  1
  O2-  O397  1  0.33797853  0.19217812  0.46704592  1
  O2-  O398  1  0.34558727  0.20859776  0.82199688  1
  O2-  O399  1  0.33626696  0.41861241  0.14814400  1
  O2-  O400  1  0.33885707  0.43769979  0.48932072  1
  O2-  O401  1  0.32744640  0.38300638  0.83068218  1
  O2-  O402  1  0.33559102  0.66924372  0.14365240  1
  O2-  O403  1  0.32487217  0.66544726  0.50013152  1
  O2-  O404  1  0.33354793  0.65303846  0.81615192  1
  O2-  O405  1  0.34682777  0.93594416  0.17811010  1
  O2-  O406  1  0.28559808  0.89538941  0.48829509  1
  O2-  O407  1  0.32207330  0.93642181  0.80591958  1
  O2-  O408  1  0.59684127  0.17215965  0.17652475  1
  O2-  O409  1  0.54862385  0.14669646  0.47470365  1
  O2-  O410  1  0.57785425  0.16455979  0.80888049  1
  O2-  O411  1  0.59967068  0.43015060  0.14154481  1
  O2-  O412  1  0.58933428  0.42545308  0.47179086  1
  O2-  O413  1  0.57318824  0.41051015  0.81306358  1
  O2-  O414  1  0.58514003  0.66601385  0.14689312  1
  O2-  O415  1  0.59152588  0.66876665  0.50699386  1
  O2-  O416  1  0.59562264  0.67039234  0.80160497  1
  O2-  O417  1  0.57860955  0.90959683  0.14372313  1
  O2-  O418  1  0.60333338  0.89878238  0.48496875  1
  O2-  O419  1  0.58613928  0.91796615  0.80452338  1
  O2-  O420  1  0.83432049  0.18949233  0.12436446  1
  O2-  O421  1  0.81335933  0.14839514  0.48500640  1
  O2-  O422  1  0.82848961  0.16343256  0.81071169  1
  O2-  O423  1  0.84686032  0.44057241  0.13835643  1
  O2-  O424  1  0.82393547  0.40662668  0.47799795  1
  O2-  O425  1  0.81602440  0.40611319  0.83174750  1
  O2-  O426  1  0.89322775  0.70662863  0.12952409  1
  O2-  O427  1  0.83985670  0.67186483  0.46794473  1
  O2-  O428  1  0.81724277  0.65637188  0.81968327  1
  O2-  O429  1  0.82570413  0.92025665  0.13736911  1
  O2-  O430  1  0.85163786  0.90521172  0.48066300  1
  O2-  O431  1  0.83499018  0.91572494  0.80775447  1
  O2-  O432  1  0.17608396  0.10425094  0.18736256  1
  O2-  O433  1  0.13812552  0.03689997  0.53747369  1
  O2-  O434  1  0.16807055  0.09035104  0.85580265  1
  O2-  O435  1  0.16907747  0.33899565  0.18566739  1
  O2-  O436  1  0.18185687  0.34242870  0.54118884  1
  O2-  O437  1  0.15507540  0.32719939  0.85377494  1
  O2-  O438  1  0.17421250  0.59121306  0.19763393  1
  O2-  O439  1  0.16238805  0.59494934  0.54733869  1
  O2-  O440  1  0.15941590  0.57231379  0.85505717  1
  O2-  O441  1  0.17522870  0.83112602  0.20537729  1
  O2-  O442  1  0.12491612  0.80873255  0.52085649  1
  O2-  O443  1  0.15090051  0.82835242  0.84676830  1
  O2-  O444  1  0.42092549  0.11530163  0.20069736  1
  O2-  O445  1  0.39179795  0.08031817  0.52012880  1
  O2-  O446  1  0.41420926  0.10233649  0.85157897  1
  O2-  O447  1  0.43050196  0.34157093  0.17351447  1
  O2-  O448  1  0.42516722  0.35379644  0.51825074  1
  O2-  O449  1  0.40000697  0.29582951  0.84723432  1
  O2-  O450  1  0.41589750  0.58324752  0.18456090  1
  O2-  O451  1  0.43081283  0.59983172  0.53858627  1
  O2-  O452  1  0.39765464  0.54792082  0.86117329  1
  O2-  O453  1  0.42580944  0.83220718  0.19760182  1
  O2-  O454  1  0.38688690  0.84103334  0.53763491  1
  O2-  O455  1  0.43153476  0.82271611  0.84828568  1
  O2-  O456  1  0.67422329  0.07209182  0.18485680  1
  O2-  O457  1  0.64535503  0.06881550  0.51985455  1
  O2-  O458  1  0.65984622  0.07948241  0.85108297  1
  O2-  O459  1  0.68358414  0.35403669  0.18497144  1
  O2-  O460  1  0.65451562  0.32179831  0.51278884  1
  O2-  O461  1  0.65447874  0.32245203  0.85497726  1
  O2-  O462  1  0.67947770  0.59452935  0.18230683  1
  O2-  O463  1  0.67477807  0.58557991  0.51938127  1
  O2-  O464  1  0.66318853  0.57473666  0.85907171  1
  O2-  O465  1  0.66636200  0.83385833  0.18005015  1
  O2-  O466  1  0.68184742  0.82523171  0.52785667  1
  O2-  O467  1  0.67000420  0.83646882  0.84467220  1
  O2-  O468  1  0.90947142  0.07691999  0.19205476  1
  O2-  O469  1  0.88335241  0.05303872  0.53099955  1
  O2-  O470  1  0.91029721  0.07859632  0.85052372  1
  O2-  O471  1  0.91858214  0.35163509  0.18335826  1
  O2-  O472  1  0.90670496  0.32321599  0.52656651  1
  O2-  O473  1  0.92641846  0.33848662  0.83269960  1
  O2-  O474  1  0.92511328  0.59832917  0.18298185  1
  O2-  O475  1  0.90203182  0.58146112  0.50485383  1
  O2-  O476  1  0.89774561  0.58675084  0.85691913  1
  O2-  O477  1  0.90385303  0.83275496  0.19426024  1
  O2-  O478  1  0.94854969  0.83321237  0.51067127  1
  O2-  O479  1  0.90284409  0.82259463  0.84235353  1
  O2-  O480  1  0.16776132  0.07625852  0.31188729  1
  O2-  O481  1  0.15743380  0.08603253  0.66229597  1
  O2-  O482  1  0.16765869  0.08452076  0.97945388  1
  O2-  O483  1  0.16117535  0.33840296  0.31159399  1
  O2-  O484  1  0.17166678  0.34431404  0.66393197  1
  O2-  O485  1  0.17134843  0.32982772  0.98113059  1
  O2-  O486  1  0.14210069  0.58778471  0.32835386  1
  O2-  O487  1  0.15824218  0.56891588  0.66578894  1
  O2-  O488  1  0.17518365  0.59032968  0.97663047  1
  O2-  O489  1  0.16344083  0.84355682  0.32226120  1
  O2-  O490  1  0.16037943  0.82840386  0.65217242  1
  O2-  O491  1  0.16162430  0.81918649  0.96563040  1
  O2-  O492  1  0.41043175  0.06796080  0.32281803  1
  O2-  O493  1  0.38110013  0.08236914  0.64240300  1
  O2-  O494  1  0.41837044  0.08556041  0.97424868  1
  O2-  O495  1  0.46596871  0.28028068  0.27483430  1
  O2-  O496  1  0.41941613  0.35849605  0.64039029  1
  O2-  O497  1  0.41694580  0.32419031  0.99563074  1
  O2-  O498  1  0.39931305  0.58805423  0.30342222  1
  O2-  O499  1  0.41874253  0.58338421  0.65412262  1
  O2-  O500  1  0.41320887  0.58105314  0.98731765  1
  O2-  O501  1  0.43202898  0.86656737  0.31690667  1
  O2-  O502  1  0.40799095  0.82761645  0.65388648  1
  O2-  O503  1  0.42208684  0.83346553  0.97539702  1
  O2-  O504  1  0.66883040  0.07267614  0.31289987  1
  O2-  O505  1  0.65570621  0.07754389  0.64457217  1
  O2-  O506  1  0.66285929  0.08326623  0.97311962  1
  O2-  O507  1  0.67728843  0.33718743  0.30824648  1
  O2-  O508  1  0.65790271  0.33364121  0.63671091  1
  O2-  O509  1  0.66855373  0.33479497  0.97631422  1
  O2-  O510  1  0.66438771  0.58334338  0.34566451  1
  O2-  O511  1  0.67150253  0.58462317  0.64575073  1
  O2-  O512  1  0.67694359  0.58871253  0.98380061  1
  O2-  O513  1  0.68412291  0.83834765  0.30436626  1
  O2-  O514  1  0.66804136  0.83010525  0.64962682  1
  O2-  O515  1  0.60540533  0.79933189  0.96144558  1
  O2-  O516  1  0.91326912  0.07259625  0.30606193  1
  O2-  O517  1  0.90736300  0.08118427  0.65413157  1
  O2-  O518  1  0.91655804  0.08649358  0.97283453  1
  O2-  O519  1  0.88669069  0.32433663  0.31174301  1
  O2-  O520  1  0.91690053  0.32919311  0.65066585  1
  O2-  O521  1  0.91730785  0.33744610  0.95087560  1
  O2-  O522  1  0.92216834  0.58825258  0.30940149  1
  O2-  O523  1  0.94474464  0.64104783  0.61504263  1
  O2-  O524  1  0.91076712  0.58864574  0.97340941  1
  O2-  O525  1  0.92289617  0.83346312  0.31358082  1
  O2-  O526  1  0.93246634  0.84945411  0.63532948  1
  O2-  O527  1  0.90619650  0.82898464  0.96350085  1
  O2-  O528  1  0.08070044  0.16756863  0.02199097  1
  O2-  O529  1  0.07383604  0.16094824  0.38534351  1
  O2-  O530  1  0.07343159  0.16788430  0.69376985  1
  O2-  O531  1  0.11015971  0.42124090  0.03108270  1
  O2-  O532  1  0.06209791  0.40491119  0.35839827  1
  O2-  O533  1  0.07811920  0.41306530  0.71895099  1
  O2-  O534  1  0.10800616  0.66734349  0.01832435  1
  O2-  O535  1  0.07350747  0.67721575  0.38174537  1
  O2-  O536  1  0.08333077  0.66152299  0.69504960  1
  O2-  O537  1  0.07981242  0.90106289  0.00217648  1
  O2-  O538  1  0.07926255  0.91015540  0.35658377  1
  O2-  O539  1  0.08171794  0.91644482  0.69447735  1
  O2-  O540  1  0.33673405  0.16317302  0.01850710  1
  O2-  O541  1  0.33068875  0.16094117  0.34645647  1
  O2-  O542  1  0.41590988  0.22876713  0.70681739  1
  O2-  O543  1  0.33581238  0.41627130  0.02316609  1
  O2-  O544  1  0.31241560  0.44293446  0.36457137  1
  O2-  O545  1  0.33887055  0.43342606  0.68460005  1
  O2-  O546  1  0.33383111  0.66706352  0.01785361  1
  O2-  O547  1  0.31334422  0.67668934  0.32161112  1
  O2-  O548  1  0.32867666  0.66038256  0.69321508  1
  O2-  O549  1  0.33038423  0.91963965  -0.00829562  1
  O2-  O550  1  0.31513513  0.90687235  0.36377236  1
  O2-  O551  1  0.32683714  0.91149168  0.69092968  1
  O2-  O552  1  0.58491658  0.16280667  0.01543543  1
  O2-  O553  1  0.58274615  0.16250747  0.30061430  1
  O2-  O554  1  0.57858620  0.16663422  0.68871405  1
  O2-  O555  1  0.59412422  0.42466244  0.01850961  1
  O2-  O556  1  0.59223909  0.41524816  0.34893555  1
  O2-  O557  1  0.58437610  0.42478093  0.68873335  1
  O2-  O558  1  0.58281539  0.65797144  0.02322493  1
  O2-  O559  1  0.57655080  0.66663711  0.32743089  1
  O2-  O560  1  0.57966826  0.66004709  0.68492765  1
  O2-  O561  1  0.58370174  0.91900934  0.01900479  1
  O2-  O562  1  0.59733262  0.90528786  0.36341522  1
  O2-  O563  1  0.57567045  0.90915110  0.68363673  1
  O2-  O564  1  0.83761904  0.17434249  0.00407019  1
  O2-  O565  1  0.83479691  0.15002985  0.35837404  1
  O2-  O566  1  0.82062440  0.16275761  0.68834519  1
  O2-  O567  1  0.83876540  0.42383059  0.00961983  1
  O2-  O568  1  0.83653632  0.42458724  0.35827735  1
  O2-  O569  1  0.83939801  0.43499043  0.67872557  1
  O2-  O570  1  0.83384692  0.68121943  0.02721216  1
  O2-  O571  1  0.84578551  0.67391649  0.35201563  1
  O2-  O572  1  0.84450579  0.68036302  0.68131219  1
  O2-  O573  1  0.83435579  0.92411232  0.01966081  1
  O2-  O574  1  0.84228186  0.91248419  0.35536869  1
  O2-  O575  1  0.83522995  0.91318920  0.68523020  1
