# generated using pymatgen
data_H2O
_symmetry_space_group_name_H-M   'P 1'
_cell_length_a   18.00311608
_cell_length_b   18.00501107
_cell_length_c   22.02813512
_cell_angle_alpha   90.02333961
_cell_angle_beta   89.98118480
_cell_angle_gamma   119.98458966
_symmetry_Int_Tables_number   1
_chemical_formula_structural   H2O
_chemical_formula_sum   'H384 O192'
_cell_volume   6184.67404423
_cell_formula_units_Z   192
loop_
 _symmetry_equiv_pos_site_id
 _symmetry_equiv_pos_as_xyz
  1  'x, y, z'
loop_
 _atom_type_symbol
 _atom_type_oxidation_number
  H+  1.0
  O2-  -2.0
loop_
 _atom_site_type_symbol
 _atom_site_label
 _atom_site_symmetry_multiplicity
 _atom_site_fract_x
 _atom_site_fract_y
 _atom_site_fract_z
 _atom_site_occupancy
  H+  H0  1  0.47205540  0.35112659  0.33202608  1
  H+  H1  1  0.46455023  0.85622569  0.83452547  1
  H+  H2  1  0.98499004  0.60492356  0.99054960  1
  H+  H3  1  0.13183012  0.28586365  0.66574939  1
  H+  H4  1  -0.00045014  0.89619458  0.15257386  1
  H+  H5  1  0.42430272  0.85642622  0.98924593  1
  H+  H6  1  0.42650111  0.07708508  0.26323686  1
  H+  H7  1  0.52971656  0.93808895  0.02834640  1
  H+  H8  1  0.86474980  0.23530114  0.47274692  1
  H+  H9  1  0.56207978  0.17487604  0.15878296  1
  H+  H10  1  0.12049890  0.23989202  0.83731355  1
  H+  H11  1  0.11987757  0.26202410  0.51281531  1
  H+  H12  1  0.39111014  0.76994952  0.32393177  1
  H+  H13  1  0.11423362  0.38205878  0.48978709  1
  H+  H14  1  0.10872055  0.62712822  0.01288294  1
  H+  H15  1  0.61238628  0.63679447  0.32914629  1
  H+  H16  1  0.60439123  0.96453842  0.82683048  1
  H+  H17  1  0.14951527  0.53055120  0.84935176  1
  H+  H18  1  1.02826658  0.38636317  0.33276230  1
  H+  H19  1  0.40099155  0.56450821  0.90251739  1
  H+  H20  1  0.52219181  0.88372609  0.48660656  1
  H+  H21  1  0.84981760  0.72435493  0.50706016  1
  H+  H22  1  0.87032708  0.02321953  0.50494855  1
  H+  H23  1  0.61690895  0.08291765  0.17632576  1
  H+  H24  1  0.89123240  0.52564413  0.97945136  1
  H+  H25  1  0.48077598  0.62456318  0.48507399  1
  H+  H26  1  0.11610254  0.38702835  0.00127176  1
  H+  H27  1  0.37935121  0.60570031  0.84358158  1
  H+  H28  1  0.26897669  0.38732001  0.67417715  1
  H+  H29  1  0.61946783  0.58247016  0.83723091  1
  H+  H30  1  0.63492382  0.86126062  0.17340469  1
  H+  H31  1  0.85243763  0.72359329  0.83153568  1
  H+  H32  1  0.34479569  0.70915534  1.01044902  1
  H+  H33  1  0.98796065  0.37268339  0.48754650  1
  H+  H34  1  0.87935111  0.11141483  0.31797982  1
  H+  H35  1  0.22927174  0.15888345  0.47744958  1
  H+  H36  1  0.24961741  0.87138619  0.33405143  1
  H+  H37  1  0.87614233  0.36592480  0.32047843  1
  H+  H38  1  0.23823206  0.87514585  0.17733030  1
  H+  H39  1  0.50846266  0.88184370  0.66948404  1
  H+  H40  1  0.76411261  0.63768319  0.16130099  1
  H+  H41  1  0.35552044  0.63662100  0.67570331  1
  H+  H42  1  0.38665887  0.27596571  0.84801455  1
  H+  H43  1  0.15430487  0.61151131  0.32477403  1
  H+  H44  1  0.29075565  0.41303603  0.14524870  1
  H+  H45  1  0.64102629  0.35060768  0.51023578  1
  H+  H46  1  0.60429634  0.64666285  1.00105766  1
  H+  H47  1  0.11719788  0.48954715  0.67569530  1
  H+  H48  1  0.88903606  0.61586833  0.67436461  1
  H+  H49  1  0.58963694  0.56806533  0.54563390  1
  H+  H50  1  0.91037204  0.39863292  0.16720576  1
  H+  H51  1  0.98034327  0.62873098  0.17795719  1
  H+  H52  1  0.88413378  0.48955412  0.33876216  1
  H+  H53  1  0.35164339  0.88436442  0.47963989  1
  H+  H54  1  0.59939751  0.48176469  0.15690753  1
  H+  H55  1  0.88493044  0.86025502  0.84397775  1
  H+  H56  1  0.75980227  0.63574596  0.50851222  1
  H+  H57  1  0.45510181  0.05663119  0.15828635  1
  H+  H58  1  0.77459697  0.68014983  0.68522719  1
  H+  H59  1  0.60295036  0.38002642  0.00544377  1
  H+  H60  1  0.52892555  0.13251360  1.00554819  1
  H+  H61  1  0.23760476  0.36321077  0.84264516  1
  H+  H62  1  0.78712944  0.41080462  0.16539107  1
  H+  H63  1  0.15860619  0.33642359  0.60176413  1
  H+  H64  1  0.59963117  0.88642634  0.66647817  1
  H+  H65  1  1.04102047  0.40144105  0.15420078  1
  H+  H66  1  0.34762080  0.87911825  0.84555705  1
  H+  H67  1  0.98312886  0.37311181  0.98356087  1
  H+  H68  1  0.36667926  0.51178016  0.66643517  1
  H+  H69  1  0.12797133  0.85698951  0.50881426  1
  H+  H70  1  0.87250111  0.26126002  0.15528960  1
  H+  H71  1  0.63626040  0.26906145  0.00038570  1
  H+  H72  1  0.12762413  0.82077752  0.59848377  1
  H+  H73  1  0.08381036  0.41459566  0.06021922  1
  H+  H74  1  0.98588053  0.11867577  1.00245118  1
  H+  H75  1  0.62331177  0.62366595  0.16148490  1
  H+  H76  1  0.60107906  0.95822252  0.17407286  1
  H+  H77  1  0.78740150  0.87134635  0.67432045  1
  H+  H78  1  0.90817830  0.82669799  0.90404875  1
  H+  H79  1  0.13797613  0.61404337  0.17498322  1
  H+  H80  1  0.37863185  0.77296286  0.66577205  1
  H+  H81  1  0.62510245  0.14205926  0.34237011  1
  H+  H82  1  0.87768780  0.77228022  0.17226424  1
  H+  H83  1  0.23809437  0.14528748  0.67457223  1
  H+  H84  1  0.51752346  0.64777730  0.15796609  1
  H+  H85  1  0.43504944  1.01442754  -0.00883116  1
  H+  H86  1  0.91542796  0.77467480  0.66595703  1
  H+  H87  1  0.62859326  0.22079215  0.50105776  1
  H+  H88  1  0.05050692  0.14283047  0.15337941  1
  H+  H89  1  0.17437517  0.07627923  0.26760274  1
  H+  H90  1  0.63243969  0.03611788  0.67599927  1
  H+  H91  1  -0.03055531  0.60837393  0.49693170  1
  H+  H92  1  0.64613881  0.77881475  0.32156264  1
  H+  H93  1  0.11404587  0.97497850  -0.00353192  1
  H+  H94  1  0.12558566  0.76714441  0.51034397  1
  H+  H95  1  0.13816722  0.23475755  0.15355158  1
  H+  H96  1  0.03293919  0.75513075  0.94613361  1
  H+  H97  1  1.01179653  0.81925464  0.64148298  1
  H+  H98  1  0.87512038  0.23456488  0.70639335  1
  H+  H99  1  0.61223210  0.23727644  0.67533444  1
  H+  H100  1  0.22998480  0.61491231  0.49893133  1
  H+  H101  1  0.65736275  0.67825638  0.47535858  1
  H+  H102  1  0.31186647  0.57468874  0.52020056  1
  H+  H103  1  0.08049065  0.92128339  0.43871330  1
  H+  H104  1  0.13496827  0.02458632  0.17173630  1
  H+  H105  1  0.23631464  0.61779988  0.85097135  1
  H+  H106  1  0.72177130  0.12056916  0.68461948  1
  H+  H107  1  0.87666877  0.15101392  1.00865324  1
  H+  H108  1  0.85124934  0.61927041  0.00803248  1
  H+  H109  1  0.78149843  0.90775955  0.83794044  1
  H+  H110  1  0.75614620  0.39806630  0.01113576  1
  H+  H111  1  0.60937426  0.14790017  0.68677236  1
  H+  H112  1  0.11810916  0.97727637  0.34103629  1
  H+  H113  1  0.64560654  0.01921115  0.52084250  1
  H+  H114  1  0.67571326  0.73402137  0.65526601  1
  H+  H115  1  0.61907127  0.88977288  0.33472209  1
  H+  H116  1  0.98457754  0.37505860  0.71127162  1
  H+  H117  1  0.09457503  0.83736244  0.98196896  1
  H+  H118  1  0.74129952  0.08723149  0.85701239  1
  H+  H119  1  0.13600303  0.61957529  0.65900097  1
  H+  H120  1  0.06982058  0.66001327  0.32279190  1
  H+  H121  1  0.94912739  0.64162825  0.32748687  1
  H+  H122  1  0.11941386  0.89030520  0.35198413  1
  H+  H123  1  0.09323892  0.70870739  0.00913285  1
  H+  H124  1  0.39828636  0.36232669  0.51348294  1
  H+  H125  1  0.47370585  0.86303929  0.17101146  1
  H+  H126  1  0.65792846  0.79502138  0.49464007  1
  H+  H127  1  0.49260838  0.10837591  0.51276836  1
  H+  H128  1  0.77813178  0.38667588  0.67856489  1
  H+  H129  1  0.28010532  0.63538194  0.33555649  1
  H+  H130  1  0.24880432  0.89455284  0.99805926  1
  H+  H131  1  0.06766323  0.67379387  0.82520343  1
  H+  H132  1  0.70021000  0.95507146  0.88151517  1
  H+  H133  1  0.90353205  1.02483901  0.85017369  1
  H+  H134  1  0.90728225  1.03013153  0.16452125  1
  H+  H135  1  0.62977675  0.35696015  0.32609528  1
  H+  H136  1  0.23117772  0.62099589  0.17366475  1
  H+  H137  1  0.32831167  0.45579610  0.50532959  1
  H+  H138  1  0.77462761  0.89329920  0.16178576  1
  H+  H139  1  0.14870514  0.74326565  0.35265553  1
  H+  H140  1  0.35469326  0.09926300  0.16005275  1
  H+  H141  1  0.85499812  0.63927361  0.16600831  1
  H+  H142  1  0.87406954  0.15166833  0.67869755  1
  H+  H143  1  0.92292220  0.33811926  0.54281992  1
  H+  H144  1  0.79689066  0.49420548  0.03434854  1
  H+  H145  1  0.36464946  0.87966839  0.30496077  1
  H+  H146  1  0.25308609  0.62634417  1.01888140  1
  H+  H147  1  0.89686673  0.10930343  0.85005565  1
  H+  H148  1  0.97773185  0.87228723  0.32755927  1
  H+  H149  1  0.14360520  0.52487660  0.50108885  1
  H+  H150  1  0.66025210  0.56707886  0.67017321  1
  H+  H151  1  0.50123963  0.49983436  0.61329279  1
  H+  H152  1  0.10414226  0.72090725  0.67108238  1
  H+  H153  1  0.57763726  0.59615331  0.63685476  1
  H+  H154  1  0.02567900  0.15129264  0.68864780  1
  H+  H155  1  0.64981669  1.03990034  0.01020131  1
  H+  H156  1  0.51385363  0.37653023  0.84334578  1
  H+  H157  1  0.77587856  0.89425858  0.50177834  1
  H+  H158  1  0.89448466  0.01605552  0.66116284  1
  H+  H159  1  0.54342156  0.33081377  0.68913731  1
  H+  H160  1  0.61811973  0.45948220  0.50048291  1
  H+  H161  1  0.85911067  0.98052770  0.01144665  1
  H+  H162  1  0.39998295  0.14785916  0.48939019  1
  H+  H163  1  0.86495291  0.39281871  0.48371993  1
  H+  H164  1  0.40218429  0.40501680  0.98356403  1
  H+  H165  1  0.58721063  0.55000944  0.47468948  1
  H+  H166  1  0.58677453  0.43118076  0.69001787  1
  H+  H167  1  0.21355184  0.34748179  0.51131564  1
  H+  H168  1  0.71496245  0.60050605  0.34249792  1
  H+  H169  1  0.50271345  0.51741864  0.77920781  1
  H+  H170  1  0.86306060  0.22247460  0.32729744  1
  H+  H171  1  0.15683587  0.12060305  0.17361910  1
  H+  H172  1  0.39266267  0.54310653  0.16791107  1
  H+  H173  1  0.08190216  0.66623609  0.10763446  1
  H+  H174  1  0.28878629  0.89362023  0.00674518  1
  H+  H175  1  0.39486911  0.25107935  0.17993314  1
  H+  H176  1  0.56900591  0.16963558  0.77233644  1
  H+  H177  1  0.22877107  0.09752096  0.99309495  1
  H+  H178  1  0.34332641  0.18201408  0.74768185  1
  H+  H179  1  0.10973310  0.81546845  0.82897728  1
  H+  H180  1  0.74005516  0.12841483  0.00132661  1
  H+  H181  1  0.67222105  0.39863246  0.64676654  1
  H+  H182  1  0.36524370  0.14057471  0.83593069  1
  H+  H183  1  0.11158483  0.63192667  0.49347006  1
  H+  H184  1  0.01715005  0.88054073  0.49483178  1
  H+  H185  1  0.16551293  0.58462501  0.93819106  1
  H+  H186  1  0.62332807  0.14205784  0.01081075  1
  H+  H187  1  0.34657711  0.34598278  0.34518135  1
  H+  H188  1  0.14926159  0.86367785  0.66427437  1
  H+  H189  1  0.33670660  0.88583005  0.66899015  1
  H+  H190  1  0.64080090  0.02463376  0.32951006  1
  H+  H191  1  0.10584519  0.17561328  0.06409724  1
  H+  H192  1  0.87478153  0.21115105  0.83592278  1
  H+  H193  1  0.14975413  0.36790644  0.15914938  1
  H+  H194  1  0.35882825  0.10177647  1.00903055  1
  H+  H195  1  0.73245773  0.11204427  0.32654279  1
  H+  H196  1  0.62797680  0.35608369  0.85049370  1
  H+  H197  1  0.15063472  0.13092214  0.84160141  1
  H+  H198  1  0.85886962  0.47932974  0.48606079  1
  H+  H199  1  0.36375036  0.72295884  0.82712382  1
  H+  H200  1  0.36735602  0.96934529  0.30903641  1
  H+  H201  1  0.01808335  0.86239281  0.83458125  1
  H+  H202  1  0.60297669  0.90402082  0.01723209  1
  H+  H203  1  0.00472380  0.14091784  0.49850119  1
  H+  H204  1  0.92605571  0.33563167  0.80614678  1
  H+  H205  1  0.05219222  0.92088960  0.69290024  1
  H+  H206  1  0.27991445  0.12680006  0.33705162  1
  H+  H207  1  0.11670020  0.39939741  0.67459816  1
  H+  H208  1  0.24426408  0.39181153  -0.00788407  1
  H+  H209  1  0.74135325  0.78778634  0.60335060  1
  H+  H210  1  0.76393317  0.63277968  0.82856563  1
  H+  H211  1  0.61139155  0.73349849  0.15548501  1
  H+  H212  1  0.60214871  0.46243229  0.35211144  1
  H+  H213  1  0.87565895  0.86063325  0.17361485  1
  H+  H214  1  0.71242391  0.61102093  0.99740630  1
  H+  H215  1  0.85241067  0.02979815  0.27633939  1
  H+  H216  1  0.05031030  0.38913801  0.82851241  1
  H+  H217  1  0.68162748  0.74161119  0.84071123  1
  H+  H218  1  0.11937461  0.73107431  0.16460731  1
  H+  H219  1  0.10843973  0.21767922  0.31523722  1
  H+  H220  1  0.34193484  0.97428276  0.66835689  1
  H+  H221  1  0.15500007  0.37486934  0.84256134  1
  H+  H222  1  0.39549401  0.10894604  0.32079507  1
  H+  H223  1  0.13925155  0.35936077  0.31382978  1
  H+  H224  1  0.38650110  0.12422696  0.66181751  1
  H+  H225  1  0.88653829  0.52653033  0.67304975  1
  H+  H226  1  0.42348809  0.08321005  0.56632510  1
  H+  H227  1  0.35841574  0.46951561  0.82952096  1
  H+  H228  1  0.47179529  0.78085745  0.54793093  1
  H+  H229  1  0.84726740  0.13998535  0.48150283  1
  H+  H230  1  0.72211776  0.36966540  0.84780268  1
  H+  H231  1  0.48168912  0.86027438  0.32179941  1
  H+  H232  1  0.87035765  0.50559885  0.82784286  1
  H+  H233  1  0.61626871  0.40356938  0.16159905  1
  H+  H234  1  0.88077332  0.60948571  0.50317162  1
  H+  H235  1  0.63563686  0.50706855  0.84964172  1
  H+  H236  1  0.73480071  0.36126255  0.50516438  1
  H+  H237  1  0.27757494  0.11772351  0.16328716  1
  H+  H238  1  0.26848957  0.63945608  0.67533887  1
  H+  H239  1  0.37930161  0.24921449  0.69328872  1
  H+  H240  1  0.13000288  0.23440488  0.00524536  1
  H+  H241  1  0.42774639  0.60025171  0.26683277  1
  H+  H242  1  0.12739604  0.51724923  0.99405674  1
  H+  H243  1  0.13320889  0.01362617  0.69848052  1
  H+  H244  1  0.14705180  0.11253621  0.99276877  1
  H+  H245  1  0.86831467  0.89000163  0.34708167  1
  H+  H246  1  0.66194497  0.30818526  0.17048636  1
  H+  H247  1  0.57210247  0.91366437  0.76345039  1
  H+  H248  1  0.39058534  0.63075528  0.17449594  1
  H+  H249  1  0.73215070  0.54530883  0.68355678  1
  H+  H250  1  0.45696649  0.58455972  0.99904107  1
  H+  H251  1  0.88140964  0.86337581  0.99366646  1
  H+  H252  1  0.81832502  0.28772965  0.27612031  1
  H+  H253  1  0.89150758  0.36860136  0.71155059  1
  H+  H254  1  0.97107929  0.86610323  0.99020888  1
  H+  H255  1  0.40958677  0.82362399  0.60363442  1
  H+  H256  1  0.73437611  0.86711831  0.32969146  1
  H+  H257  1  0.47210125  0.34783227  0.17657950  1
  H+  H258  1  0.65470703  0.10676652  0.53206995  1
  H+  H259  1  0.40802082  0.27901122  0.50655972  1
  H+  H260  1  0.37408020  0.97903812  0.47785575  1
  H+  H261  1  0.47761026  0.38170296  -0.01106614  1
  H+  H262  1  0.36523571  0.38274503  0.82950002  1
  H+  H263  1  0.44695624  0.58427568  0.63093093  1
  H+  H264  1  0.89699183  0.37759311  0.98081999  1
  H+  H265  1  0.87442249  0.23835144  0.99939489  1
  H+  H266  1  0.32907822  0.13395795  0.06600562  1
  H+  H267  1  0.61294458  0.89223825  0.48764661  1
  H+  H268  1  0.37372845  0.01964192  0.85246305  1
  H+  H269  1  0.14078231  0.10894536  0.32191182  1
  H+  H270  1  1.02452698  0.63032210  0.67768817  1
  H+  H271  1  0.22081629  0.86208445  0.40199851  1
  H+  H272  1  0.32517933  0.40177163  0.44516039  1
  H+  H273  1  0.38900498  0.74396131  0.50447391  1
  H+  H274  1  0.07945048  0.12504072  0.51751990  1
  H+  H275  1  0.46261370  0.79232568  0.97134300  1
  H+  H276  1  0.67818889  0.74431023  0.80688550  1
  H+  H277  1  0.40007240  0.62719867  0.32785460  1
  H+  H278  1  0.62000726  0.77706800  0.99785286  1
  H+  H279  1  0.52491916  0.37537550  0.50335824  1
  H+  H280  1  0.83506496  0.62873180  0.35340052  1
  H+  H281  1  0.25731858  0.87133930  0.83600035  1
  H+  H282  1  0.24275889  0.17654809  0.50885650  1
  H+  H283  1  0.49099697  0.65339274  0.51226460  1
  H+  H284  1  0.88215583  0.89223089  0.68644306  1
  H+  H285  1  0.35649972  0.73536899  0.16196329  1
  H+  H286  1  0.09019948  0.00724547  0.53482131  1
  H+  H287  1  0.02374180  0.12641261  0.31659709  1
  H+  H288  1  0.02513265  0.97835782  0.11418375  1
  H+  H289  1  0.26501724  0.29356088  0.38490050  1
  H+  H290  1  0.36800796  0.17334592  0.42895443  1
  H+  H291  1  0.52730746  0.64567876  0.33226236  1
  H+  H292  1  0.91855706  0.27406782  0.60986537  1
  H+  H293  1  0.97212151  0.06667933  0.61695812  1
  H+  H294  1  0.36844471  0.21591371  0.33391328  1
  H+  H295  1  0.57698862  0.39825746  0.40893785  1
  H+  H296  1  0.83923888  0.16861879  0.39065590  1
  H+  H297  1  0.86538716  0.97676601  0.35331684  1
  H+  H298  1  0.90675776  0.59600820  0.26482683  1
  H+  H299  1  0.37920778  0.90809794  0.17136315  1
  H+  H300  1  0.83204832  0.91922918  0.10170929  1
  H+  H301  1  0.63178644  0.70734535  0.41422534  1
  H+  H302  1  0.60207595  0.21974309  0.83398957  1
  H+  H303  1  0.88806876  0.08488104  0.56105058  1
  H+  H304  1  0.08726117  0.66285420  0.43351579  1
  H+  H305  1  0.76664092  0.89340020  0.01221716  1
  H+  H306  1  0.42765007  0.07321098  0.93735508  1
  H+  H307  1  0.58082445  0.91383854  0.10919040  1
  H+  H308  1  0.92831228  0.33820481  0.88259842  1
  H+  H309  1  0.68114226  0.06428198  0.91634380  1
  H+  H310  1  0.09288174  0.91462909  0.78686621  1
  H+  H311  1  0.68185843  0.34036698  0.59693287  1
  H+  H312  1  0.64115329  0.87523909  0.84579930  1
  H+  H313  1  0.85690327  0.42945169  0.39780405  1
  H+  H314  1  0.18083179  0.34000300  0.21816743  1
  H+  H315  1  0.27810806  0.14638655  0.83292076  1
  H+  H316  1  0.81397576  0.62508339  0.07266580  1
  H+  H317  1  0.92664230  0.08717123  0.94410137  1
  H+  H318  1  0.94909357  0.59763202  0.89127789  1
  H+  H319  1  0.92760501  0.83197018  0.57211560  1
  H+  H320  1  0.67303352  0.34866855  0.23725029  1
  H+  H321  1  0.94279100  0.10151720  0.21557980  1
  H+  H322  1  0.53635589  0.14042707  0.34189753  1
  H+  H323  1  0.91562818  0.84422380  0.26990770  1
  H+  H324  1  0.32303021  0.66916533  0.10459812  1
  H+  H325  1  0.80724247  0.65481154  0.41574478  1
  H+  H326  1  0.83480534  0.43872062  0.10137886  1
  H+  H327  1  0.83087486  0.19113902  0.10584685  1
  H+  H328  1  0.13671550  0.77931999  0.88350568  1
  H+  H329  1  0.86458204  0.41708234  0.83611718  1
  H+  H330  1  0.08527907  0.18718498  0.74855985  1
  H+  H331  1  0.41881226  0.92116717  0.05596203  1
  H+  H332  1  0.35125940  0.46116932  0.08830108  1
  H+  H333  1  0.41427904  0.34446083  0.90587365  1
  H+  H334  1  0.89252905  0.53889800  0.17432514  1
  H+  H335  1  0.17569428  0.09122553  0.89731433  1
  H+  H336  1  0.37760878  0.64703387  0.46445230  1
  H+  H337  1  0.83677961  0.14987289  0.77858207  1
  H+  H338  1  0.18250931  0.34666765  0.93604972  1
  H+  H339  1  0.67731990  0.54225260  0.28347401  1
  H+  H340  1  0.83677405  0.91624152  0.44407098  1
  H+  H341  1  0.67353062  0.83665394  0.23076870  1
  H+  H342  1  0.09298443  0.41456904  0.42701814  1
  H+  H343  1  0.33203983  0.67302328  0.39869895  1
  H+  H344  1  0.87654203  0.27423365  0.60961207  1
  H+  H345  1  0.41621333  0.83551516  0.23090228  1
  H+  H346  1  0.82710865  0.67800739  0.74357608  1
  H+  H347  1  0.66991706  0.60392652  0.93353386  1
  H+  H348  1  0.58406928  0.91649919  0.39332994  1
  H+  H349  1  0.47289684  0.12194577  0.66305064  1
  H+  H350  1  0.16862545  0.58807635  0.60037974  1
  H+  H351  1  0.66356764  0.32670511  0.93917865  1
  H+  H352  1  0.61396402  0.63760586  0.71819744  1
  H+  H353  1  0.12478867  0.06933098  0.59294210  1
  H+  H354  1  0.11793195  0.47371576  0.33069368  1
  H+  H355  1  1.03250531  0.14666752  0.83879019  1
  H+  H356  1  0.07543750  0.91763864  0.05607197  1
  H+  H357  1  0.22059688  0.34624437  0.31925406  1
  H+  H358  1  0.65374452  0.06890883  0.23891341  1
  H+  H359  1  0.17303187  0.57839226  0.26196072  1
  H+  H360  1  0.14861308  0.14530090  0.67924841  1
  H+  H361  1  0.92909559  0.35809320  0.22528730  1
  H+  H362  1  0.66320199  0.82888331  0.56323974  1
  H+  H363  1  0.33569425  0.54270619  0.58084704  1
  H+  H364  1  0.83513387  0.92141783  0.77607810  1
  H+  H365  1  0.88632347  0.86376015  0.51872844  1
  H+  H366  1  0.59875223  0.16242920  0.44236806  1
  H+  H367  1  0.17883176  0.84242973  0.23376028  1
  H+  H368  1  0.64452765  0.59645049  0.22404699  1
  H+  H369  1  0.57531969  0.41490475  0.06187644  1
  H+  H370  1  0.82524512  0.42536957  0.74256804  1
  H+  H371  1  0.46617567  0.10714781  0.84383754  1
  H+  H372  1  0.13085689  0.48491501  0.15127059  1
  H+  H373  1  0.49182714  0.58334567  0.81823958  1
  H+  H374  1  0.56521476  0.39296828  0.78225352  1
  H+  H375  1  0.32983578  0.65941360  0.77044599  1
  H+  H376  1  0.40699755  0.81476817  0.89416217  1
  H+  H377  1  0.56727507  0.14105095  0.09211787  1
  H+  H378  1  0.10835425  0.43270573  0.77017073  1
  H+  H379  1  0.32846717  0.41211445  0.73306747  1
  H+  H380  1  0.41773994  0.31941996  0.26840083  1
  H+  H381  1  0.63900649  0.27382274  0.32208251  1
  H+  H382  1  0.56695030  0.66626335  0.06118053  1
  H+  H383  1  0.66100732  0.85013584  0.94613838  1
  O2-  O384  1  0.11262234  0.17319570  0.14049826  1
  O2-  O385  1  0.06734964  0.16538111  0.49412531  1
  O2-  O386  1  0.09034195  0.18027073  0.81944811  1
  O2-  O387  1  0.09964316  0.42450533  0.13606335  1
  O2-  O388  1  0.08868389  0.41607439  0.47194415  1
  O2-  O389  1  0.11048929  0.42839580  0.81562621  1
  O2-  O390  1  0.08316301  0.66928390  0.15322730  1
  O2-  O391  1  0.07943150  0.66017485  0.47793515  1
  O2-  O392  1  0.02631210  0.60900355  0.82420040  1
  O2-  O393  1  0.04911855  0.94385312  0.12936933  1
  O2-  O394  1  0.07861288  0.91728355  0.48393855  1
  O2-  O395  1  0.07916274  0.88255983  0.82582677  1
  O2-  O396  1  0.33780329  0.14162604  0.14827044  1
  O2-  O397  1  0.38462786  0.18949711  0.47170431  1
  O2-  O398  1  0.34106983  0.17608934  0.81921085  1
  O2-  O399  1  0.35017558  0.45525644  0.13327705  1
  O2-  O400  1  0.32575814  0.40166843  0.48993231  1
  O2-  O401  1  0.33267864  0.41033951  0.81190703  1
  O2-  O402  1  0.32775465  0.67332083  0.15132416  1
  O2-  O403  1  0.33697976  0.66694541  0.47192356  1
  O2-  O404  1  0.33517032  0.66019993  0.81565281  1
  O2-  O405  1  0.35160105  0.94137529  0.15326240  1
  O2-  O406  1  0.34739687  0.92553371  0.45335540  1
  O2-  O407  1  0.31630402  0.91123762  0.84931775  1
  O2-  O408  1  0.55197895  0.12345952  0.13745411  1
  O2-  O409  1  0.59849988  0.15992197  0.48731875  1
  O2-  O410  1  0.56660830  0.16158172  0.81700288  1
  O2-  O411  1  0.57599637  0.42086345  0.14503168  1
  O2-  O412  1  0.58684115  0.39967528  0.48642687  1
  O2-  O413  1  0.57475856  0.40142935  0.82690381  1
  O2-  O414  1  0.57743128  0.67356409  0.13948326  1
  O2-  O415  1  0.66471003  0.72874455  0.45297512  1
  O2-  O416  1  0.53470728  0.57668340  0.79305608  1
  O2-  O417  1  0.57351432  0.89894064  0.15394991  1
  O2-  O418  1  0.58089292  0.91857407  0.46943654  1
  O2-  O419  1  0.56884941  0.90693235  0.80849986  1
  O2-  O420  1  0.82302125  0.20398454  0.14793861  1
  O2-  O421  1  0.83055847  0.17594809  0.45735009  1
  O2-  O422  1  0.83944452  0.14944723  0.82406426  1
  O2-  O423  1  0.84534523  0.44009622  0.14632935  1
  O2-  O424  1  0.82801162  0.41686117  0.47134164  1
  O2-  O425  1  0.83127743  0.44188903  0.82040046  1
  O2-  O426  1  0.82424625  0.66604414  0.14601551  1
  O2-  O427  1  0.81811072  0.66336234  0.49207882  1
  O2-  O428  1  0.82241894  0.66643486  0.81091274  1
  O2-  O429  1  0.83581072  0.92156888  0.14732370  1
  O2-  O430  1  0.83743906  0.92063073  0.48964938  1
  O2-  O431  1  0.83942351  0.92444700  0.82090286  1
  O2-  O432  1  0.17662602  0.08096922  0.18982796  1
  O2-  O433  1  0.08022407  0.04640851  0.56075431  1
  O2-  O434  1  0.18292741  0.10177177  0.85284628  1
  O2-  O435  1  0.18257225  0.33962500  0.17285027  1
  O2-  O436  1  0.15315387  0.32570330  0.52432606  1
  O2-  O437  1  0.17810575  0.33896287  0.86044617  1
  O2-  O438  1  0.16922602  0.58391776  0.18782511  1
  O2-  O439  1  0.17040529  0.58506782  0.51579369  1
  O2-  O440  1  0.17708454  0.58839847  0.86794188  1
  O2-  O441  1  0.17787321  0.83685774  0.18978236  1
  O2-  O442  1  0.15316447  0.82512454  0.52860716  1
  O2-  O443  1  0.13472973  0.77654231  0.83885306  1
  O2-  O444  1  0.39810990  0.02722794  0.18077707  1
  O2-  O445  1  0.42985043  0.08049545  0.52151647  1
  O2-  O446  1  0.40806017  0.08200977  0.86353196  1
  O2-  O447  1  0.41749862  0.30896473  0.19754614  1
  O2-  O448  1  0.43372832  0.33720774  0.52645511  1
  O2-  O449  1  0.41570084  0.33848192  0.85888069  1
  O2-  O450  1  0.42381666  0.60258953  0.18754000  1
  O2-  O451  1  0.30704858  0.52341623  0.54043334  1
  O2-  O452  1  0.40521932  0.57012456  0.85738863  1
  O2-  O453  1  0.41293630  0.84232656  0.18575843  1
  O2-  O454  1  0.43452944  0.79998771  0.53038492  1
  O2-  O455  1  0.40410654  0.82205367  0.84900809  1
  O2-  O456  1  0.64196992  0.05130802  0.19561428  1
  O2-  O457  1  0.67131014  0.06699675  0.54989036  1
  O2-  O458  1  0.68782925  0.04156061  0.87625704  1
  O2-  O459  1  0.68342345  0.36288963  0.19107201  1
  O2-  O460  1  0.67717356  0.32681695  0.52578667  1
  O2-  O461  1  0.66403099  0.33021957  0.86352627  1
  O2-  O462  1  0.65260563  0.59269667  0.18052398  1
  O2-  O463  1  0.62697984  0.57277844  0.50877023  1
  O2-  O464  1  0.66115445  0.56980561  0.85766929  1
  O2-  O465  1  0.67169103  0.83537165  0.18539744  1
  O2-  O466  1  0.66776076  0.84633587  0.52041608  1
  O2-  O467  1  0.69099371  0.89567948  0.87369053  1
  O2-  O468  1  0.94885058  0.09174642  0.17252846  1
  O2-  O469  1  0.89068386  0.08457694  0.51652851  1
  O2-  O470  1  0.93202601  0.08458388  0.86682663  1
  O2-  O471  1  0.94523296  0.37332406  0.18201942  1
  O2-  O472  1  0.92477576  0.34430343  0.49876123  1
  O2-  O473  1  0.94241357  0.31822165  0.84465192  1
  O2-  O474  1  0.91874162  0.59854584  0.19183853  1
  O2-  O475  1  0.90762381  0.57361186  0.50727383  1
  O2-  O476  1  0.94683597  0.60299225  0.84555584  1
  O2-  O477  1  0.90876853  0.83245558  0.18776629  1
  O2-  O478  1  0.91187477  0.82699988  0.52801654  1
  O2-  O479  1  0.90900794  0.82437886  0.85806436  1
  O2-  O480  1  0.17298379  0.07765119  0.31298669  1
  O2-  O481  1  0.17624478  0.11329063  0.66322383  1
  O2-  O482  1  0.16892033  0.07563134  0.97632006  1
  O2-  O483  1  0.16688897  0.32856402  0.29575178  1
  O2-  O484  1  0.16260657  0.34417782  0.64706701  1
  O2-  O485  1  0.18329829  0.34975886  0.98163209  1
  O2-  O486  1  0.17480603  0.57378047  0.30778318  1
  O2-  O487  1  0.16790383  0.58810233  0.64537135  1
  O2-  O488  1  0.15582608  0.57966034  0.98427284  1
  O2-  O489  1  0.19493315  0.84479749  0.36139073  1
  O2-  O490  1  0.10430896  0.81528186  0.64142970  1
  O2-  O491  1  0.09056847  0.78442213  0.96330576  1
  O2-  O492  1  0.43054585  0.08211075  0.30762285  1
  O2-  O493  1  0.41391035  0.09268248  0.64536195  1
  O2-  O494  1  0.43652612  0.07029884  0.98221821  1
  O2-  O495  1  0.41302704  0.32018658  0.31464078  1
  O2-  O496  1  0.53152387  0.56011240  0.60147340  1
  O2-  O497  1  0.41870756  0.36137887  0.97229103  1
  O2-  O498  1  0.43327580  0.60077117  0.31194643  1
  O2-  O499  1  0.39044528  0.57106639  0.64690678  1
  O2-  O500  1  0.39739570  0.55158686  0.98121643  1
  O2-  O501  1  0.42193773  0.82896348  0.30537226  1
  O2-  O502  1  0.40947466  0.83234783  0.64826587  1
  O2-  O503  1  0.41100493  0.79648536  0.96700205  1
  O2-  O504  1  0.67043758  0.08587437  0.31561630  1
  O2-  O505  1  0.65987188  0.09536385  0.69114547  1
  O2-  O506  1  0.67855446  0.09667303  0.98786161  1
  O2-  O507  1  0.66191903  0.33279997  0.30504186  1
  O2-  O508  1  0.68038745  0.34905172  0.64277564  1
  O2-  O509  1  0.66396254  0.32939374  0.98478434  1
  O2-  O510  1  0.65814467  0.56356272  0.31720358  1
  O2-  O511  1  0.67507628  0.51937572  0.66525164  1
  O2-  O512  1  0.67975479  0.63163521  0.97400471  1
  O2-  O513  1  0.67703822  0.84086263  0.30948141  1
  O2-  O514  1  0.70615906  0.79504864  0.63383663  1
  O2-  O515  1  0.65312099  0.84046280  0.99078202  1
  O2-  O516  1  0.90043558  0.07213791  0.30043702  1
  O2-  O517  1  0.93050206  0.07348221  0.64164530  1
  O2-  O518  1  0.92449178  0.08952861  0.98951414  1
  O2-  O519  1  0.87530224  0.31737095  0.29437540  1
  O2-  O520  1  0.92416330  0.34051270  0.72686068  1
  O2-  O521  1  0.92449184  0.34735319  0.96390596  1
  O2-  O522  1  0.89878340  0.59209608  0.31069808  1
  O2-  O523  1  0.91868362  0.58665071  0.65884928  1
  O2-  O524  1  0.93249891  0.58380327  0.96406641  1
  O2-  O525  1  0.91741417  0.84948710  0.31468583  1
  O2-  O526  1  0.96041316  0.82777178  0.64536128  1
  O2-  O527  1  0.91000538  0.83277496  0.97751654  1
  O2-  O528  1  0.09864212  0.17362860  0.01875627  1
  O2-  O529  1  0.08358940  0.15773360  0.32995052  1
  O2-  O530  1  0.08503735  0.18929076  0.70227877  1
  O2-  O531  1  0.07902841  0.41115765  0.01471528  1
  O2-  O532  1  0.08770693  0.41249958  0.34616892  1
  O2-  O533  1  0.09080907  0.43096866  0.69510585  1
  O2-  O534  1  0.07498548  0.65340570  0.03084060  1
  O2-  O535  1  0.11597308  0.67746319  0.35205794  1
  O2-  O536  1  0.08764349  0.66253943  0.68564176  1
  O2-  O537  1  0.07943413  0.91371833  0.01148449  1
  O2-  O538  1  0.08410586  0.91765518  0.35821927  1
  O2-  O539  1  0.10724220  0.95384733  0.71397328  1
  O2-  O540  1  0.32261001  0.12616660  0.02144945  1
  O2-  O541  1  0.34200424  0.15479082  0.34790438  1
  O2-  O542  1  0.34346343  0.18804432  0.70132378  1
  O2-  O543  1  0.35822094  0.46504062  0.00742716  1
  O2-  O544  1  0.29953842  0.35059247  0.36735839  1
  O2-  O545  1  0.32975798  0.41704369  0.68802167  1
  O2-  O546  1  0.31225338  0.65714151  0.03606452  1
  O2-  O547  1  0.33837069  0.67270503  0.35263670  1
  O2-  O548  1  0.32848352  0.66916078  0.69219607  1
  O2-  O549  1  0.44913818  0.93384467  0.01738914  1
  O2-  O550  1  0.33014250  0.90827065  0.29728869  1
  O2-  O551  1  0.30251586  0.91337127  0.67762160  1
  O2-  O552  1  0.58764260  0.16703068  0.02633486  1
  O2-  O553  1  0.59610359  0.17384297  0.35735775  1
  O2-  O554  1  0.57579046  0.17898856  0.69140819  1
  O2-  O555  1  0.57608240  0.41436463  0.01702992  1
  O2-  O556  1  0.57359760  0.40082146  0.36360070  1
  O2-  O557  1  0.53656226  0.37721621  0.70581202  1
  O2-  O558  1  0.56159228  0.66372953  0.01601280  1
  O2-  O559  1  0.59172210  0.67495995  0.34357568  1
  O2-  O560  1  0.64254811  0.64561330  0.67884811  1
  O2-  O561  1  0.59090712  0.94480775  0.03910049  1
  O2-  O562  1  0.58599729  0.91802761  0.34767605  1
  O2-  O563  1  0.57030004  0.91385856  0.68459222  1
  O2-  O564  1  0.84489014  0.18152042  0.01917978  1
  O2-  O565  1  0.84000426  0.16357748  0.34363193  1
  O2-  O566  1  0.84155781  0.17024904  0.70363068  1
  O2-  O567  1  0.81127650  0.44759737  0.02820125  1
  O2-  O568  1  0.88550777  0.44028494  0.35705705  1
  O2-  O569  1  0.83514733  0.41754990  0.69911689  1
  O2-  O570  1  0.79974251  0.59233865  0.03369997  1
  O2-  O571  1  0.79908714  0.65040626  0.37071494  1
  O2-  O572  1  0.82872182  0.68267271  0.69630169  1
  O2-  O573  1  0.82760593  0.91955240  0.02534870  1
  O2-  O574  1  0.83515236  0.91638991  0.36682383  1
  O2-  O575  1  0.84351188  0.91491838  0.69370427  1
