# generated using pymatgen
data_H2O
_symmetry_space_group_name_H-M   'P 1'
_cell_length_a   17.98573154
_cell_length_b   17.99277032
_cell_length_c   21.99955977
_cell_angle_alpha   90.01366356
_cell_angle_beta   89.99237693
_cell_angle_gamma   119.99062100
_symmetry_Int_Tables_number   1
_chemical_formula_structural   H2O
_chemical_formula_sum   'H384 O192'
_cell_volume   6166.11740224
_cell_formula_units_Z   192
loop_
 _symmetry_equiv_pos_site_id
 _symmetry_equiv_pos_as_xyz
  1  'x, y, z'
loop_
 _atom_type_symbol
 _atom_type_oxidation_number
  H+  1.0
  O2-  -2.0
loop_
 _atom_site_type_symbol
 _atom_site_label
 _atom_site_symmetry_multiplicity
 _atom_site_fract_x
 _atom_site_fract_y
 _atom_site_fract_z
 _atom_site_occupancy
  H+  H0  1  0.36645985  0.88608979  0.00514734  1
  H+  H1  1  0.53149280  0.14770377  0.82909138  1
  H+  H2  1  0.11058786  0.63058528  0.85068753  1
  H+  H3  1  0.26628489  0.63917220  0.31407301  1
  H+  H4  1  0.10848312  0.18644937  0.17976056  1
  H+  H5  1  0.09093925  0.04698375  0.12110859  1
  H+  H6  1  0.35373727  0.88022913  0.66984902  1
  H+  H7  1  0.02104537  0.79221593  0.37694297  1
  H+  H8  1  0.71906885  0.89404606  0.16569244  1
  H+  H9  1  0.65136568  0.54124511  0.84930945  1
  H+  H10  1  0.26182869  0.37753252  0.50278548  1
  H+  H11  1  0.75325997  0.88723090  0.50756355  1
  H+  H12  1  0.46078678  0.59866511  0.50238307  1
  H+  H13  1  0.35699945  0.63326376  0.82957244  1
  H+  H14  1  0.12701446  0.20622128  0.14901790  1
  H+  H15  1  0.04412582  0.89020477  0.01362824  1
  H+  H16  1  0.06799667  0.88606304  0.40098008  1
  H+  H17  1  0.37618859  0.39348846  0.81714594  1
  H+  H18  1  0.36176091  0.34869690  0.52702169  1
  H+  H19  1  0.13834135  0.03165159  0.49616992  1
  H+  H20  1  0.33648939  0.41121265  0.72257552  1
  H+  H21  1  0.36100830  0.64086752  0.12987385  1
  H+  H22  1  0.26924252  0.40327094  0.15958296  1
  H+  H23  1  0.86637481  0.48472026  0.33507753  1
  H+  H24  1  0.38023298  0.76455462  0.66295768  1
  H+  H25  1  0.57048269  0.90826492  0.43240107  1
  H+  H26  1  0.16298937  0.57468563  0.58429244  1
  H+  H27  1  0.50704486  0.87391398  0.83047013  1
  H+  H28  1  0.06345174  0.17881864  0.34091120  1
  H+  H29  1  0.14197565  0.76801480  0.32249038  1
  H+  H30  1  0.57457218  0.41408164  0.39449719  1
  H+  H31  1  0.85190824  0.95498057  0.14612717  1
  H+  H32  1  0.60057096  0.19523120  0.66091354  1
  H+  H33  1  0.90207126  0.99287650  0.46832748  1
  H+  H34  1  0.17266251  0.58817341  0.91243622  1
  H+  H35  1  0.63077744  0.76352715  0.66550007  1
  H+  H36  1  0.07743276  0.95267180  0.82301602  1
  H+  H37  1  0.14266523  0.62218409  1.01664276  1
  H+  H38  1  0.03475513  0.40768347  0.33597086  1
  H+  H39  1  0.37792496  0.90161848  0.14742979  1
  H+  H40  1  0.25093859  0.38195604  0.84053873  1
  H+  H41  1  0.28995458  0.90142519  0.15615742  1
  H+  H42  1  0.46784739  0.40140222  0.19248800  1
  H+  H43  1  0.72337947  0.85282724  -0.00250813  1
  H+  H44  1  0.88618106  0.35920035  0.50324666  1
  H+  H45  1  0.76093817  0.85220478  0.51884721  1
  H+  H46  1  0.89358474  0.10172447  0.15639464  1
  H+  H47  1  0.91303706  0.30457218  0.32964410  1
  H+  H48  1  0.07812463  0.93372940  0.17653279  1
  H+  H49  1  0.04764295  0.15661476  -0.00276925  1
  H+  H50  1  0.36525428  0.39263057  0.34141969  1
  H+  H51  1  0.12954513  0.51643538  0.51279142  1
  H+  H52  1  0.13010779  0.27166305  0.65806701  1
  H+  H53  1  0.62230045  0.49935778  0.17132018  1
  H+  H54  1  0.05058201  0.15689232  0.81589457  1
  H+  H55  1  0.62205240  0.09775309  0.15922130  1
  H+  H56  1  0.10060179  -0.00399423  0.66193397  1
  H+  H57  1  0.77218751  0.38423580  0.49129545  1
  H+  H58  1  0.60896170  0.60650755  0.50217438  1
  H+  H59  1  0.65015331  0.42660032  0.46926114  1
  H+  H60  1  0.12074693  0.14607978  0.49749010  1
  H+  H61  1  0.71209546  0.60382920  0.32097809  1
  H+  H62  1  0.37270003  0.37470979  0.17814184  1
  H+  H63  1  0.45135684  0.33809467  -0.01288922  1
  H+  H64  1  0.61181668  0.22023594  0.50599488  1
  H+  H65  1  0.35692973  0.46936151  0.66392579  1
  H+  H66  1  0.63446750  0.86578948  1.00534145  1
  H+  H67  1  0.15513755  -0.00200462  0.08354682  1
  H+  H68  1  0.27444794  0.40191289  0.34049798  1
  H+  H69  1  0.63047827  0.65422120  0.01187054  1
  H+  H70  1  0.87125541  0.39885509  0.33220442  1
  H+  H71  1  0.26031543  0.87282085  0.82421560  1
  H+  H72  1  0.60117785  0.47343096  0.48847430  1
  H+  H73  1  0.77330091  0.13392855  0.82668641  1
  H+  H74  1  0.22483277  0.60571310  0.51756871  1
  H+  H75  1  0.13504807  0.61934976  0.15347339  1
  H+  H76  1  0.60945102  0.24449522  0.34402706  1
  H+  H77  1  0.77440427  0.40022095  0.82765948  1
  H+  H78  1  0.57088602  0.02485404  0.30930669  1
  H+  H79  1  0.78527593  0.66694202  0.66810460  1
  H+  H80  1  0.61508978  0.71059761  0.16931426  1
  H+  H81  1  0.37249858  0.50811331  0.50981225  1
  H+  H82  1  0.13598792  0.77030554  0.63094299  1
  H+  H83  1  0.34006452  0.11400441  0.66389563  1
  H+  H84  1  0.12312667  0.65014767  0.33724848  1
  H+  H85  1  0.38484177  1.02889181  0.34386702  1
  H+  H86  1  0.26702008  0.39114038  0.00605325  1
  H+  H87  1  0.64009564  0.27793816  0.83501970  1
  H+  H88  1  0.78024087  0.06641758  0.36120867  1
  H+  H89  1  0.79830816  0.67177423  0.39716987  1
  H+  H90  1  0.32558280  0.02768271  0.17354033  1
  H+  H91  1  0.94884234  0.61714153  0.64282847  1
  H+  H92  1  0.38288070  0.76528506  0.84273201  1
  H+  H93  1  0.21547771  0.04820189  0.14309948  1
  H+  H94  1  1.02964380  0.89177483  0.49115156  1
  H+  H95  1  0.17141338  0.12870958  -0.01984092  1
  H+  H96  1  0.87835811  0.65762251  0.03444543  1
  H+  H97  1  0.46886048  0.60696949  0.32125370  1
  H+  H98  1  0.38605907  0.52896087  0.16177006  1
  H+  H99  1  0.79482838  0.66770421  0.82743406  1
  H+  H100  1  0.15188927  0.77582113  0.16565587  1
  H+  H101  1  0.78019567  0.13510490  0.16413189  1
  H+  H102  1  0.35173787  0.12422457  0.17930159  1
  H+  H103  1  0.38436448  0.12700256  0.34569188  1
  H+  H104  1  0.62481205  0.64836079  0.85481555  1
  H+  H105  1  0.37204673  0.01056884  0.66132102  1
  H+  H106  1  0.63599645  -0.02510461  0.16839139  1
  H+  H107  1  0.26948493  0.63378921  0.03290524  1
  H+  H108  1  0.27887844  0.14305681  0.36610712  1
  H+  H109  1  0.81327969  0.15612255  0.33230590  1
  H+  H110  1  0.16966678  0.82890642  0.91053528  1
  H+  H111  1  0.88814071  0.62226118  0.32449103  1
  H+  H112  1  0.97897173  0.62778914  0.32409689  1
  H+  H113  1  0.37148783  0.25781282  0.52682071  1
  H+  H114  1  0.87198252  0.22228389  0.16964012  1
  H+  H115  1  0.47513480  0.61788323  0.85667221  1
  H+  H116  1  0.88458179  0.38752671  1.00317231  1
  H+  H117  1  0.11608905  0.88833949  0.48499001  1
  H+  H118  1  0.37070690  0.49298146  0.33638792  1
  H+  H119  1  0.98915191  0.84555269  0.17308873  1
  H+  H120  1  0.85383180  0.31500347  0.19187891  1
  H+  H121  1  0.50535100  0.15078794  0.15273042  1
  H+  H122  1  0.14061914  0.85315662  0.01403246  1
  H+  H123  1  0.86785728  0.49420459  1.00696259  1
  H+  H124  1  0.12677203  0.85090480  0.32138216  1
  H+  H125  1  0.90364336  0.83907248  -0.01972940  1
  H+  H126  1  0.13199297  0.77127857  0.85313069  1
  H+  H127  1  0.87950461  0.53547320  0.85361056  1
  H+  H128  1  0.09547483  0.47808964  0.15876238  1
  H+  H129  1  0.57404078  0.71014989  0.49542018  1
  H+  H130  1  0.11452563  0.09691047  0.65977987  1
  H+  H131  1  0.65456486  0.83758806  0.26040865  1
  H+  H132  1  0.27446563  0.88515062  0.48615981  1
  H+  H133  1  0.37475310  0.48204167  0.81870316  1
  H+  H134  1  0.22979016  0.85313855  1.00643708  1
  H+  H135  1  0.88538840  0.28256159  0.83474729  1
  H+  H136  1  0.59295886  0.85536249  0.33776288  1
  H+  H137  1  0.97916863  0.62440632  1.00860393  1
  H+  H138  1  0.46647290  0.36588223  0.33115288  1
  H+  H139  1  0.47854943  0.13089873  0.34210148  1
  H+  H140  1  0.47668077  0.11163020  0.51053000  1
  H+  H141  1  0.97134225  0.04365642  0.30472414  1
  H+  H142  1  0.83742170  0.94741021  0.32269405  1
  H+  H143  1  0.27348668  0.13084121  0.81826713  1
  H+  H144  1  0.12870399  0.84821212  0.17721415  1
  H+  H145  1  0.96970231  0.60502557  0.49674096  1
  H+  H146  1  0.61690165  -0.02717187  1.01512500  1
  H+  H147  1  0.64271542  0.53205513  0.66222753  1
  H+  H148  1  0.46934086  0.11194392  0.98898235  1
  H+  H149  1  0.86674906  0.84866857  0.32081344  1
  H+  H150  1  0.88490607  0.37041260  0.83932569  1
  H+  H151  1  0.10972811  0.69793501  0.39701389  1
  H+  H152  1  0.83970208  0.72278279  0.33651701  1
  H+  H153  1  0.01833917  0.40370294  0.82931880  1
  H+  H154  1  -0.00246778  0.05702907  0.13722831  1
  H+  H155  1  0.13555608  0.53656834  0.31807232  1
  H+  H156  1  0.12737169  0.20892600  0.04395010  1
  H+  H157  1  0.47423949  0.61151355  1.00100866  1
  H+  H158  1  0.59703688  0.62351900  0.33176699  1
  H+  H159  1  0.60627199  -0.02723281  0.49054287  1
  H+  H160  1  0.13091709  0.38398839  0.17831219  1
  H+  H161  1  0.87063399  0.64583115  0.12970619  1
  H+  H162  1  0.65047228  0.79164738  0.85062058  1
  H+  H163  1  0.36447439  0.88879877  0.49547423  1
  H+  H164  1  0.47687239  0.85476151  1.00320164  1
  H+  H165  1  0.50568384  0.86264402  0.67953040  1
  H+  H166  1  0.95195085  0.18915938  0.94614570  1
  H+  H167  1  0.69114718  0.85148156  0.79489224  1
  H+  H168  1  0.50719675  0.11703846  0.67298411  1
  H+  H169  1  0.86529145  0.14035066  0.81931307  1
  H+  H170  1  0.14212499  0.10161589  0.83511385  1
  H+  H171  1  0.13454683  0.52994468  0.85046201  1
  H+  H172  1  0.60440429  0.38514458  0.33470182  1
  H+  H173  1  0.90860099  0.79833640  0.66493841  1
  H+  H174  1  0.20567263  0.08603181  0.66255690  1
  H+  H175  1  0.96313666  0.85697218  0.92278475  1
  H+  H176  1  0.76493849  0.66156588  1.01070241  1
  H+  H177  1  0.38261580  0.77282213  0.51493869  1
  H+  H178  1  0.38653851  0.78575768  0.13712334  1
  H+  H179  1  0.13096975  0.51524636  0.66108135  1
  H+  H180  1  0.38947128  0.77501313  0.28255939  1
  H+  H181  1  0.95316003  0.84077149  0.32254602  1
  H+  H182  1  0.53257771  0.40180556  0.82965156  1
  H+  H183  1  0.80536833  0.41332932  0.16248554  1
  H+  H184  1  0.26974195  0.63639990  0.83270606  1
  H+  H185  1  0.69867045  0.61108811  0.50464639  1
  H+  H186  1  0.16295866  0.29498264  0.84972438  1
  H+  H187  1  0.89789596  0.42143422  0.15755165  1
  H+  H188  1  0.47027285  0.05409013  0.13727140  1
  H+  H189  1  0.58268234  0.44322736  -0.01165383  1
  H+  H190  1  0.60094419  0.12861751  1.00268979  1
  H+  H191  1  0.89002774  0.11310830  0.49906487  1
  H+  H192  1  0.83726786  0.92374069  0.72812153  1
  H+  H193  1  0.66304796  0.37716648  0.16572682  1
  H+  H194  1  0.64824744  0.30491056  0.70220534  1
  H+  H195  1  0.38166025  0.02229206  0.98785375  1
  H+  H196  1  0.87372441  0.15116162  0.66829647  1
  H+  H197  1  0.10536104  0.39610952  1.00524623  1
  H+  H198  1  0.15184507  0.39577800  0.33368231  1
  H+  H199  1  0.93712989  0.85123296  0.56843982  1
  H+  H200  1  0.22582629  0.11781922  0.50748224  1
  H+  H201  1  0.02311319  0.39436154  0.67202657  1
  H+  H202  1  0.37523545  0.35786087  0.98534982  1
  H+  H203  1  0.26555723  0.14672431  0.97337102  1
  H+  H204  1  0.46570853  0.60642826  0.65377778  1
  H+  H205  1  0.60151612  0.86333781  0.68420655  1
  H+  H206  1  0.62340744  0.40675275  0.68029768  1
  H+  H207  1  0.29275697  0.90683241  0.34072977  1
  H+  H208  1  0.15625635  0.13043143  0.35977131  1
  H+  H209  1  0.97727380  0.37765831  1.00489500  1
  H+  H210  1  0.87636751  0.65726907  0.83111827  1
  H+  H211  1  0.46988676  0.86262709  0.50852635  1
  H+  H212  1  0.32241300  0.65878129  0.73370828  1
  H+  H213  1  0.68717422  0.57045783  1.00773079  1
  H+  H214  1  0.10797470  0.63621319  0.66024951  1
  H+  H215  1  0.88917662  0.27281281  0.50895170  1
  H+  H216  1  0.80996976  0.90498268  0.83350530  1
  H+  H217  1  0.62077117  0.40085097  0.83146250  1
  H+  H218  1  0.36784053  0.13105450  0.02302815  1
  H+  H219  1  0.83637544  0.85993561  0.15545285  1
  H+  H220  1  0.15857435  0.05853667  0.32120616  1
  H+  H221  1  0.62513241  0.00098358  0.65732197  1
  H+  H222  1  0.15703334  0.59161988  0.25526542  1
  H+  H223  1  0.34404302  0.33781449  0.63125351  1
  H+  H224  1  0.42068134  0.26727028  0.16762004  1
  H+  H225  1  0.59766141  0.71258419  0.32752269  1
  H+  H226  1  0.53950476  0.34637391  0.14291914  1
  H+  H227  1  0.86102917  0.48120329  0.66534312  1
  H+  H228  1  0.36336260  0.23504446  0.35217080  1
  H+  H229  1  0.35589582  0.62306554  0.50752831  1
  H+  H230  1  0.88018350  0.63625661  0.55311689  1
  H+  H231  1  0.89474048  0.28453570  0.66298623  1
  H+  H232  1  0.13570556  0.27987785  0.51092260  1
  H+  H233  1  0.62881324  0.02325788  0.84075540  1
  H+  H234  1  0.11257643  0.39347841  0.49374959  1
  H+  H235  1  0.61069140  0.33878202  0.53191105  1
  H+  H236  1  0.34932001  0.87502730  0.81913848  1
  H+  H237  1  0.90833199  0.55297318  0.16250887  1
  H+  H238  1  0.86944197  0.39700278  0.67483946  1
  H+  H239  1  0.60435101  0.88543722  0.82778137  1
  H+  H240  1  0.90984238  0.77764308  0.51937307  1
  H+  H241  1  0.32495921  0.19394261  0.65187113  1
  H+  H242  1  0.61997158  0.59324853  0.17325890  1
  H+  H243  1  0.35249751  0.62877615  0.67378435  1
  H+  H244  1  0.12259637  0.73567622  1.03259859  1
  H+  H245  1  0.57991460  0.83350553  0.51470179  1
  H+  H246  1  0.37490216  0.14739736  0.50741298  1
  H+  H247  1  0.61060134  0.62717135  0.65993198  1
  H+  H248  1  0.63901832  0.27010801  0.99411768  1
  H+  H249  1  0.67097151  0.08612243  0.32613081  1
  H+  H250  1  0.39162022  0.27954601  0.82799133  1
  H+  H251  1  0.21837207  0.61184776  0.15554603  1
  H+  H252  1  1.00865622  0.38408358  0.16500021  1
  H+  H253  1  0.62320471  0.51084933  0.32283782  1
  H+  H254  1  0.72689313  0.36271193  0.99424798  1
  H+  H255  1  0.03306151  0.65658537  0.13188291  1
  H+  H256  1  0.35954065  0.47417926  0.00968106  1
  H+  H257  1  0.14745315  0.26701119  0.34503919  1
  H+  H258  1  0.38592048  0.61032680  1.01017504  1
  H+  H259  1  0.72987390  0.37440706  0.32766099  1
  H+  H260  1  0.71009490  0.11363411  0.99806518  1
  H+  H261  1  0.92667652  0.09818564  0.31586757  1
  H+  H262  1  0.47621092  0.85784463  0.29775742  1
  H+  H263  1  0.84300991  0.15699548  0.01524174  1
  H+  H264  1  0.92006850  0.50450701  0.49809470  1
  H+  H265  1  0.67630244  0.29731475  0.17171353  1
  H+  H266  1  0.22639061  0.85786989  0.63611091  1
  H+  H267  1  0.08930774  0.43718997  0.39864046  1
  H+  H268  1  0.22082257  0.35958304  0.66127866  1
  H+  H269  1  0.70724384  0.84255269  0.32044192  1
  H+  H270  1  0.40116898  0.13235822  0.83399850  1
  H+  H271  1  0.98426575  0.12266152  0.50190224  1
  H+  H272  1  0.62702474  0.76601149  0.00402494  1
  H+  H273  1  0.22274725  0.60838786  0.66081177  1
  H+  H274  1  0.92445964  0.80016910  0.82730991  1
  H+  H275  1  0.85826716  0.93146657  0.00083936  1
  H+  H276  1  0.90532003  0.09272604  0.96802335  1
  H+  H277  1  0.63707087  0.10642761  0.50727343  1
  H+  H278  1  0.90230262  0.90480545  0.47167204  1
  H+  H279  1  0.13031679  0.29637916  0.97633640  1
  H+  H280  1  1.00743655  0.12168160  0.65293028  1
  H+  H281  1  0.91473750  0.03823632  0.81894448  1
  H+  H282  1  0.37762641  0.60632386  0.31750118  1
  H+  H283  1  0.11108917  0.39075638  0.67448437  1
  H+  H284  1  0.84404654  0.69232865  0.72734986  1
  H+  H285  1  0.18068953  0.36602386  0.92705735  1
  H+  H286  1  0.97140954  0.61778352  0.85993283  1
  H+  H287  1  0.61863562  0.94954094  0.33403479  1
  H+  H288  1  0.59642437  0.43995709  0.73810700  1
  H+  H289  1  0.67446751  0.34550695  0.26756096  1
  H+  H290  1  0.41533678  0.82485783  0.90265761  1
  H+  H291  1  0.16357017  0.34145968  0.56919577  1
  H+  H292  1  0.08298510  0.43894590  0.77294168  1
  H+  H293  1  0.34413810  0.93227660  0.40450359  1
  H+  H294  1  0.65176689  0.08741703  0.22367434  1
  H+  H295  1  0.91841335  0.60221273  0.94908834  1
  H+  H296  1  0.17664548  0.06977147  0.88854100  1
  H+  H297  1  0.16788015  0.82479368  0.54947976  1
  H+  H298  1  0.77061694  0.13101889  0.50323707  1
  H+  H299  1  0.16864395  0.82981716  0.25582394  1
  H+  H300  1  0.89737023  0.90529033  0.81801493  1
  H+  H301  1  0.83697267  0.91005035  0.38801077  1
  H+  H302  1  0.31181481  0.90024403  0.72657547  1
  H+  H303  1  0.87936317  0.79753290  0.22645118  1
  H+  H304  1  0.94890505  0.10412193  0.87369237  1
  H+  H305  1  0.65674238  0.07436620  0.93640437  1
  H+  H306  1  0.13567299  0.53118405  0.00961593  1
  H+  H307  1  0.59975718  0.15161315  0.33967297  1
  H+  H308  1  0.66750326  0.33351529  0.89585796  1
  H+  H309  1  0.85188031  0.62659314  0.48450385  1
  H+  H310  1  0.41772047  0.82929891  0.60525278  1
  H+  H311  1  0.58834772  0.67982900  0.80254031  1
  H+  H312  1  0.91259440  0.07791654  0.58727239  1
  H+  H313  1  0.86810554  0.89675184  0.66986199  1
  H+  H314  1  0.11340055  0.03466636  0.23942533  1
  H+  H315  1  0.41653765  0.21680402  0.10705048  1
  H+  H316  1  0.61810572  0.08489235  0.65673425  1
  H+  H317  1  0.73923704  0.37114009  0.67393774  1
  H+  H318  1  0.14236365  0.30207998  0.18543097  1
  H+  H319  1  0.85726847  0.74798738  0.16028882  1
  H+  H320  1  0.56203284  0.15031413  0.06047284  1
  H+  H321  1  0.60065060  0.91530598  0.07591055  1
  H+  H322  1  0.41333719  0.33444740  0.88922022  1
  H+  H323  1  0.66035061  0.32364250  0.58480232  1
  H+  H324  1  0.93073242  0.56167270  0.58429493  1
  H+  H325  1  0.05041379  0.08534015  0.07143923  1
  H+  H326  1  0.40742371  0.07358272  0.60323790  1
  H+  H327  1  0.41134695  0.58804624  0.22019321  1
  H+  H328  1  0.42932644  0.84162907  0.19590058  1
  H+  H329  1  0.56486501  0.89655048  0.75039144  1
  H+  H330  1  0.32740210  0.16397547  0.75804967  1
  H+  H331  1  0.81926748  0.16133718  0.44148796  1
  H+  H332  1  0.56038390  0.63216268  0.71689036  1
  H+  H333  1  0.58813024  0.66906161  0.07101385  1
  H+  H334  1  0.09997580  0.18911615  0.44113605  1
  H+  H335  1  0.06381662  0.87540951  0.08172054  1
  H+  H336  1  0.84358045  0.17844819  0.72846906  1
  H+  H337  1  0.32805234  0.40147133  0.44644016  1
  H+  H338  1  0.81874895  0.88194207  0.06269308  1
  H+  H339  1  0.87713521  0.28915338  0.00995016  1
  H+  H340  1  0.02206163  0.39078334  0.49324695  1
  H+  H341  1  0.32404157  0.65472796  0.45215640  1
  H+  H342  1  0.88027114  0.02196379  0.64940482  1
  H+  H343  1  0.33964739  0.70080945  0.35985632  1
  H+  H344  1  0.63636125  0.11514803  0.84232167  1
  H+  H345  1  0.71781353  0.85696634  0.66291779  1
  H+  H346  1  0.07277147  0.41487272  0.07007787  1
  H+  H347  1  0.83917021  0.43777802  0.77168986  1
  H+  H348  1  0.56593120  0.66131539  0.43008087  1
  H+  H349  1  0.32478873  0.41672883  0.09797354  1
  H+  H350  1  0.51974138  0.63026818  0.16190692  1
  H+  H351  1  0.59261162  0.41209582  0.09178111  1
  H+  H352  1  0.13226395  0.70534034  0.50466760  1
  H+  H353  1  0.06160663  0.63483604  0.79291102  1
  H+  H354  1  0.65825462  0.06604231  0.56531862  1
  H+  H355  1  0.60925857  0.37202436  -0.00062768  1
  H+  H356  1  0.29268085  0.12300761  0.06620988  1
  H+  H357  1  0.58469095  0.17323835  0.44152379  1
  H+  H358  1  0.40289727  0.57656186  0.90574832  1
  H+  H359  1  0.40199359  0.57616502  0.59794696  1
  H+  H360  1  0.38745249  0.76930400  1.00735327  1
  H+  H361  1  0.92087038  0.06389238  0.21211857  1
  H+  H362  1  0.05296501  0.14070447  0.71628086  1
  H+  H363  1  0.34214310  0.92526727  0.06208101  1
  H+  H364  1  0.82536424  0.18174169  0.07951504  1
  H+  H365  1  0.84304218  0.43538142  0.06589325  1
  H+  H366  1  0.38493399  0.02549338  0.50703784  1
  H+  H367  1  0.12856523  0.08165969  0.23403760  1
  H+  H368  1  0.18063279  0.36835514  0.27165164  1
  H+  H369  1  0.93469464  0.61901373  0.21630221  1
  H+  H370  1  0.64974236  0.56094108  0.23879379  1
  H+  H371  1  0.14014774  0.20918058  0.77833052  1
  H+  H372  1  0.92059373  0.34321761  0.60309645  1
  H+  H373  1  0.02080499  0.89335480  0.72420618  1
  H+  H374  1  0.42290473  0.10100601  0.89564634  1
  H+  H375  1  0.65903364  0.58122138  0.59786815  1
  H+  H376  1  0.40074698  0.33808515  0.27515226  1
  H+  H377  1  0.61142646  0.80347685  0.57254626  1
  H+  H378  1  0.82597971  0.40980145  0.42828465  1
  H+  H379  1  0.58653844  0.16328473  0.76843720  1
  H+  H380  1  0.35174786  0.18799655  0.44930735  1
  H+  H381  1  0.92543767  0.34013231  0.25792322  1
  H+  H382  1  0.09234992  0.69297780  0.70759915  1
  H+  H383  1  0.69411262  0.60537963  0.90663801  1
  O2-  O384  1  0.03268083  0.04351220  0.10739979  1
  O2-  O385  1  0.09215986  0.18099639  0.48557431  1
  O2-  O386  1  0.11508212  0.18477281  0.81775047  1
  O2-  O387  1  0.06850134  0.41600996  0.14754888  1
  O2-  O388  1  0.08375249  0.42569359  0.47926919  1
  O2-  O389  1  0.07965258  0.44310029  0.81731710  1
  O2-  O390  1  0.09428685  0.67998454  0.11810925  1
  O2-  O391  1  0.12016687  0.73893335  0.47505028  1
  O2-  O392  1  0.07299381  0.65409271  0.83491922  1
  O2-  O393  1  0.05292235  0.87338196  0.16529395  1
  O2-  O394  1  0.08640182  0.91886886  0.46932773  1
  O2-  O395  1  0.03570837  0.89744973  0.80211660  1
  O2-  O396  1  0.44914175  0.23935934  0.14665852  1
  O2-  O397  1  0.34854486  0.18350905  0.49494401  1
  O2-  O398  1  0.33231485  0.17053611  0.80272314  1
  O2-  O399  1  0.32852289  0.42431212  0.14387218  1
  O2-  O400  1  0.32515052  0.40114352  0.49105048  1
  O2-  O401  1  0.34556452  0.42349672  0.80097845  1
  O2-  O402  1  0.32584544  0.66567356  0.11431818  1
  O2-  O403  1  0.32541906  0.65648441  0.49643153  1
  O2-  O404  1  0.32806190  0.66404942  0.81313309  1
  O2-  O405  1  0.34885256  0.93815861  0.14078415  1
  O2-  O406  1  0.33771738  0.92117688  0.47776785  1
  O2-  O407  1  0.31303245  0.89362188  0.79856636  1
  O2-  O408  1  0.52274823  0.11078202  0.13678231  1
  O2-  O409  1  0.58298755  0.16274237  0.48598929  1
  O2-  O410  1  0.59308647  0.17243541  0.81294483  1
  O2-  O411  1  0.59123982  0.40486741  0.13729830  1
  O2-  O412  1  0.59227828  0.41850180  0.47013529  1
  O2-  O413  1  0.59535510  0.43723326  0.82006582  1
  O2-  O414  1  0.58311789  0.65352042  0.15101112  1
  O2-  O415  1  0.56058295  0.65367838  0.47481333  1
  O2-  O416  1  0.59167493  0.67985862  0.84674259  1
  O2-  O417  1  0.62174724  0.91546082  0.15658959  1
  O2-  O418  1  0.56826182  0.91156943  0.47723376  1
  O2-  O419  1  0.56756568  0.90753159  0.81056594  1
  O2-  O420  1  0.84008571  0.16375598  0.14846835  1
  O2-  O421  1  0.83036112  0.16428249  0.48533484  1
  O2-  O422  1  0.83185121  0.16865059  0.80940531  1
  O2-  O423  1  0.86317336  0.44624424  0.14284403  1
  O2-  O424  1  0.82977990  0.40755237  0.47351625  1
  O2-  O425  1  0.83638635  0.43656427  0.81682638  1
  O2-  O426  1  0.82678560  0.66047247  0.11460428  1
  O2-  O427  1  0.89101243  0.66780561  0.51412126  1
  O2-  O428  1  0.85429230  0.69308270  0.81202608  1
  O2-  O429  1  0.81265189  0.89385256  0.13523579  1
  O2-  O430  1  0.89905122  0.94540639  0.44310794  1
  O2-  O431  1  0.86111082  0.93198940  0.80734570  1
  O2-  O432  1  0.17220929  0.04641125  0.11306170  1
  O2-  O433  1  0.16355935  0.08976281  0.51410671  1
  O2-  O434  1  0.16206366  0.06058352  0.84421771  1
  O2-  O435  1  0.16979038  0.36330564  0.19600748  1
  O2-  O436  1  0.16581416  0.34241868  0.52347765  1
  O2-  O437  1  0.19401715  0.35590630  0.86148423  1
  O2-  O438  1  0.16065712  0.58800580  0.17413434  1
  O2-  O439  1  0.16330225  0.57622724  0.53255766  1
  O2-  O440  1  0.17076397  0.59124008  0.86763937  1
  O2-  O441  1  0.17211435  0.83061768  0.18819257  1
  O2-  O442  1  0.16774472  0.82823567  0.49926344  1
  O2-  O443  1  0.16766489  0.83147722  0.86594640  1
  O2-  O444  1  0.30296319  0.06566985  0.18441432  1
  O2-  O445  1  0.41546021  0.08501438  0.52414363  1
  O2-  O446  1  0.43773620  0.11143405  0.85201007  1
  O2-  O447  1  0.40948481  0.35451727  0.19962307  1
  O2-  O448  1  0.38607071  0.31704246  0.55238403  1
  O2-  O449  1  0.42255550  0.33952529  0.84385227  1
  O2-  O450  1  0.41868911  0.59068062  0.17553875  1
  O2-  O451  1  0.40189426  0.57014091  0.52134005  1
  O2-  O452  1  0.41197612  0.58318561  0.86108181  1
  O2-  O453  1  0.42179243  0.84549807  0.15111723  1
  O2-  O454  1  0.41127811  0.83362459  0.52794563  1
  O2-  O455  1  0.41682480  0.82627424  0.85748523  1
  O2-  O456  1  0.66279543  0.08447383  0.17982713  1
  O2-  O457  1  0.66567359  0.07348435  0.51937954  1
  O2-  O458  1  0.66278543  0.08103364  0.85867544  1
  O2-  O459  1  0.69874822  0.35594109  0.18645608  1
  O2-  O460  1  0.65367546  0.32158141  0.53981375  1
  O2-  O461  1  0.66772375  0.33841885  0.85089976  1
  O2-  O462  1  0.64656634  0.55850970  0.19006751  1
  O2-  O463  1  0.63922219  0.57501218  0.51754899  1
  O2-  O464  1  0.68243624  0.60313111  0.86250672  1
  O2-  O465  1  0.68179481  0.90260581  0.19508978  1
  O2-  O466  1  0.57420710  0.78244111  0.53650494  1
  O2-  O467  1  0.68090794  0.85355465  0.83833499  1
  O2-  O468  1  0.91834081  0.06440237  0.16709302  1
  O2-  O469  1  0.92198348  0.08340147  0.51127775  1
  O2-  O470  1  0.94449015  0.10123482  0.82911039  1
  O2-  O471  1  0.91020516  0.32059385  0.19749965  1
  O2-  O472  1  0.92071193  0.33483534  0.52030465  1
  O2-  O473  1  0.91593912  0.34072895  0.85257398  1
  O2-  O474  1  0.93525338  0.61557472  0.17141731  1
  O2-  O475  1  0.97050233  0.55604792  0.51536057  1
  O2-  O476  1  0.90992174  0.59462944  0.87174152  1
  O2-  O477  1  0.88440495  0.80529168  0.18153837  1
  O2-  O478  1  0.93155118  0.83991820  0.52400132  1
  O2-  O479  1  0.95674974  0.86323701  0.83922576  1
  O2-  O480  1  0.17677912  0.08859718  0.36004669  1
  O2-  O481  1  0.14116702  0.05895703  0.65109912  1
  O2-  O482  1  0.20603573  0.10645145  0.96180543  1
  O2-  O483  1  0.18534978  0.36807173  0.31738710  1
  O2-  O484  1  0.15972092  0.33307083  0.64676926  1
  O2-  O485  1  0.16536877  0.35854094  0.97354856  1
  O2-  O486  1  0.16307691  0.59617980  0.30056479  1
  O2-  O487  1  0.16248693  0.57752605  0.64311282  1
  O2-  O488  1  0.17320366  0.59310511  1.00003099  1
  O2-  O489  1  0.16757467  0.83145073  0.30391752  1
  O2-  O490  1  0.17114470  0.82819538  0.61270922  1
  O2-  O491  1  0.16601832  0.81749758  0.99983176  1
  O2-  O492  1  0.41542401  0.09622786  0.32940224  1
  O2-  O493  1  0.40369368  0.07297095  0.64859134  1
  O2-  O494  1  0.40761806  0.08441422  0.97760575  1
  O2-  O495  1  0.40341970  0.33849403  0.32086875  1
  O2-  O496  1  0.32988347  0.28474564  0.60634552  1
  O2-  O497  1  0.39975126  0.32633839  0.96433678  1
  O2-  O498  1  0.40664307  0.57249640  0.30716529  1
  O2-  O499  1  0.40349945  0.57746531  0.64346267  1
  O2-  O500  1  0.41296800  0.58103045  0.98908971  1
  O2-  O501  1  0.42444006  0.83620871  0.27231471  1
  O2-  O502  1  0.41787254  0.82622995  0.65096720  1
  O2-  O503  1  0.41798388  0.82554828  0.98646279  1
  O2-  O504  1  0.62177030  0.08082213  0.30167245  1
  O2-  O505  1  0.64770848  0.05687636  0.63763756  1
  O2-  O506  1  0.65255033  0.07246488  0.98224607  1
  O2-  O507  1  0.66894925  0.34499956  0.31249395  1
  O2-  O508  1  0.67441333  0.33666293  0.66490492  1
  O2-  O509  1  0.66743001  0.33038957  0.97828757  1
  O2-  O510  1  0.65230351  0.57006622  0.30342760  1
  O2-  O511  1  0.66836374  0.59127017  0.64222249  1
  O2-  O512  1  0.70664611  0.62725397  0.99055481  1
  O2-  O513  1  0.64804071  0.81446608  0.30256777  1
  O2-  O514  1  0.65436655  0.82557066  0.65556251  1
  O2-  O515  1  0.65939526  0.82849641  0.98744938  1
  O2-  O516  1  0.92357550  0.05127995  0.29160732  1
  O2-  O517  1  0.91468166  0.08139862  0.63299974  1
  O2-  O518  1  0.96031664  0.14033971  0.95430968  1
  O2-  O519  1  0.93585379  0.35837227  0.30731938  1
  O2-  O520  1  0.92233429  0.34681537  0.64818008  1
  O2-  O521  1  0.91276148  0.34938359  0.99320041  1
  O2-  O522  1  0.92121057  0.59814480  0.30553696  1
  O2-  O523  1  0.90114725  0.57367121  0.61847771  1
  O2-  O524  1  0.91871465  0.59872011  0.99494011  1
  O2-  O525  1  0.89424074  0.81492168  0.30563192  1
  O2-  O526  1  0.94205084  0.86255654  0.65184484  1
  O2-  O527  1  0.96004761  0.84963103  0.96731683  1
  O2-  O528  1  0.09334351  0.15497054  0.02197779  1
  O2-  O529  1  0.11969973  0.20633364  0.36019463  1
  O2-  O530  1  0.06798901  0.14928742  0.67320110  1
  O2-  O531  1  0.07100518  0.42010171  0.02462036  1
  O2-  O532  1  0.09499714  0.43964101  0.35331928  1
  O2-  O533  1  0.08494798  0.42624878  0.68623235  1
  O2-  O534  1  0.08677369  0.67110348  0.04997174  1
  O2-  O535  1  0.09911503  0.68696145  0.35256262  1
  O2-  O536  1  0.07921440  0.67076290  0.66625343  1
  O2-  O537  1  0.09200543  0.90422475  0.04333377  1
  O2-  O538  1  0.05059610  0.85089006  0.36102992  1
  O2-  O539  1  0.02899271  0.89695306  0.67861942  1
  O2-  O540  1  0.34898961  0.16435421  0.04956339  1
  O2-  O541  1  0.34354824  0.17894487  0.37294540  1
  O2-  O542  1  0.30319530  0.13995796  0.67510924  1
  O2-  O543  1  0.32556865  0.41308556  0.02337670  1
  O2-  O544  1  0.33770812  0.42871526  0.35612028  1
  O2-  O545  1  0.32839391  0.40813955  0.67735515  1
  O2-  O546  1  0.33189986  0.66147698  0.04712560  1
  O2-  O547  1  0.32983497  0.66626683  0.32344424  1
  O2-  O548  1  0.32151049  0.65904944  0.68803948  1
  O2-  O549  1  0.33589830  0.91727544  0.01699536  1
  O2-  O550  1  0.34906216  0.94410444  0.35908219  1
  O2-  O551  1  0.31844322  0.90642048  0.68025060  1
  O2-  O552  1  0.57596761  0.16434709  0.01684379  1
  O2-  O553  1  0.57675438  0.18476627  0.36099542  1
  O2-  O554  1  0.56937856  0.14316230  0.68528964  1
  O2-  O555  1  0.57421921  0.39755231  0.01622407  1
  O2-  O556  1  0.57080135  0.41287119  0.34875051  1
  O2-  O557  1  0.59611014  0.44004008  0.69283065  1
  O2-  O558  1  0.58995681  0.67393035  0.02580995  1
  O2-  O559  1  0.56660890  0.65369036  0.34593432  1
  O2-  O560  1  0.57360225  0.65309239  0.67529534  1
  O2-  O561  1  0.59312023  0.91274030  0.03097298  1
  O2-  O562  1  0.57236669  0.89585857  0.35034735  1
  O2-  O563  1  0.56641465  0.89090468  0.69978223  1
  O2-  O564  1  0.81875918  0.18927475  0.03393864  1
  O2-  O565  1  0.76965867  0.11463075  0.35983878  1
  O2-  O566  1  0.85252278  0.18835541  0.68409464  1
  O2-  O567  1  0.83893648  0.43188743  0.02050277  1
  O2-  O568  1  0.83631374  0.42392220  0.34859641  1
  O2-  O569  1  0.83753769  0.42657395  0.68899881  1
  O2-  O570  1  0.85497101  0.69360648  0.05180054  1
  O2-  O571  1  0.80770482  0.66267453  0.35472858  1
  O2-  O572  1  0.84471195  0.70225634  0.68304931  1
  O2-  O573  1  0.81672554  0.87507177  0.01664166  1
  O2-  O574  1  0.81039927  0.89279589  0.34512156  1
  O2-  O575  1  0.82935096  0.91845383  0.68325591  1
