# generated using pymatgen
data_H2O
_symmetry_space_group_name_H-M   'P 1'
_cell_length_a   17.98929021
_cell_length_b   17.98762134
_cell_length_c   22.00658560
_cell_angle_alpha   89.99997487
_cell_angle_beta   90.01554268
_cell_angle_gamma   119.99088265
_symmetry_Int_Tables_number   1
_chemical_formula_structural   H2O
_chemical_formula_sum   'H384 O192'
_cell_volume   6167.52520189
_cell_formula_units_Z   192
loop_
 _symmetry_equiv_pos_site_id
 _symmetry_equiv_pos_as_xyz
  1  'x, y, z'
loop_
 _atom_type_symbol
 _atom_type_oxidation_number
  H+  1.0
  O2-  -2.0
loop_
 _atom_site_type_symbol
 _atom_site_label
 _atom_site_symmetry_multiplicity
 _atom_site_fract_x
 _atom_site_fract_y
 _atom_site_fract_z
 _atom_site_occupancy
  H+  H0  1  1.01304331  0.62852083  0.66884716  1
  H+  H1  1  0.78201864  0.65297251  0.32294658  1
  H+  H2  1  0.66254192  0.30170499  0.48695880  1
  H+  H3  1  0.61472036  0.10271085  0.00388057  1
  H+  H4  1  0.40832111  0.76539880  0.82307951  1
  H+  H5  1  0.63931452  0.23504578  0.83188498  1
  H+  H6  1  0.81217643  0.66011728  0.07594673  1
  H+  H7  1  0.62705156  0.61549219  0.16196066  1
  H+  H8  1  0.12804703  0.77930890  0.16667641  1
  H+  H9  1  0.85421690  0.38254808  0.16057207  1
  H+  H10  1  0.36265983  0.38919105  0.49414664  1
  H+  H11  1  0.38526039  0.53549030  0.17984274  1
  H+  H12  1  0.47885576  0.12270701  0.17660324  1
  H+  H13  1  0.09901666  0.38295412  0.15858312  1
  H+  H14  1  0.89796103  0.11428601  0.67396539  1
  H+  H15  1  0.53501613  0.62080601  0.86304601  1
  H+  H16  1  1.00975197  0.14707429  0.33315146  1
  H+  H17  1  0.78521056  0.63677336  0.82411519  1
  H+  H18  1  0.11749438  0.73175339  1.00780371  1
  H+  H19  1  0.97105120  0.36558120  0.64808629  1
  H+  H20  1  0.78309833  0.89355320  0.83012788  1
  H+  H21  1  0.63576371  0.35447593  0.83641646  1
  H+  H22  1  0.73903638  0.07723890  0.35809032  1
  H+  H23  1  0.44568034  0.61394451  0.49940269  1
  H+  H24  1  0.17969862  0.36706538  0.85420389  1
  H+  H25  1  0.84951075  0.21610752  0.31835785  1
  H+  H26  1  0.11407591  0.89443849  0.49985306  1
  H+  H27  1  0.63873145  0.11040122  0.66310604  1
  H+  H28  1  0.26901105  0.91163659  0.29419925  1
  H+  H29  1  0.02816322  0.88445358  0.83552724  1
  H+  H30  1  0.48104847  0.35183764  0.66115190  1
  H+  H31  1  0.85627702  0.37369572  0.66819915  1
  H+  H32  1  0.36658389  0.87566884  0.82340046  1
  H+  H33  1  0.72477546  0.86933794  0.16807785  1
  H+  H34  1  0.27753931  0.13054353  0.67506855  1
  H+  H35  1  0.88292257  0.60742340  0.17023470  1
  H+  H36  1  0.14220886  0.86411384  0.84414972  1
  H+  H37  1  0.59070703  0.88251577  0.67012936  1
  H+  H38  1  0.34574866  0.22911189  0.35182824  1
  H+  H39  1  0.63319629  0.78054551  0.17086783  1
  H+  H40  1  0.48869289  0.59946707  0.66327614  1
  H+  H41  1  0.36677050  0.62091594  0.65209247  1
  H+  H42  1  0.56792803  0.40726941  0.06702514  1
  H+  H43  1  0.35882331  0.66557491  0.48711898  1
  H+  H44  1  0.59007044  0.46455341  1.00633443  1
  H+  H45  1  0.14312757  0.02205236  0.67035054  1
  H+  H46  1  0.90343965  0.77588520  0.00047486  1
  H+  H47  1  0.13407092  0.62319913  0.83587795  1
  H+  H48  1  0.91028733  0.78571450  0.51781304  1
  H+  H49  1  0.12604768  0.26423662  0.99355669  1
  H+  H50  1  0.59817496  0.46211697  0.47855714  1
  H+  H51  1  0.61222920  0.23148598  0.16036938  1
  H+  H52  1  0.86149967  0.88314310  0.51586011  1
  H+  H53  1  0.90353764  0.14315747  0.29963735  1
  H+  H54  1  0.52316736  0.36850398  0.82176234  1
  H+  H55  1  0.81719466  0.65982731  0.34480148  1
  H+  H56  1  0.15802409  0.13136605  0.51803950  1
  H+  H57  1  0.60433564  0.38509482  0.16038436  1
  H+  H58  1  0.88199292  0.35770185  -0.01195995  1
  H+  H59  1  0.83437999  0.43664101  0.43862045  1
  H+  H60  1  0.59597248  0.48747123  0.33404039  1
  H+  H61  1  0.72834459  0.12221825  0.17776173  1
  H+  H62  1  0.41547405  0.94575918  0.04033861  1
  H+  H63  1  0.13538338  0.90654328  -0.01396917  1
  H+  H64  1  0.02680357  0.63559961  0.83881319  1
  H+  H65  1  0.11517305  -0.02551217  0.83482327  1
  H+  H66  1  0.38932495  0.77463006  0.17125324  1
  H+  H67  1  0.67939291  0.62267480  0.49629704  1
  H+  H68  1  0.82443284  0.40894730  0.09908665  1
  H+  H69  1  0.61402608  0.89454287  0.16511787  1
  H+  H70  1  0.61821906  -0.01023278  0.67591534  1
  H+  H71  1  0.87082548  0.51259319  0.66579778  1
  H+  H72  1  0.22612917  0.12988628  0.18206485  1
  H+  H73  1  0.94980878  0.13597855  1.02827137  1
  H+  H74  1  0.27559824  0.66850499  0.49548664  1
  H+  H75  1  0.12299009  0.22995315  0.67194581  1
  H+  H76  1  0.13679750  0.12900545  0.17929105  1
  H+  H77  1  0.12177592  0.35447337  0.65193402  1
  H+  H78  1  0.52087560  0.88019557  0.82549803  1
  H+  H79  1  0.62290597  0.74638177  1.00862254  1
  H+  H80  1  1.02410188  0.43263913  0.32504828  1
  H+  H81  1  0.09468463  0.45989477  0.99685348  1
  H+  H82  1  0.32019567  0.65629496  0.05507919  1
  H+  H83  1  0.13764942  0.53805804  0.50376134  1
  H+  H84  1  0.76861982  0.88394047  -0.00765128  1
  H+  H85  1  0.30360119  0.61622688  0.32903891  1
  H+  H86  1  0.13359933  0.11055343  0.83743160  1
  H+  H87  1  0.79649729  0.14166178  0.81534679  1
  H+  H88  1  0.47254699  0.34825254  0.99460116  1
  H+  H89  1  0.87289808  0.22913322  0.34868277  1
  H+  H90  1  0.26072457  0.35852470  0.84606941  1
  H+  H91  1  0.12796144  0.14142800  0.67664703  1
  H+  H92  1  0.21371374  0.36694048  0.66098685  1
  H+  H93  1  0.10315564  0.41213024  0.33102728  1
  H+  H94  1  0.27480518  0.38948745  1.02399300  1
  H+  H95  1  0.03048543  0.88899921  0.68014299  1
  H+  H96  1  0.71473679  0.82154355  0.52905174  1
  H+  H97  1  0.80122151  0.90170805  0.67141604  1
  H+  H98  1  0.85973147  0.63331714  0.67802441  1
  H+  H99  1  0.38978975  0.03664549  0.18879004  1
  H+  H100  1  0.61302536  0.45697657  0.81470075  1
  H+  H101  1  0.76435728  0.37415248  0.82282333  1
  H+  H102  1  0.33456890  0.90919922  0.76807842  1
  H+  H103  1  0.90925005  0.34263692  0.32550782  1
  H+  H104  1  0.61630415  0.38601495  0.49501604  1
  H+  H105  1  0.87831478  0.49489849  0.50416963  1
  H+  H106  1  0.49759912  0.65437186  0.33059305  1
  H+  H107  1  0.36944412  0.65079487  0.15052233  1
  H+  H108  1  0.85383809  0.40767810  0.33872677  1
  H+  H109  1  0.89299574  0.86428480  0.84733741  1
  H+  H110  1  0.63118190  0.27162462  0.99380389  1
  H+  H111  1  0.15607243  0.54678245  0.32553832  1
  H+  H112  1  0.51562479  0.38620744  0.16319412  1
  H+  H113  1  0.47697973  0.86416512  0.18340436  1
  H+  H114  1  0.46613257  0.09278819  0.51057767  1
  H+  H115  1  0.38402872  0.38646198  0.33079925  1
  H+  H116  1  0.37659486  0.02695379  1.00573513  1
  H+  H117  1  0.36283918  0.49419851  0.34027796  1
  H+  H118  1  0.10621897  0.49509417  0.81663731  1
  H+  H119  1  0.60454466  0.88808800  0.33827895  1
  H+  H120  1  0.56754501  0.13663690  0.83399438  1
  H+  H121  1  0.90124495  0.57025037  0.60550634  1
  H+  H122  1  0.41154561  0.61882517  0.83420847  1
  H+  H123  1  0.10102286  0.63573087  0.00251203  1
  H+  H124  1  0.02052815  0.40557091  0.48344309  1
  H+  H125  1  0.91063367  0.33123674  0.89506458  1
  H+  H126  1  0.14004455  0.62709104  0.51130040  1
  H+  H127  1  0.86179227  0.47503939  0.00655802  1
  H+  H128  1  -0.01108684  0.11859831  0.68544936  1
  H+  H129  1  0.89426414  0.02462503  0.82982653  1
  H+  H130  1  0.84099495  0.48563630  0.34285342  1
  H+  H131  1  -0.10156579  0.61990007  0.84421122  1
  H+  H132  1  0.86193193  0.22826612  0.65710034  1
  H+  H133  1  0.11787396  0.91127626  0.13549160  1
  H+  H134  1  0.90896183  0.99190271  0.01920280  1
  H+  H135  1  0.69829587  0.60661709  0.98959538  1
  H+  H136  1  0.10279119  0.63054514  0.66465491  1
  H+  H137  1  0.67685237  0.13033156  0.84481416  1
  H+  H138  1  0.22912054  0.85905303  0.83939838  1
  H+  H139  1  0.34658941  0.13386197  0.00937884  1
  H+  H140  1  0.43999386  0.09191631  0.84063991  1
  H+  H141  1  0.58599280  0.16390395  0.40671814  1
  H+  H142  1  0.72006129  0.36401319  0.17264666  1
  H+  H143  1  0.13413370  0.85806130  0.66316214  1
  H+  H144  1  0.27432574  0.39645793  0.17195200  1
  H+  H145  1  0.16044530  0.34228225  0.23586352  1
  H+  H146  1  0.89033136  0.77356357  0.84381013  1
  H+  H147  1  0.38722794  0.26264824  0.83834589  1
  H+  H148  1  0.77820423  0.13115247  0.01569969  1
  H+  H149  1  0.90090831  0.86601042  0.66751759  1
  H+  H150  1  0.56563772  0.68735335  0.67265343  1
  H+  H151  1  0.09512981  0.40213475  0.81131282  1
  H+  H152  1  0.22353608  0.11326439  0.83733095  1
  H+  H153  1  0.38592493  0.25507626  0.66358185  1
  H+  H154  1  0.47129930  0.35377772  0.51581648  1
  H+  H155  1  0.47950047  0.10861952  0.66209288  1
  H+  H156  1  0.72933270  0.11045195  0.65985365  1
  H+  H157  1  0.87362366  0.02708139  0.53032102  1
  H+  H158  1  0.10693399  0.37690103  0.00068426  1
  H+  H159  1  0.89570760  0.88096595  0.30351530  1
  H+  H160  1  0.78788196  0.71541119  0.03438686  1
  H+  H161  1  0.57105457  0.33488694  0.34321521  1
  H+  H162  1  0.05331195  0.64258878  0.33095441  1
  H+  H163  1  0.34781205  0.74061748  0.67917116  1
  H+  H164  1  0.13072449  0.78183195  0.50940872  1
  H+  H165  1  0.55158220  0.60901138  0.46429661  1
  H+  H166  1  0.45304871  0.71305544  0.77555866  1
  H+  H167  1  0.88555405  0.11387138  0.17531799  1
  H+  H168  1  0.36064412  0.89117414  0.17652268  1
  H+  H169  1  0.33199319  0.69952131  0.99119643  1
  H+  H170  1  0.64316384  0.59158420  0.84556797  1
  H+  H171  1  0.24084095  0.12090380  0.51488069  1
  H+  H172  1  0.36274633  0.52210879  0.50087547  1
  H+  H173  1  0.40417220  0.73682688  0.32163810  1
  H+  H174  1  0.64079449  0.85151502  0.83987304  1
  H+  H175  1  0.89984399  0.12228010  0.82228381  1
  H+  H176  1  0.91977894  0.64092317  0.36333244  1
  H+  H177  1  0.21615440  0.12251245  0.33530180  1
  H+  H178  1  0.62683066  0.70693069  0.86251553  1
  H+  H179  1  0.61720228  0.22349591  0.66814755  1
  H+  H180  1  0.34438551  0.11987807  0.82840438  1
  H+  H181  1  0.73240627  0.11767820  0.89650463  1
  H+  H182  1  0.10951746  0.47763787  0.65976069  1
  H+  H183  1  0.59293691  0.19169909  0.52271917  1
  H+  H184  1  0.01630197  0.14009527  0.16752344  1
  H+  H185  1  0.71137201  0.36544081  0.33035305  1
  H+  H186  1  0.38226838  0.37314880  0.18163644  1
  H+  H187  1  0.86644410  0.00217968  0.31545182  1
  H+  H188  1  0.34457605  0.42399567  0.77201702  1
  H+  H189  1  0.61017694  0.13220390  0.34566005  1
  H+  H190  1  0.95744918  0.11210040  0.51218248  1
  H+  H191  1  0.33446989  0.49503915  0.67663180  1
  H+  H192  1  0.14100736  1.03396232  -0.01537517  1
  H+  H193  1  0.37272484  0.25025087  0.99499157  1
  H+  H194  1  0.59131342  0.74582997  0.33273128  1
  H+  H195  1  0.57600780  0.16823064  0.06904133  1
  H+  H196  1  0.12110623  0.98692938  0.50085408  1
  H+  H197  1  0.77250550  0.38667447  1.00235925  1
  H+  H198  1  0.63408712  0.26813820  0.32933131  1
  H+  H199  1  0.59639158  0.95794765  0.48715535  1
  H+  H200  1  0.88042462  0.23371574  0.81728027  1
  H+  H201  1  0.56423438  0.86663898  0.01900854  1
  H+  H202  1  0.39779165  0.35749675  0.83975899  1
  H+  H203  1  0.86394134  0.72442921  0.67613898  1
  H+  H204  1  0.12540143  0.28778940  0.33174462  1
  H+  H205  1  0.38340605  0.26445356  0.51427651  1
  H+  H206  1  0.02333431  0.63085312  0.15994067  1
  H+  H207  1  0.63845434  0.03302232  0.17653613  1
  H+  H208  1  -0.00734253  0.12016268  0.82761487  1
  H+  H209  1  0.12317766  0.22574313  0.82801365  1
  H+  H210  1  0.87496460  0.84666537  0.16720604  1
  H+  H211  1  0.63091111  0.35165949  0.65205028  1
  H+  H212  1  0.61280083  0.01205085  0.32575379  1
  H+  H213  1  0.22104163  0.61365098  0.66162899  1
  H+  H214  1  0.72404363  0.87855971  0.31722876  1
  H+  H215  1  0.60231540  0.64990168  0.01210669  1
  H+  H216  1  0.65714184  0.81503334  0.67404403  1
  H+  H217  1  0.97034469  0.37315836  0.83460483  1
  H+  H218  1  0.76338424  0.36959554  0.66990700  1
  H+  H219  1  0.11660082  0.72609145  0.83631180  1
  H+  H220  1  0.95194707  0.50696731  0.29774559  1
  H+  H221  1  0.87512618  0.27467737  0.50015836  1
  H+  H222  1  0.62415972  0.52421969  0.16469731  1
  H+  H223  1  0.44099410  0.84372709  0.99037054  1
  H+  H224  1  0.48064612  0.13446892  0.33521722  1
  H+  H225  1  0.38442904  0.47982993  0.83194859  1
  H+  H226  1  0.19386337  0.64775803  0.33262516  1
  H+  H227  1  0.57962866  0.96246102  0.01436996  1
  H+  H228  1  0.25843105  0.88149568  0.50952840  1
  H+  H229  1  0.61848658  0.49927837  0.36408855  1
  H+  H230  1  0.33544363  0.42691355  0.11327723  1
  H+  H231  1  0.38394845  0.83732229  0.52190096  1
  H+  H232  1  0.61477833  -0.03283551  0.82919371  1
  H+  H233  1  0.65827265  0.08052967  0.27135342  1
  H+  H234  1  0.10904926  -0.00845652  0.34523157  1
  H+  H235  1  0.62058214  0.74029981  0.51245103  1
  H+  H236  1  0.13236680  0.25230499  0.50350334  1
  H+  H237  1  0.97936175  0.87636111  0.31844514  1
  H+  H238  1  0.15341613  0.62775432  0.17418371  1
  H+  H239  1  0.36551897  0.14856227  0.16672346  1
  H+  H240  1  0.51310751  0.13848939  0.01044301  1
  H+  H241  1  0.71793006  0.10330952  0.51128784  1
  H+  H242  1  0.74810055  0.38996731  0.50274933  1
  H+  H243  1  0.36520205  0.12953475  0.49970936  1
  H+  H244  1  0.87833625  0.36638083  0.50067897  1
  H+  H245  1  0.97606933  0.62184415  1.00377432  1
  H+  H246  1  0.27281306  0.89293409  0.16938003  1
  H+  H247  1  0.86083987  0.97671856  0.16212429  1
  H+  H248  1  0.02671487  0.64299805  0.49134516  1
  H+  H249  1  0.22371317  0.61607645  0.83393900  1
  H+  H250  1  0.04763388  0.08307752  0.46607763  1
  H+  H251  1  0.13797791  0.79550983  0.31858410  1
  H+  H252  1  0.12467673  0.76477866  0.65515814  1
  H+  H253  1  0.85653075  0.71915445  0.15944069  1
  H+  H254  1  0.51680543  0.64672186  0.16509640  1
  H+  H255  1  0.62997730  0.35955008  0.99345496  1
  H+  H256  1  0.48380965  0.84586710  0.33022833  1
  H+  H257  1  0.04563907  0.90148405  -0.01190691  1
  H+  H258  1  0.88499830  0.98982171  0.68980270  1
  H+  H259  1  0.69762118  0.69402798  0.54374915  1
  H+  H260  1  0.72949311  0.58900991  0.66294249  1
  H+  H261  1  0.81751290  0.65745633  0.51145256  1
  H+  H262  1  0.56272334  0.90456062  0.40062331  1
  H+  H263  1  0.28298892  0.65451570  0.15263210  1
  H+  H264  1  0.12690200  0.87865243  0.32234177  1
  H+  H265  1  0.34124995  0.92450316  0.08667632  1
  H+  H266  1  0.85656197  0.37091107  0.82163940  1
  H+  H267  1  0.13487917  0.28204419  0.17693758  1
  H+  H268  1  0.86210317  0.23399325  0.16958783  1
  H+  H269  1  0.35251365  0.83847034  0.98290769  1
  H+  H270  1  0.62235364  0.64681976  0.31249795  1
  H+  H271  1  0.85023399  0.13783895  0.50854042  1
  H+  H272  1  0.40743408  0.60061253  0.23562088  1
  H+  H273  1  0.21573909  0.37510286  0.33170210  1
  H+  H274  1  0.26863888  0.37435732  0.48980488  1
  H+  H275  1  0.61433678  0.14310601  0.16126717  1
  H+  H276  1  0.35947136  0.47958558  0.01810485  1
  H+  H277  1  0.12080515  -0.00255579  0.14665040  1
  H+  H278  1  0.89902231  0.64451791  0.51924286  1
  H+  H279  1  0.60793822  0.11512527  0.50366059  1
  H+  H280  1  0.82689716  0.07637509  0.36130437  1
  H+  H281  1  0.96851143  0.35153216  0.98638998  1
  H+  H282  1  0.88396500  0.61470864  0.00274705  1
  H+  H283  1  0.97698082  0.56412230  0.55186556  1
  H+  H284  1  0.23865630  0.86583038  0.99557853  1
  H+  H285  1  0.37568523  -0.02742944  0.67156501  1
  H+  H286  1  0.38156220  0.28183636  0.18198948  1
  H+  H287  1  0.66875131  0.33394547  0.90041778  1
  H+  H288  1  0.80780633  0.13678745  0.44598815  1
  H+  H289  1  0.32240089  0.90053566  0.45433043  1
  H+  H290  1  0.62838172  0.60090304  0.93983397  1
  H+  H291  1  0.09384038  0.17316332  0.76386961  1
  H+  H292  1  0.26031577  0.14289678  0.00717963  1
  H+  H293  1  0.41247710  0.31959223  0.60040815  1
  H+  H294  1  0.57225130  0.67943412  0.10342734  1
  H+  H295  1  0.66132124  0.84629054  0.26069578  1
  H+  H296  1  0.83797338  0.17635137  0.10910511  1
  H+  H297  1  0.91765424  0.08400807  0.23365360  1
  H+  H298  1  0.41457231  0.57900221  0.90030780  1
  H+  H299  1  0.04568437  0.70589605  0.37207064  1
  H+  H300  1  0.08806881  0.12424085  -0.01213959  1
  H+  H301  1  0.93779613  0.57056754  0.25563450  1
  H+  H302  1  0.91513947  0.82406253  0.22287033  1
  H+  H303  1  0.08221839  0.92863311  0.40293392  1
  H+  H304  1  0.92011628  0.58935954  0.90581034  1
  H+  H305  1  0.67598823  0.57327729  0.60305169  1
  H+  H306  1  0.18321126  0.32739483  0.94278998  1
  H+  H307  1  0.38191956  0.57778780  0.59209515  1
  H+  H308  1  0.90868070  0.33553624  0.58937571  1
  H+  H309  1  0.18145584  0.83516286  0.93448490  1
  H+  H310  1  0.69494632  0.90482405  0.99031587  1
  H+  H311  1  0.09388339  0.67746985  0.43587262  1
  H+  H312  1  0.50800990  0.86716980  0.49191484  1
  H+  H313  1  0.98802896  0.88136160  0.51367766  1
  H+  H314  1  0.08880749  0.91816209  0.74030428  1
  H+  H315  1  0.81398285  0.91035320  0.46749996  1
  H+  H316  1  0.36390241  -0.00345047  0.84265900  1
  H+  H317  1  0.17148573  0.10162599  0.93326484  1
  H+  H318  1  0.62705034  0.79957221  0.60575292  1
  H+  H319  1  0.41641313  0.31515869  0.92874969  1
  H+  H320  1  0.68231884  0.54602966  0.88392251  1
  H+  H321  1  0.13630551  0.56932832  0.92156223  1
  H+  H322  1  0.10254998  0.15136779  0.33823424  1
  H+  H323  1  0.65615991  0.06532574  0.56913657  1
  H+  H324  1  0.26629118  0.46657917  0.72849407  1
  H+  H325  1  0.15568528  0.83472328  0.57325248  1
  H+  H326  1  0.42775529  0.11793809  0.27326010  1
  H+  H327  1  0.91406672  0.35910976  0.23462734  1
  H+  H328  1  0.33405432  0.16403233  0.44167038  1
  H+  H329  1  0.55176101  0.67606176  0.41815551  1
  H+  H330  1  0.35624751  0.99470930  0.30726293  1
  H+  H331  1  0.34768726  0.68124700  0.73320544  1
  H+  H332  1  0.39519985  0.07284914  0.94094140  1
  H+  H333  1  0.33782141  0.42918494  0.39897209  1
  H+  H334  1  0.96545955  0.36428973  0.17245988  1
  H+  H335  1  0.41793919  0.80896872  0.26547110  1
  H+  H336  1  0.36788895  0.12970979  0.67386111  1
  H+  H337  1  0.46490283  0.62029518  -0.00683797  1
  H+  H338  1  0.59774344  0.17135525  0.73081063  1
  H+  H339  1  0.91971519  0.68513983  0.42559484  1
  H+  H340  1  0.66965780  0.33088132  0.59286930  1
  H+  H341  1  0.89342543  0.89626051  0.01074859  1
  H+  H342  1  0.33126391  0.17609153  0.10852711  1
  H+  H343  1  0.06161230  0.15910924  0.42317568  1
  H+  H344  1  0.53966137  0.35804597  0.40557324  1
  H+  H345  1  0.41704089  0.07637447  0.60341660  1
  H+  H346  1  0.06514924  0.16402372  0.10617867  1
  H+  H347  1  0.16428955  0.31442406  0.56110437  1
  H+  H348  1  0.56924194  0.91922808  0.11197899  1
  H+  H349  1  0.17536635  0.08259810  0.61036870  1
  H+  H350  1  0.46146588  0.34745797  0.33565567  1
  H+  H351  1  0.19844281  0.61045944  0.23059400  1
  H+  H352  1  0.88040521  0.51724693  0.16613437  1
  H+  H353  1  0.68521301  0.84236657  0.90008593  1
  H+  H354  1  0.41292625  0.82113454  0.88603918  1
  H+  H355  1  0.84962174  0.93728332  0.36886847  1
  H+  H356  1  0.58154005  0.92048695  0.73886456  1
  H+  H357  1  0.92449363  0.82968043  0.93875614  1
  H+  H358  1  0.62869742  0.05869859  0.94630379  1
  H+  H359  1  0.65975196  0.33346955  0.23238694  1
  H+  H360  1  0.36948005  0.60557130  0.98923944  1
  H+  H361  1  0.57706360  0.39736521  0.72439806  1
  H+  H362  1  0.84413537  0.91952817  0.77131450  1
  H+  H363  1  0.84615951  0.67503504  0.76768434  1
  H+  H364  1  0.06944624  0.42068096  0.71848129  1
  H+  H365  1  0.16094603  0.09674306  0.27376610  1
  H+  H366  1  0.92950208  0.83780130  0.60731429  1
  H+  H367  1  0.83888474  0.92058036  0.10194915  1
  H+  H368  1  0.61214833  0.45852507  0.66377766  1
  H+  H369  1  0.82035817  0.39390823  0.75338761  1
  H+  H370  1  0.14846814  0.84353494  0.22163610  1
  H+  H371  1  0.65631728  0.61451512  0.25739307  1
  H+  H372  1  0.36045449  0.14949938  0.34634280  1
  H+  H373  1  0.84178517  0.17524343  0.71872086  1
  H+  H374  1  0.08499495  0.66503438  0.10278620  1
  H+  H375  1  0.16840586  0.58615541  0.59838844  1
  H+  H376  1  0.04257435  0.52785821  0.94492741  1
  H+  H377  1  0.76614239  0.62891446  0.16010618  1
  H+  H378  1  0.07737605  0.44672302  0.42437087  1
  H+  H379  1  0.40937972  0.34543393  0.26646950  1
  H+  H380  1  0.33219967  0.15972707  0.76639423  1
  H+  H381  1  0.86052228  0.22258031  0.00640726  1
  H+  H382  1  0.06417240  0.39999026  0.09687185  1
  H+  H383  1  0.37292758  0.00805451  0.51580372  1
  O2-  O384  1  0.07632418  0.17365362  0.14997353  1
  O2-  O385  1  0.05922265  0.14203791  0.46836821  1
  O2-  O386  1  0.08587445  0.16792889  0.80998384  1
  O2-  O387  1  0.05889453  0.40005756  0.14144744  1
  O2-  O388  1  0.07958449  0.44449988  0.46937655  1
  O2-  O389  1  0.06605655  0.43363854  0.80078804  1
  O2-  O390  1  0.08490120  0.66524414  0.14793118  1
  O2-  O391  1  0.08885145  0.67844773  0.48094346  1
  O2-  O392  1  0.08824951  0.66448744  0.82462437  1
  O2-  O393  1  0.10947876  0.95500288  0.11461157  1
  O2-  O394  1  0.08599487  0.92795414  0.48453213  1
  O2-  O395  1  0.08770212  0.91453855  0.81888430  1
  O2-  O396  1  0.33578740  0.18042637  0.15330691  1
  O2-  O397  1  0.33816056  0.16462387  0.48727446  1
  O2-  O398  1  0.32805093  0.16127734  0.81180973  1
  O2-  O399  1  0.33628523  0.42651922  0.15950207  1
  O2-  O400  1  0.32981002  0.41393308  0.47586810  1
  O2-  O401  1  0.35576788  0.41853485  0.81569436  1
  O2-  O402  1  0.34299352  0.68342733  0.13319230  1
  O2-  O403  1  0.33170186  0.69886540  0.47369669  1
  O2-  O404  1  0.39786587  0.69064151  0.79622010  1
  O2-  O405  1  0.33448851  0.92198040  0.15614525  1
  O2-  O406  1  0.32164454  0.90889328  0.49797689  1
  O2-  O407  1  0.33415797  0.90656264  0.81340420  1
  O2-  O408  1  0.58210799  0.17089805  0.14454991  1
  O2-  O409  1  0.57737505  0.14863741  0.49105180  1
  O2-  O410  1  0.62266517  0.17560185  0.81534344  1
  O2-  O411  1  0.57255104  0.41260988  0.14260885  1
  O2-  O412  1  0.57082139  0.39983625  0.48079193  1
  O2-  O413  1  0.58169591  0.39464435  0.80300673  1
  O2-  O414  1  0.57696356  0.67623069  0.14819119  1
  O2-  O415  1  0.54896901  0.66177544  0.46396398  1
  O2-  O416  1  0.59815833  0.64496634  0.87210693  1
  O2-  O417  1  0.58121102  0.92548754  0.15600520  1
  O2-  O418  1  0.56458342  0.90087989  0.46813458  1
  O2-  O419  1  0.58413520  0.91033342  0.81007252  1
  O2-  O420  1  0.83385940  0.17306061  0.15419480  1
  O2-  O421  1  0.81760832  0.16270839  0.48795745  1
  O2-  O422  1  0.85603590  0.17473208  0.79918117  1
  O2-  O423  1  0.82152345  0.41092515  0.14410849  1
  O2-  O424  1  0.83566231  0.43158296  0.48363926  1
  O2-  O425  1  0.82238818  0.39661881  0.80223272  1
  O2-  O426  1  0.82608286  0.65607331  0.14393713  1
  O2-  O427  1  0.87842392  0.68170488  0.50038149  1
  O2-  O428  1  0.84626883  0.67528784  0.81372275  1
  O2-  O429  1  0.82751701  0.91645815  0.14625845  1
  O2-  O430  1  0.81962255  0.90498002  0.51104014  1
  O2-  O431  1  0.84464266  0.92635734  0.81668354  1
  O2-  O432  1  0.16668092  0.10072237  0.19810320  1
  O2-  O433  1  0.18038123  0.09440006  0.53160352  1
  O2-  O434  1  0.16494464  0.08344002  0.85556952  1
  O2-  O435  1  0.16639405  0.34287512  0.19073227  1
  O2-  O436  1  0.17440910  0.31001090  0.51737637  1
  O2-  O437  1  0.19929112  0.32635903  0.86180827  1
  O2-  O438  1  0.19493281  0.60908989  0.18579765  1
  O2-  O439  1  0.16987182  0.59579789  0.52462658  1
  O2-  O440  1  0.16367363  0.58453574  0.84643962  1
  O2-  O441  1  0.15785983  0.84137219  0.17702786  1
  O2-  O442  1  0.15863334  0.84136915  0.52602386  1
  O2-  O443  1  0.17176700  0.83297099  0.85930120  1
  O2-  O444  1  0.42050295  0.09989267  0.19472088  1
  O2-  O445  1  0.40774292  0.07150534  0.52764393  1
  O2-  O446  1  0.38449402  0.05710320  0.85993107  1
  O2-  O447  1  0.41240703  0.34212763  0.19847059  1
  O2-  O448  1  0.41143964  0.32438850  0.53179587  1
  O2-  O449  1  0.42264858  0.32215774  0.85571444  1
  O2-  O450  1  0.41477589  0.59798092  0.19015852  1
  O2-  O451  1  0.38689214  0.58161907  0.51651669  1
  O2-  O452  1  0.42838189  0.57903542  0.85596655  1
  O2-  O453  1  0.41600677  0.82898803  0.19685320  1
  O2-  O454  1  0.42240428  0.81488404  0.53226828  1
  O2-  O455  1  0.42446970  0.82888194  0.84193199  1
  O2-  O456  1  0.66679340  0.09359041  0.19133800  1
  O2-  O457  1  0.65552907  0.06823096  0.52415027  1
  O2-  O458  1  0.70139441  0.09358463  0.85850660  1
  O2-  O459  1  0.65871969  0.33437488  0.18700452  1
  O2-  O460  1  0.68103578  0.35113837  0.51379185  1
  O2-  O461  1  0.67134839  0.33057778  0.85468670  1
  O2-  O462  1  0.65844082  0.58585687  0.17565654  1
  O2-  O463  1  0.70947860  0.64625198  0.53445190  1
  O2-  O464  1  0.67410515  0.55768180  0.84181331  1
  O2-  O465  1  0.66396820  0.84251711  0.18339795  1
  O2-  O466  1  0.66350550  0.76991863  0.54572876  1
  O2-  O467  1  0.67824584  0.82999592  0.85571199  1
  O2-  O468  1  0.91520144  0.08168614  0.18707027  1
  O2-  O469  1  0.90384226  0.08979265  0.53581100  1
  O2-  O470  1  0.92798416  0.08963279  0.84017149  1
  O2-  O471  1  0.90569771  0.33879067  0.19048402  1
  O2-  O472  1  0.90809060  0.33521793  0.51506114  1
  O2-  O473  1  0.91021783  0.33242307  0.84878532  1
  O2-  O474  1  0.91496592  0.57734797  0.18173860  1
  O2-  O475  1  0.93148552  0.57101213  0.53342519  1
  O2-  O476  1  0.92531198  0.58781306  0.86122307  1
  O2-  O477  1  0.90238802  0.81284471  0.17818526  1
  O2-  O478  1  0.92794851  0.84585894  0.53042418  1
  O2-  O479  1  0.92102841  0.83257309  0.86266696  1
  O2-  O480  1  0.15649956  0.09628129  0.31950841  1
  O2-  O481  1  0.17669207  0.08390903  0.65568859  1
  O2-  O482  1  0.16598776  0.09914142  0.97864494  1
  O2-  O483  1  0.15665244  0.34792782  0.31561568  1
  O2-  O484  1  0.15701112  0.32717093  0.64215089  1
  O2-  O485  1  0.16613851  0.32610678  0.98570979  1
  O2-  O486  1  0.20544573  0.60569456  0.31343787  1
  O2-  O487  1  0.16254851  0.57802963  0.64406458  1
  O2-  O488  1  0.10125166  0.55188317  0.95983496  1
  O2-  O489  1  0.15453417  0.85120139  0.29900132  1
  O2-  O490  1  0.15689808  0.82617210  0.64081271  1
  O2-  O491  1  0.17975857  0.83377425  0.98041728  1
  O2-  O492  1  0.42304142  0.11787914  0.31843090  1
  O2-  O493  1  0.41822476  0.07787095  0.64934716  1
  O2-  O494  1  0.40170216  0.08428422  0.98545052  1
  O2-  O495  1  0.40660512  0.34608546  0.31405587  1
  O2-  O496  1  0.41642160  0.31787409  0.64761759  1
  O2-  O497  1  0.41297417  0.31362470  0.97511319  1
  O2-  O498  1  0.39882528  0.59166871  0.31103739  1
  O2-  O499  1  0.38185698  0.57740032  0.63787514  1
  O2-  O500  1  0.40750455  0.58064375  0.97664151  1
  O2-  O501  1  0.42210969  0.79942543  0.31128543  1
  O2-  O502  1  0.39985016  0.88013760  0.68420053  1
  O2-  O503  1  0.38664596  0.81405715  0.96703120  1
  O2-  O504  1  0.65158570  0.07425538  0.31644216  1
  O2-  O505  1  0.66563295  0.07550621  0.65039710  1
  O2-  O506  1  0.63859367  0.06484289  0.99014681  1
  O2-  O507  1  0.65272291  0.32690909  0.31295580  1
  O2-  O508  1  0.66455016  0.32394741  0.63794066  1
  O2-  O509  1  0.66127590  0.33123679  0.97695063  1
  O2-  O510  1  0.66808729  0.63555974  0.29945119  1
  O2-  O511  1  0.68065043  0.54383284  0.63926296  1
  O2-  O512  1  0.63673069  0.57543647  0.97749846  1
  O2-  O513  1  0.66185223  0.84850042  0.30622924  1
  O2-  O514  1  0.61310942  0.81316659  0.64733796  1
  O2-  O515  1  0.70673527  0.85941061  0.97878797  1
  O2-  O516  1  0.91960830  0.09933694  0.30514060  1
  O2-  O517  1  0.92598017  0.08505093  0.69328836  1
  O2-  O518  1  0.98676903  0.11011204  1.03358638  1
  O2-  O519  1  0.92685360  0.39649384  0.30416927  1
  O2-  O520  1  0.90900379  0.33345375  0.63554991  1
  O2-  O521  1  0.90790416  0.32465745  0.97001722  1
  O2-  O522  1  0.95153712  0.56196905  0.29841191  1
  O2-  O523  1  0.89817058  0.57244508  0.65134580  1
  O2-  O524  1  0.91484055  0.58585941  0.98923513  1
  O2-  O525  1  0.92407553  0.84709866  0.29633439  1
  O2-  O526  1  0.92717250  0.83208639  0.65271915  1
  O2-  O527  1  0.93005099  0.83456153  0.98432603  1
  O2-  O528  1  0.04955065  0.15062839  -0.01603440  1
  O2-  O529  1  0.07032347  0.17962884  0.35342236  1
  O2-  O530  1  0.09806086  0.17207657  0.69209071  1
  O2-  O531  1  0.06905452  0.40036189  0.01259136  1
  O2-  O532  1  0.08380868  0.45269339  0.34346645  1
  O2-  O533  1  0.07392959  0.41546160  0.67406654  1
  O2-  O534  1  0.08036582  0.67145920  0.02268794  1
  O2-  O535  1  0.09094397  0.69255279  0.35737702  1
  O2-  O536  1  0.07513375  0.66398620  0.67670175  1
  O2-  O537  1  0.10516519  0.93715535  -0.02634426  1
  O2-  O538  1  0.08114294  0.93000452  0.35783178  1
  O2-  O539  1  0.09112197  0.92285008  0.69495683  1
  O2-  O540  1  0.32270737  0.17130220  0.02231504  1
  O2-  O541  1  0.32211290  0.16965968  0.36556090  1
  O2-  O542  1  0.34000093  0.16318030  0.68863661  1
  O2-  O543  1  0.33389055  0.42361177  0.03962242  1
  O2-  O544  1  0.33969939  0.43181735  0.35334630  1
  O2-  O545  1  0.29830199  0.44491241  0.70603611  1
  O2-  O546  1  0.31120085  0.64322201  0.01071966  1
  O2-  O547  1  0.36506186  0.64168287  0.34212862  1
  O2-  O548  1  0.32701741  0.68012679  0.68955217  1
  O2-  O549  1  0.35552950  0.93151629  0.04044857  1
  O2-  O550  1  0.33179842  0.93723617  0.28947630  1
  O2-  O551  1  0.34531619  0.91232706  0.68901214  1
  O2-  O552  1  0.57444603  0.16519663  0.02297578  1
  O2-  O553  1  0.58597935  0.16813985  0.36198320  1
  O2-  O554  1  0.58925931  0.16438071  0.68639895  1
  O2-  O555  1  0.56680003  0.40476829  0.02088603  1
  O2-  O556  1  0.51975356  0.33018332  0.36535513  1
  O2-  O557  1  0.57303496  0.39608867  0.67902660  1
  O2-  O558  1  0.58038506  0.68865348  0.02344349  1
  O2-  O559  1  0.55743810  0.68639110  0.34908149  1
  O2-  O560  1  0.54890264  0.62706104  0.67716468  1
  O2-  O561  1  0.54074255  0.90295311  0.03095908  1
  O2-  O562  1  0.56343063  0.90686960  0.35274125  1
  O2-  O563  1  0.58058331  0.92650534  0.69239137  1
  O2-  O564  1  0.83864529  0.16618754  0.02735812  1
  O2-  O565  1  0.77912354  0.07151231  0.38619471  1
  O2-  O566  1  0.83283889  0.16834736  0.67412730  1
  O2-  O567  1  0.83253324  0.41277721  0.01722602  1
  O2-  O568  1  0.81401203  0.42662254  0.35891567  1
  O2-  O569  1  0.82187852  0.39738942  0.68925826  1
  O2-  O570  1  0.80194012  0.66976772  0.03044375  1
  O2-  O571  1  0.95070396  0.69385125  0.38668236  1
  O2-  O572  1  0.83137580  0.66552212  0.69377573  1
  O2-  O573  1  0.86507745  0.93034413  0.02267918  1
  O2-  O574  1  0.83513552  0.93753696  0.32644789  1
  O2-  O575  1  0.85393818  0.92331005  0.69474876  1
