# generated using pymatgen
data_H2O
_symmetry_space_group_name_H-M   'P 1'
_cell_length_a   17.99139462
_cell_length_b   17.99782053
_cell_length_c   22.01072398
_cell_angle_alpha   90.02009295
_cell_angle_beta   90.00028502
_cell_angle_gamma   119.99767350
_symmetry_Int_Tables_number   1
_chemical_formula_structural   H2O
_chemical_formula_sum   'H384 O192'
_cell_volume   6172.48225889
_cell_formula_units_Z   192
loop_
 _symmetry_equiv_pos_site_id
 _symmetry_equiv_pos_as_xyz
  1  'x, y, z'
loop_
 _atom_type_symbol
 _atom_type_oxidation_number
  H+  1.0
  O2-  -2.0
loop_
 _atom_site_type_symbol
 _atom_site_label
 _atom_site_symmetry_multiplicity
 _atom_site_fract_x
 _atom_site_fract_y
 _atom_site_fract_z
 _atom_site_occupancy
  H+  H0  1  0.53252942  0.12565566  0.19968837  1
  H+  H1  1  0.47234326  0.59044703  0.83208777  1
  H+  H2  1  0.90406150  0.33218797  0.84308452  1
  H+  H3  1  0.66531560  0.83909406  0.24079831  1
  H+  H4  1  0.36270368  0.01110917  0.66927729  1
  H+  H5  1  0.37575111  0.11454210  0.52234264  1
  H+  H6  1  0.75991376  0.37396051  0.67040634  1
  H+  H7  1  0.27092549  0.14723981  0.15518260  1
  H+  H8  1  0.84843892  0.22374701  0.68076789  1
  H+  H9  1  0.32369134  0.16813251  0.76612092  1
  H+  H10  1  0.38683514  0.49715061  0.83236686  1
  H+  H11  1  0.85235730  0.61968671  0.49217219  1
  H+  H12  1  0.90108737  0.29348629  1.00368196  1
  H+  H13  1  0.50706405  0.15276344  0.49448940  1
  H+  H14  1  0.21650541  0.61915705  0.53758637  1
  H+  H15  1  0.71953066  0.60499776  0.50321270  1
  H+  H16  1  0.16044867  0.07794049  0.60159444  1
  H+  H17  1  0.10928245  0.45562324  0.82544022  1
  H+  H18  1  0.85926207  0.11297076  0.82338455  1
  H+  H19  1  0.14066939  0.27517241  0.32672460  1
  H+  H20  1  0.35925280  0.14091180  0.00985696  1
  H+  H21  1  0.09686970  0.87381019  0.49806109  1
  H+  H22  1  0.24084685  0.35013926  0.61620437  1
  H+  H23  1  0.39411844  0.60877859  -0.01361835  1
  H+  H24  1  0.11226893  0.37376653  0.34758055  1
  H+  H25  1  0.86667213  0.61567545  0.99358614  1
  H+  H26  1  0.62886982  0.52175076  0.83700924  1
  H+  H27  1  0.78479742  0.90118525  0.34355929  1
  H+  H28  1  0.61674464  0.72285771  0.48739703  1
  H+  H29  1  0.87916191  0.85533016  0.50661307  1
  H+  H30  1  0.11202360  0.76199387  0.50787394  1
  H+  H31  1  0.53320903  0.64414507  0.32644871  1
  H+  H32  1  0.11974595  0.64258790  0.33222574  1
  H+  H33  1  0.42526343  0.54030869  0.15636301  1
  H+  H34  1  0.22850042  0.60856341  0.98585809  1
  H+  H35  1  0.21132380  0.58076917  0.83040227  1
  H+  H36  1  1.01094410  0.62848798  0.49522122  1
  H+  H37  1  0.87298771  0.16871554  0.03708607  1
  H+  H38  1  0.52913778  0.87708121  0.49077183  1
  H+  H39  1  0.14324761  0.36227409  0.98453067  1
  H+  H40  1  0.66545409  0.32858653  0.59400920  1
  H+  H41  1  0.35622994  0.71791191  -0.00483120  1
  H+  H42  1  -0.03179358  0.85535287  0.50723324  1
  H+  H43  1  0.65296049  0.34011431  0.92916688  1
  H+  H44  1  0.52950540  0.62734417  1.01015009  1
  H+  H45  1  0.00544098  0.87534584  0.33864091  1
  H+  H46  1  0.87311270  0.88999816  0.33881500  1
  H+  H47  1  0.07913919  0.15915358  0.76399788  1
  H+  H48  1  0.64791479  0.35766125  0.32663634  1
  H+  H49  1  0.92493063  0.70833745  0.69991484  1
  H+  H50  1  0.86695637  0.60064781  0.64986852  1
  H+  H51  1  0.62338533  0.79042585  0.33276643  1
  H+  H52  1  0.62746226  0.66037923  0.31854899  1
  H+  H53  1  0.62352908  0.28070809  -0.00997446  1
  H+  H54  1  0.12056150  0.37065861  0.82604972  1
  H+  H55  1  0.12678941  0.37613400  0.66413614  1
  H+  H56  1  0.12679306  0.85841619  0.66512110  1
  H+  H57  1  0.35472633  0.67689488  0.83834275  1
  H+  H58  1  0.38674682  0.90495838  0.50015151  1
  H+  H59  1  0.39330259  0.28340847  0.17097048  1
  H+  H60  1  0.47089449  0.85602524  0.17688401  1
  H+  H61  1  0.09837499  0.59919520  0.17341547  1
  H+  H62  1  0.58327770  0.94173445  -0.05171125  1
  H+  H63  1  0.24486612  0.15074156  0.34025272  1
  H+  H64  1  0.82708318  0.40544392  0.41324091  1
  H+  H65  1  0.37590421  0.81526634  0.67021972  1
  H+  H66  1  0.82880306  0.90583242  0.06496566  1
  H+  H67  1  0.85587423  0.41462787  0.82337769  1
  H+  H68  1  0.87361046  0.73844565  0.17754793  1
  H+  H69  1  0.88097839  0.26566319  0.20363470  1
  H+  H70  1  0.04585169  0.05498386  0.28323937  1
  H+  H71  1  0.99627009  0.33997084  0.83916768  1
  H+  H72  1  0.97281849  0.11205484  0.51417697  1
  H+  H73  1  0.32217235  0.43932190  0.18745316  1
  H+  H74  1  0.38529801  0.53502725  0.50296621  1
  H+  H75  1  0.47820384  0.13139728  0.66430174  1
  H+  H76  1  0.35981167  0.15246332  0.67508301  1
  H+  H77  1  0.09737985  0.71901930  0.16230331  1
  H+  H78  1  1.03285299  0.71304825  0.76361608  1
  H+  H79  1  0.13682157  0.86303652  0.32902673  1
  H+  H80  1  0.62742357  0.14873739  0.82434167  1
  H+  H81  1  0.76868910  0.38971560  0.19882936  1
  H+  H82  1  0.38627151  0.76652947  0.17273911  1
  H+  H83  1  0.63862451  0.60863007  0.99318424  1
  H+  H84  1  0.47560245  0.62061752  0.49241453  1
  H+  H85  1  0.09843294  0.45798183  0.15510728  1
  H+  H86  1  0.62668761  0.35074121  0.65447933  1
  H+  H87  1  0.86767373  0.50451799  0.49601703  1
  H+  H88  1  0.12606822  0.85725229  0.17451972  1
  H+  H89  1  0.51654375  0.62740952  0.16855336  1
  H+  H90  1  0.73355208  0.10716864  0.83982135  1
  H+  H91  1  0.71357685  0.85420660  0.83501075  1
  H+  H92  1  0.62330929  0.44120737  0.37736873  1
  H+  H93  1  0.60483366  0.86499240  0.82617043  1
  H+  H94  1  0.12070095  1.01085035  0.50751422  1
  H+  H95  1  0.62390009  0.49844798  0.18124024  1
  H+  H96  1  0.35688272  0.59338062  0.82627791  1
  H+  H97  1  0.72840010  0.85708577  0.50987682  1
  H+  H98  1  0.10813052  0.59079427  0.67030035  1
  H+  H99  1  0.63923204  0.02473771  0.84236480  1
  H+  H100  1  0.60727735  0.08001287  0.20068088  1
  H+  H101  1  0.21570200  0.87253241  -0.02580682  1
  H+  H102  1  0.10750616  0.97113012  0.15182488  1
  H+  H103  1  0.86631629  0.06909616  0.97330062  1
  H+  H104  1  0.21853028  0.61328873  0.31868067  1
  H+  H105  1  0.87157626  0.13343926  0.34807976  1
  H+  H106  1  0.36590113  0.27500084  0.51644541  1
  H+  H107  1  0.85555482  0.71170587  0.49527453  1
  H+  H108  1  0.61290219  0.88318465  0.67321930  1
  H+  H109  1  0.50926835  0.38244774  0.67507986  1
  H+  H110  1  0.77286562  0.88978579  0.16081187  1
  H+  H111  1  0.58478083  0.88969494  0.43021395  1
  H+  H112  1  0.65544662  0.32559775  0.24194311  1
  H+  H113  1  0.63624830  0.84919467  -0.01210586  1
  H+  H114  1  0.51674641  0.12337323  0.16757401  1
  H+  H115  1  0.62031714  0.11772386  0.34219733  1
  H+  H116  1  0.10740148  0.22436233  -0.00378836  1
  H+  H117  1  0.83626056  0.41092273  0.14828527  1
  H+  H118  1  0.34123020  -0.04032339  0.16152406  1
  H+  H119  1  0.39058134  0.27744732  -0.00101847  1
  H+  H120  1  0.37930844  0.23857938  0.30887816  1
  H+  H121  1  0.85853215  0.38804980  0.49230491  1
  H+  H122  1  0.11098372  0.14488283  0.37143217  1
  H+  H123  1  0.48176645  0.84511405  0.32314332  1
  H+  H124  1  0.10253084  0.63629695  0.50389124  1
  H+  H125  1  0.51728420  0.38847193  0.00303587  1
  H+  H126  1  0.11154330  0.14035646  0.67323256  1
  H+  H127  1  0.45342489  0.61170924  0.66531675  1
  H+  H128  1  0.87957011  0.11518005  0.66281797  1
  H+  H129  1  0.72046551  0.37466788  0.83861977  1
  H+  H130  1  0.27326456  0.39313700  0.34132541  1
  H+  H131  1  0.41430086  0.39977681  0.32809030  1
  H+  H132  1  1.01889702  0.13204853  0.99431696  1
  H+  H133  1  0.27142507  0.14313581  0.00977328  1
  H+  H134  1  0.21246831  0.85152483  0.17121917  1
  H+  H135  1  0.02569401  0.14555718  0.67368501  1
  H+  H136  1  0.11629047  0.22883757  0.51505740  1
  H+  H137  1  0.13391346  0.02508197  0.66399126  1
  H+  H138  1  0.52206845  0.87958843  0.67789202  1
  H+  H139  1  0.61182892  0.87253557  0.17313665  1
  H+  H140  1  0.01911575  0.36801540  0.35828892  1
  H+  H141  1  0.97389845  0.09718472  0.82904200  1
  H+  H142  1  0.18336852  0.59797005  0.16619130  1
  H+  H143  1  0.87072047  0.20624024  0.83118682  1
  H+  H144  1  0.14459176  0.09668817  0.29832150  1
  H+  H145  1  0.02344495  0.62287960  0.00516244  1
  H+  H146  1  0.61593531  0.20635437  0.33510095  1
  H+  H147  1  0.30685150  0.62315082  0.15603381  1
  H+  H148  1  0.86114663  0.97334462  0.49741671  1
  H+  H149  1  0.61266183  0.38607656  0.99745646  1
  H+  H150  1  0.25973857  0.12896868  0.50294677  1
  H+  H151  1  0.72000102  0.11195081  0.67228730  1
  H+  H152  1  0.64272920  0.64277759  0.18199896  1
  H+  H153  1  0.60776122  0.38984530  0.82542059  1
  H+  H154  1  0.12905165  0.47996815  0.99685386  1
  H+  H155  1  0.09615532  0.95844633  0.33721678  1
  H+  H156  1  0.85717507  0.86550794  1.00972765  1
  H+  H157  1  0.13422491  0.11275676  -0.00367423  1
  H+  H158  1  0.14271895  0.07394864  0.20556705  1
  H+  H159  1  0.36448035  0.37287012  0.81887794  1
  H+  H160  1  0.98262526  0.44275680  0.63987270  1
  H+  H161  1  0.12360734  0.10255618  0.51146123  1
  H+  H162  1  0.87936592  0.53126251  0.19574787  1
  H+  H163  1  0.02034661  0.63910503  0.33834083  1
  H+  H164  1  0.11919648  0.37321831  0.50471496  1
  H+  H165  1  0.86502186  0.46014216  0.34884340  1
  H+  H166  1  0.68290550  0.19523542  0.13840900  1
  H+  H167  1  0.62447228  0.47827726  0.47429942  1
  H+  H168  1  0.61364606  0.48320784  -0.00301193  1
  H+  H169  1  0.98560438  0.36548462  0.66236609  1
  H+  H170  1  0.97101805  0.84896592  1.00082335  1
  H+  H171  1  0.10245789  0.97301586  0.01210919  1
  H+  H172  1  0.36685517  0.71424206  0.33172312  1
  H+  H173  1  0.41509993  0.75517579  0.66583353  1
  H+  H174  1  0.88329249  -0.00637372  0.98719238  1
  H+  H175  1  0.88787031  0.35242183  0.35154369  1
  H+  H176  1  0.02420489  0.14109693  0.35051877  1
  H+  H177  1  0.36020503  0.27577388  0.67080969  1
  H+  H178  1  0.70702230  0.84265033  0.65891993  1
  H+  H179  1  0.07372022  0.91121543  0.73853314  1
  H+  H180  1  0.88500682  0.35502117  0.21177862  1
  H+  H181  1  0.73388921  0.09439159  0.34103759  1
  H+  H182  1  0.91276384  0.83789657  0.59567528  1
  H+  H183  1  0.85688409  0.38773319  0.67463249  1
  H+  H184  1  0.88024791  0.76509796  0.84518812  1
  H+  H185  1  0.63742480  0.28048381  0.83795275  1
  H+  H186  1  0.66241427  0.27037295  0.14631625  1
  H+  H187  1  0.39016516  -0.01373623  0.32729807  1
  H+  H188  1  0.58806770  0.61572840  0.66082863  1
  H+  H189  1  0.88746942  0.90027746  0.67628055  1
  H+  H190  1  0.61676367  0.51525010  0.65207433  1
  H+  H191  1  0.86706878  0.38945485  0.97161605  1
  H+  H192  1  0.46948068  0.11622978  1.00323505  1
  H+  H193  1  0.63114097  0.60526461  0.49645523  1
  H+  H194  1  0.38537445  0.26824586  0.84281930  1
  H+  H195  1  0.35630060  0.97205951  0.00672330  1
  H+  H196  1  0.49622821  0.09264697  0.32303859  1
  H+  H197  1  0.78421065  0.65123834  0.18368524  1
  H+  H198  1  0.01700533  0.88836867  0.67680472  1
  H+  H199  1  0.63734512  0.28454465  0.50408639  1
  H+  H200  1  0.39109048  0.36745441  0.99796176  1
  H+  H201  1  0.63750918  0.85311105  0.50593951  1
  H+  H202  1  0.36295498  0.48048657  0.34279894  1
  H+  H203  1  1.02484638  0.87109719  0.84336510  1
  H+  H204  1  0.36264547  0.79017076  0.81418714  1
  H+  H205  1  0.21271083  0.34071527  0.16485804  1
  H+  H206  1  0.13155735  0.56712910  0.57613314  1
  H+  H207  1  0.58871157  0.70591497  0.66359753  1
  H+  H208  1  0.88942702  0.03150201  0.66602636  1
  H+  H209  1  0.73081885  0.34789896  0.33219481  1
  H+  H210  1  0.35008947  0.90159315  0.81488802  1
  H+  H211  1  -0.03082430  0.11087547  0.16980121  1
  H+  H212  1  0.88128408  0.53894150  0.83479745  1
  H+  H213  1  0.89127500  0.87180877  0.18137882  1
  H+  H214  1  0.87896737  0.51601186  -0.02566146  1
  H+  H215  1  0.61930273  0.67161153  0.11483679  1
  H+  H216  1  0.36596193  0.47549249  0.00453945  1
  H+  H217  1  0.85036770  0.95837934  0.82968334  1
  H+  H218  1  0.85065344  0.63796078  0.83041506  1
  H+  H219  1  0.88515095  0.78313449  0.65861457  1
  H+  H220  1  0.86542033  0.21940427  0.35294647  1
  H+  H221  1  0.63446705  0.37391043  0.18715310  1
  H+  H222  1  0.36087094  0.92437397  0.65740121  1
  H+  H223  1  0.62424894  1.00339507  0.18560160  1
  H+  H224  1  0.53665134  0.14159030  0.82783474  1
  H+  H225  1  0.39397020  0.78165050  0.51408700  1
  H+  H226  1  0.39618454  0.60938510  0.30802823  1
  H+  H227  1  0.35432073  0.13341259  0.82169568  1
  H+  H228  1  0.03937131  0.39304655  0.00059015  1
  H+  H229  1  0.82492789  0.89750760  0.77390125  1
  H+  H230  1  0.16547272  0.08055934  0.94000533  1
  H+  H231  1  0.12855133  0.87278941  -0.01420824  1
  H+  H232  1  0.65360589  0.82127381  0.89433693  1
  H+  H233  1  0.77026699  0.62268825  -0.00294850  1
  H+  H234  1  0.89572830  0.61191470  0.33989877  1
  H+  H235  1  0.40436025  0.22501072  0.28927038  1
  H+  H236  1  0.62541191  0.11714829  0.67072491  1
  H+  H237  1  0.22139699  0.87752809  0.65811311  1
  H+  H238  1  0.13839207  0.26128154  0.83443035  1
  H+  H239  1  0.62702734  0.60950879  0.83461063  1
  H+  H240  1  0.36619226  0.87041554  0.33529031  1
  H+  H241  1  0.75967646  0.12673598  0.17959802  1
  H+  H242  1  0.11713657  0.73672871  0.33474763  1
  H+  H243  1  0.27902816  0.88020614  0.33436780  1
  H+  H244  1  0.63089805  -0.05086668  0.33765609  1
  H+  H245  1  0.35440515  0.38872144  0.50073193  1
  H+  H246  1  0.35291026  0.87720127  0.16006346  1
  H+  H247  1  0.66416032  0.06378141  0.99885583  1
  H+  H248  1  0.67285796  0.06202785  0.28228610  1
  H+  H249  1  0.50935530  0.86906765  0.81897397  1
  H+  H250  1  0.64627589  0.77336729  0.18439712  1
  H+  H251  1  0.86011844  -0.02114643  0.15766257  1
  H+  H252  1  0.13182620  0.35477263  0.16567326  1
  H+  H253  1  0.13647854  0.01712553  0.84795621  1
  H+  H254  1  0.89787520  0.02086669  0.33051175  1
  H+  H255  1  0.65257465  0.53802416  0.29109369  1
  H+  H256  1  0.89526737  0.27497918  0.51070624  1
  H+  H257  1  0.40076823  0.02395608  0.84088272  1
  H+  H258  1  0.35341351  0.10245254  0.18436302  1
  H+  H259  1  0.36573009  0.64508869  0.50341246  1
  H+  H260  1  0.33115606  0.41813617  1.06440256  1
  H+  H261  1  0.86366125  0.71357202  1.00326451  1
  H+  H262  1  0.47277756  0.03893609  0.88786423  1
  H+  H263  1  0.09891438  0.21847565  0.15219536  1
  H+  H264  1  0.86262297  0.13646809  0.50259219  1
  H+  H265  1  1.01768940  0.88588536  0.16709999  1
  H+  H266  1  0.78687477  0.16727706  0.01765636  1
  H+  H267  1  0.61914410  0.22934457  0.66638071  1
  H+  H268  1  0.51844131  0.38779072  0.82623948  1
  H+  H269  1  0.22556163  0.11652833  0.36462899  1
  H+  H270  1  0.59797201  0.71338547  0.81346878  1
  H+  H271  1  0.35975516  0.85063373  -0.02069141  1
  H+  H272  1  0.73785241  0.36603887  0.50535583  1
  H+  H273  1  0.61684374  0.71560155  1.00770121  1
  H+  H274  1  0.08578455  0.76385161  0.82028921  1
  H+  H275  1  0.78184773  0.62832820  0.33607291  1
  H+  H276  1  0.55897270  0.41834750  0.32245429  1
  H+  H277  1  0.65732253  0.82680346  0.59607970  1
  H+  H278  1  0.36902107  0.38978448  0.16228700  1
  H+  H279  1  0.36893150  0.64957931  0.73722663  1
  H+  H280  1  0.10563492  0.12595337  0.82519574  1
  H+  H281  1  0.27596293  0.37187832  0.81307249  1
  H+  H282  1  0.63735251  1.02046164  0.49717089  1
  H+  H283  1  0.39669722  0.12158309  0.37468602  1
  H+  H284  1  0.26395110  0.13929808  0.67426907  1
  H+  H285  1  0.12833345  0.11190301  0.14639174  1
  H+  H286  1  0.86571866  0.51287303  0.65438228  1
  H+  H287  1  0.77509700  0.38545851  -0.02447063  1
  H+  H288  1  0.34532313  0.66606352  0.05695326  1
  H+  H289  1  0.00477060  0.63417481  0.16563334  1
  H+  H290  1  0.22062044  0.10903268  0.84310337  1
  H+  H291  1  0.93111630  0.34551040  0.56504325  1
  H+  H292  1  0.42241672  0.56997222  0.93112690  1
  H+  H293  1  0.59133718  0.17517954  0.73062717  1
  H+  H294  1  0.61268250  0.15664047  -0.00342941  1
  H+  H295  1  0.72613514  0.85060414  0.98963362  1
  H+  H296  1  0.09619957  0.39061425  0.73072170  1
  H+  H297  1  0.56938021  0.65174649  0.75434914  1
  H+  H298  1  0.60579406  0.19610569  0.05819307  1
  H+  H299  1  0.22825124  0.35607697  0.98831953  1
  H+  H300  1  0.16649867  0.83593816  0.26792458  1
  H+  H301  1  0.32136396  0.41894261  0.44143398  1
  H+  H302  1  0.91307684  0.81783394  0.94041600  1
  H+  H303  1  0.29121956  0.02648726  0.22568517  1
  H+  H304  1  0.08121026  0.18169644  0.45140519  1
  H+  H305  1  0.84198489  0.68016385  0.73829307  1
  H+  H306  1  0.68621766  0.10565518  0.93316781  1
  H+  H307  1  0.64377986  0.57249001  0.59210423  1
  H+  H308  1  0.14849061  0.58131327  0.26525279  1
  H+  H309  1  0.35095341  0.93007086  0.44302669  1
  H+  H310  1  0.33547966  0.94780770  0.75901327  1
  H+  H311  1  0.82116294  0.17446939  0.12309024  1
  H+  H312  1  0.96797100  0.63330570  0.83617083  1
  H+  H313  1  0.33727421  0.63775770  0.37929946  1
  H+  H314  1  0.43600554  0.84336417  0.56932835  1
  H+  H315  1  0.41811735  0.82129559  0.26619849  1
  H+  H316  1  0.24231309  0.37463522  0.51716701  1
  H+  H317  1  0.83494206  0.91788784  0.43619995  1
  H+  H318  1  0.39056667  0.03224548  0.51772375  1
  H+  H319  1  0.62679306  0.01802721  0.67226685  1
  H+  H320  1  0.57811384  0.90162546  0.75795483  1
  H+  H321  1  0.92528111  0.58901007  0.27825936  1
  H+  H322  1  0.41120306  0.06485315  0.27102076  1
  H+  H323  1  0.30170192  0.66783521  0.46574636  1
  H+  H324  1  0.88041518  0.11004294  0.18170756  1
  H+  H325  1  0.06928655  0.90537435  0.43730660  1
  H+  H326  1  0.76049329  0.63723609  0.82663108  1
  H+  H327  1  0.48199715  0.37627412  0.17203191  1
  H+  H328  1  0.63665895  0.39780442  0.47426746  1
  H+  H329  1  0.93469795  0.97434561  0.72360958  1
  H+  H330  1  0.44510534  0.84573384  0.96905907  1
  H+  H331  1  0.31980664  0.90315170  0.05966090  1
  H+  H332  1  0.41337642  0.08385645  0.94380238  1
  H+  H333  1  0.55978636  0.93185442  0.01722659  1
  H+  H334  1  0.13669782  0.60397917  0.99051111  1
  H+  H335  1  0.91998454  0.84983027  0.24726508  1
  H+  H336  1  0.81580000  0.47666016  0.07870830  1
  H+  H337  1  0.59090164  0.67188383  0.42421357  1
  H+  H338  1  0.82642766  0.16229845  0.73920651  1
  H+  H339  1  0.66136479  0.57955475  0.92879112  1
  H+  H340  1  0.33840851  0.17477649  0.10239770  1
  H+  H341  1  0.39599092  0.33940380  0.57190120  1
  H+  H342  1  0.83609599  0.16633342  0.44302454  1
  H+  H343  1  0.08629395  0.39328212  0.42943284  1
  H+  H344  1  0.60298958  0.45009049  0.11680273  1
  H+  H345  1  0.39167070  0.82519083  0.88272071  1
  H+  H346  1  1.02496390  0.37176042  0.49902057  1
  H+  H347  1  0.13259705  0.68695275  0.74428119  1
  H+  H348  1  0.41885549  0.10278289  0.60388183  1
  H+  H349  1  0.71608223  0.11125329  0.50546613  1
  H+  H350  1  0.90945609  0.07940887  0.57032305  1
  H+  H351  1  0.06698600  0.16341342  0.09007405  1
  H+  H352  1  0.34222427  0.16400812  0.45659104  1
  H+  H353  1  0.58379375  0.90245399  0.11391163  1
  H+  H354  1  0.07273821  0.90817682  0.06936292  1
  H+  H355  1  0.82015809  0.42600795  0.76028009  1
  H+  H356  1  0.88540864  0.85509781  0.84898437  1
  H+  H357  1  0.57482387  0.41130758  0.72961972  1
  H+  H358  1  0.88388535  0.62486152  0.18842442  1
  H+  H359  1  0.83804200  0.45075973  0.07507250  1
  H+  H360  1  0.43689203  0.58172295  0.25469632  1
  H+  H361  1  0.91593653  0.06109847  0.88897249  1
  H+  H362  1  0.15454665  0.73614035  0.68239856  1
  H+  H363  1  0.15713408  0.56331421  0.89026859  1
  H+  H364  1  0.46482792  0.18743523  0.42014260  1
  H+  H365  1  0.43718156  0.37628358  0.26395949  1
  H+  H366  1  0.92604582  0.08248682  0.27002242  1
  H+  H367  1  0.41591506  0.33086242  0.90122634  1
  H+  H368  1  0.91967368  0.32238491  0.29311460  1
  H+  H369  1  0.14554064  0.82528817  0.56528635  1
  H+  H370  1  0.07526386  0.64813823  0.06652553  1
  H+  H371  1  0.57096343  0.16301428  0.44048688  1
  H+  H372  1  0.88184738  0.78911726  0.32707031  1
  H+  H373  1  0.89705802  0.56598812  0.55617881  1
  H+  H374  1  0.16283061  0.32763088  0.26396366  1
  H+  H375  1  0.34038469  0.38224275  0.71624034  1
  H+  H376  1  0.14207844  0.86797158  0.88946097  1
  H+  H377  1  0.10603643  0.50042515  0.66577779  1
  H+  H378  1  0.91686667  0.59287267  0.92766534  1
  H+  H379  1  0.09996597  0.41621893  0.09108811  1
  H+  H380  1  0.17547687  0.32416228  0.89230584  1
  H+  H381  1  0.82776198  0.65473412  0.40130998  1
  H+  H382  1  0.93400627  0.32485735  0.93553716  1
  H+  H383  1  0.40212461  0.64663490  0.15063375  1
  O2-  O384  1  0.06699823  0.15854243  0.13542592  1
  O2-  O385  1  0.08089620  0.17130183  0.49568879  1
  O2-  O386  1  0.07435790  0.15519720  0.81053623  1
  O2-  O387  1  0.09582578  0.40733849  0.13589247  1
  O2-  O388  1  0.08613970  0.39551415  0.48178902  1
  O2-  O389  1  0.08262681  0.39318771  0.81105915  1
  O2-  O390  1  0.06434147  0.65870249  0.14749556  1
  O2-  O391  1  0.07295607  0.66563415  0.48624413  1
  O2-  O392  1  0.05599865  0.70449644  0.80127081  1
  O2-  O393  1  0.07551039  0.90779744  0.14608311  1
  O2-  O394  1  0.06848914  0.90856810  0.48229397  1
  O2-  O395  1  0.08434802  0.90736132  0.82617349  1
  O2-  O396  1  0.33434851  0.17420668  0.14787848  1
  O2-  O397  1  0.32347304  0.16472864  0.49935603  1
  O2-  O398  1  0.32561650  0.16578676  0.81232762  1
  O2-  O399  1  0.33722938  0.42162737  0.14961901  1
  O2-  O400  1  0.32273811  0.42033051  0.48687053  1
  O2-  O401  1  0.33622888  0.40115792  0.79735251  1
  O2-  O402  1  0.36101058  0.66776357  0.13910163  1
  O2-  O403  1  0.33348277  0.67923618  0.50351561  1
  O2-  O404  1  0.32893695  0.62746704  0.81130083  1
  O2-  O405  1  0.31961872  0.90266347  0.14259516  1
  O2-  O406  1  0.35972549  0.93875743  0.48676653  1
  O2-  O407  1  0.33680915  0.94662951  0.80430881  1
  O2-  O408  1  0.67201289  0.23488810  0.11538529  1
  O2-  O409  1  0.55016488  0.19426287  0.46498962  1
  O2-  O410  1  0.59510372  0.17632336  0.80930205  1
  O2-  O411  1  0.59226530  0.43954303  0.16033609  1
  O2-  O412  1  0.61242529  0.42684612  0.45005806  1
  O2-  O413  1  0.57841011  0.42069591  0.81007281  1
  O2-  O414  1  0.61400080  0.67538461  0.15917968  1
  O2-  O415  1  0.58410309  0.66459671  0.46883348  1
  O2-  O416  1  0.57219340  0.65308576  0.80060758  1
  O2-  O417  1  0.57909869  0.90264382  0.15796905  1
  O2-  O418  1  0.58857449  0.89883750  0.47447334  1
  O2-  O419  1  0.57234843  0.89686899  0.80690575  1
  O2-  O420  1  0.82046205  0.16080781  0.16674545  1
  O2-  O421  1  0.83748413  0.17175996  0.48810103  1
  O2-  O422  1  0.83094921  0.14800485  0.81313294  1
  O2-  O423  1  0.83231989  0.41690333  0.19207504  1
  O2-  O424  1  0.82317821  0.41079125  0.47596647  1
  O2-  O425  1  0.82066016  0.43636145  0.80622583  1
  O2-  O426  1  0.84246039  0.67707121  0.16490384  1
  O2-  O427  1  0.82290694  0.65311266  0.47803438  1
  O2-  O428  1  0.82232293  0.66966760  0.81365718  1
  O2-  O429  1  0.83032768  0.91882219  0.14139681  1
  O2-  O430  1  0.83086042  0.91309924  0.48167612  1
  O2-  O431  1  0.81553565  0.89576983  0.81863538  1
  O2-  O432  1  0.16114819  0.08427206  0.16235765  1
  O2-  O433  1  0.15322886  0.07106499  0.52441562  1
  O2-  O434  1  0.16138084  0.07829013  0.86007160  1
  O2-  O435  1  0.15563017  0.31768242  0.18334878  1
  O2-  O436  1  0.17923937  0.33598395  0.53786214  1
  O2-  O437  1  0.17461760  0.32282049  0.84682298  1
  O2-  O438  1  0.12874121  0.56675260  0.18724482  1
  O2-  O439  1  0.15394872  0.58486922  0.53412099  1
  O2-  O440  1  0.15187900  0.55310296  0.84564551  1
  O2-  O441  1  0.15529235  0.82621548  0.19117252  1
  O2-  O442  1  0.13874439  0.82467975  0.52085501  1
  O2-  O443  1  0.13242132  0.86379783  0.84256658  1
  O2-  O444  1  0.34915138  0.05262947  0.20885457  1
  O2-  O445  1  0.41470289  0.09203098  0.53500333  1
  O2-  O446  1  0.44744802  0.07022714  0.86898707  1
  O2-  O447  1  0.41958027  0.34513024  0.18244947  1
  O2-  O448  1  0.39386628  0.33687708  0.52719471  1
  O2-  O449  1  0.41697260  0.32952303  0.85613675  1
  O2-  O450  1  0.45113998  0.59766460  0.17517765  1
  O2-  O451  1  0.41638538  0.59809561  0.50811199  1
  O2-  O452  1  0.41457231  0.55594525  0.85164417  1
  O2-  O453  1  0.40971567  0.82518337  0.19028222  1
  O2-  O454  1  0.43279565  0.84423462  0.52469698  1
  O2-  O455  1  0.40782527  0.83672750  0.83802036  1
  O2-  O456  1  0.65107391  0.06295262  0.20307639  1
  O2-  O457  1  0.65356262  0.07802919  0.51207192  1
  O2-  O458  1  0.67335105  0.08408064  0.85699428  1
  O2-  O459  1  0.66015194  0.33753094  0.19695553  1
  O2-  O460  1  0.67598020  0.33911574  0.52518084  1
  O2-  O461  1  0.66075809  0.33951873  0.85479595  1
  O2-  O462  1  0.67859212  0.59478719  0.20960360  1
  O2-  O463  1  0.65744802  0.57368092  0.51532317  1
  O2-  O464  1  0.65813866  0.58205922  0.85362039  1
  O2-  O465  1  0.66686962  0.83515571  0.19581646  1
  O2-  O466  1  0.66755364  0.82397692  0.52484189  1
  O2-  O467  1  0.65129328  0.82646980  0.84895310  1
  O2-  O468  1  0.91243200  0.07956872  0.19130099  1
  O2-  O469  1  0.91073393  0.07780359  0.52500908  1
  O2-  O470  1  0.91188086  0.06373836  0.84396601  1
  O2-  O471  1  0.91548877  0.32353845  0.22122782  1
  O2-  O472  1  0.93232473  0.33768572  0.52052216  1
  O2-  O473  1  0.93451891  0.30417912  0.85847771  1
  O2-  O474  1  0.91572090  0.59377965  0.20314028  1
  O2-  O475  1  0.89799270  0.56813557  0.51095845  1
  O2-  O476  1  0.90948148  0.59638950  0.85483131  1
  O2-  O477  1  0.92474367  0.84763727  0.19960255  1
  O2-  O478  1  0.90780715  0.82484156  0.52419106  1
  O2-  O479  1  0.91557763  0.82465783  0.86284138  1
  O2-  O480  1  0.09655387  0.04880696  0.27738923  1
  O2-  O481  1  0.16432700  0.08418719  0.64710339  1
  O2-  O482  1  0.16605374  0.08236724  0.98543564  1
  O2-  O483  1  0.16899296  0.33375763  0.30907930  1
  O2-  O484  1  0.18777852  0.35043919  0.60429784  1
  O2-  O485  1  0.16937895  0.32676134  0.97076212  1
  O2-  O486  1  0.15778755  0.59357873  0.30957616  1
  O2-  O487  1  0.08432865  0.53572129  0.64699569  1
  O2-  O488  1  0.16865001  0.57731072  0.97070692  1
  O2-  O489  1  0.17269279  0.83817955  0.31349321  1
  O2-  O490  1  0.16119681  0.83303131  0.65007894  1
  O2-  O491  1  0.15900912  0.85499902  0.95649543  1
  O2-  O492  1  0.42935759  0.05525794  0.31217111  1
  O2-  O493  1  0.41812823  0.10759238  0.65053705  1
  O2-  O494  1  0.40875210  0.08322399  0.98876170  1
  O2-  O495  1  0.46192012  0.40559597  0.30260524  1
  O2-  O496  1  0.39291822  0.33805337  0.65755447  1
  O2-  O497  1  0.42373410  0.33855033  0.98372087  1
  O2-  O498  1  0.43059892  0.58123377  0.29968453  1
  O2-  O499  1  0.39389463  0.60415033  0.66335416  1
  O2-  O500  1  0.42440583  0.57650784  0.97637325  1
  O2-  O501  1  0.42037985  0.82008069  0.31195110  1
  O2-  O502  1  0.42546988  0.81439098  0.65320305  1
  O2-  O503  1  0.38390836  0.81732941  0.95778344  1
  O2-  O504  1  0.67222732  0.05774037  0.32715863  1
  O2-  O505  1  0.65683254  0.08037834  0.66007773  1
  O2-  O506  1  0.68996120  0.11884718  0.97786313  1
  O2-  O507  1  0.66964507  0.31738590  0.31655532  1
  O2-  O508  1  0.65916917  0.32203698  0.64122582  1
  O2-  O509  1  0.65276584  0.34203239  0.97517931  1
  O2-  O510  1  0.67438322  0.59887527  0.27757056  1
  O2-  O511  1  0.63854802  0.57438232  0.63732827  1
  O2-  O512  1  0.66570277  0.57607459  0.97463755  1
  O2-  O513  1  0.65177471  0.85291124  0.32007522  1
  O2-  O514  1  0.65044871  0.82630304  0.64264352  1
  O2-  O515  1  0.66604982  0.81980413  0.97245304  1
  O2-  O516  1  0.93503239  0.08250965  0.31489329  1
  O2-  O517  1  0.91310784  0.08935285  0.64737823  1
  O2-  O518  1  0.90992535  0.05281115  0.96766150  1
  O2-  O519  1  0.91946824  0.32100433  0.33939162  1
  O2-  O520  1  0.94305659  0.37916626  0.64388889  1
  O2-  O521  1  0.93247143  0.34491327  0.97759400  1
  O2-  O522  1  0.93058588  0.58622620  0.32366460  1
  O2-  O523  1  0.89587833  0.57012248  0.63524304  1
  O2-  O524  1  0.91041109  0.58191297  0.97308648  1
  O2-  O525  1  0.91502025  0.84976479  0.31535358  1
  O2-  O526  1  0.91533228  0.84285022  0.64216506  1
  O2-  O527  1  0.90976973  0.81319634  0.98590023  1
  O2-  O528  1  0.07619917  0.16446906  0.01333337  1
  O2-  O529  1  0.08236875  0.17872562  0.37041701  1
  O2-  O530  1  0.08258284  0.16870876  0.69305648  1
  O2-  O531  1  0.10086439  0.41881094  0.01229125  1
  O2-  O532  1  0.08147258  0.39667076  0.37200997  1
  O2-  O533  1  0.09063490  0.39396192  0.68610000  1
  O2-  O534  1  0.08088777  0.64288816  0.02219882  1
  O2-  O535  1  0.08748994  0.67449168  0.34778320  1
  O2-  O536  1  0.15863847  0.69017733  0.70446912  1
  O2-  O537  1  0.07138187  0.91118324  0.02378467  1
  O2-  O538  1  0.06929181  0.89980314  0.35291760  1
  O2-  O539  1  0.07655366  0.91673899  0.69381278  1
  O2-  O540  1  0.33286884  0.17536768  0.02389572  1
  O2-  O541  1  0.40902580  0.17090151  0.39992654  1
  O2-  O542  1  0.32321709  0.17481438  0.69233786  1
  O2-  O543  1  0.33465913  0.41460696  0.01990258  1
  O2-  O544  1  0.32971736  0.42358729  0.36246257  1
  O2-  O545  1  0.33479952  0.37135194  0.67136644  1
  O2-  O546  1  0.33895306  0.66035154  0.01212947  1
  O2-  O547  1  0.33314670  0.65017048  0.33671948  1
  O2-  O548  1  0.40822140  0.67675252  0.70179491  1
  O2-  O549  1  0.32429046  0.90906819  0.01466956  1
  O2-  O550  1  0.34126594  0.90761314  0.34697026  1
  O2-  O551  1  0.33134248  0.94754397  0.68099969  1
  O2-  O552  1  0.57976765  0.18064412  0.01599385  1
  O2-  O553  1  0.58261034  0.14368829  0.34565467  1
  O2-  O554  1  0.58993113  0.16837256  0.68542728  1
  O2-  O555  1  0.58244089  0.42115793  0.01441696  1
  O2-  O556  1  0.62102552  0.43959121  0.33113056  1
  O2-  O557  1  0.57042362  0.40430170  0.68460878  1
  O2-  O558  1  0.59018765  0.65668069  0.02489946  1
  O2-  O559  1  0.59407520  0.68295574  0.33957639  1
  O2-  O560  1  0.55876498  0.64723742  0.68019413  1
  O2-  O561  1  0.56187868  0.90042646  -0.01833093  1
  O2-  O562  1  0.59574589  0.88476745  0.34463566  1
  O2-  O563  1  0.58346057  0.91298112  0.69353481  1
  O2-  O564  1  0.83925120  0.19677411  0.04366958  1
  O2-  O565  1  0.83477723  0.15569491  0.36334255  1
  O2-  O566  1  0.81866124  0.16364082  0.69362026  1
  O2-  O567  1  0.83389802  0.41791005  -0.04049316  1
  O2-  O568  1  0.83173543  0.40055143  0.36348037  1
  O2-  O569  1  0.81788526  0.40767353  0.69032469  1
  O2-  O570  1  0.83126037  0.64891344  0.01177446  1
  O2-  O571  1  0.83798543  0.65788355  0.35614102  1
  O2-  O572  1  0.86449992  0.69085545  0.69545016  1
  O2-  O573  1  0.82794898  0.89932674  0.01932206  1
  O2-  O574  1  0.84413960  0.92707335  0.35784410  1
  O2-  O575  1  0.87859225  0.94115631  0.70416437  1
