# generated using pymatgen
data_H2O
_symmetry_space_group_name_H-M   'P 1'
_cell_length_a   17.99365572
_cell_length_b   17.99562136
_cell_length_c   21.99938950
_cell_angle_alpha   89.98379986
_cell_angle_beta   90.00283845
_cell_angle_gamma   120.03252630
_symmetry_Int_Tables_number   1
_chemical_formula_structural   H2O
_chemical_formula_sum   'H384 O192'
_cell_volume   6167.15775930
_cell_formula_units_Z   192
loop_
 _symmetry_equiv_pos_site_id
 _symmetry_equiv_pos_as_xyz
  1  'x, y, z'
loop_
 _atom_type_symbol
 _atom_type_oxidation_number
  H+  1.0
  O2-  -2.0
loop_
 _atom_site_type_symbol
 _atom_site_label
 _atom_site_symmetry_multiplicity
 _atom_site_fract_x
 _atom_site_fract_y
 _atom_site_fract_z
 _atom_site_occupancy
  H+  H0  1  0.64350015  1.03458752  0.16284689  1
  H+  H1  1  0.35379405  0.72107024  0.67125704  1
  H+  H2  1  0.88732683  0.79673661  1.00159499  1
  H+  H3  1  0.34752120  0.61442044  0.34795035  1
  H+  H4  1  0.40285506  0.86156089  0.51036650  1
  H+  H5  1  0.96638083  0.10876056  0.31943349  1
  H+  H6  1  0.14777543  0.77837398  0.33193959  1
  H+  H7  1  0.38044554  0.31221942  0.59637830  1
  H+  H8  1  0.64317505  0.27495192  0.16023439  1
  H+  H9  1  0.45650961  0.35188667  0.80402805  1
  H+  H10  1  0.10702929  0.97235284  0.82304840  1
  H+  H11  1  0.11454360  -0.02384108  0.66706017  1
  H+  H12  1  0.17903309  0.33948784  0.94109846  1
  H+  H13  1  0.86274406  0.73035306  0.16836377  1
  H+  H14  1  0.17055709  0.39505237  0.54336088  1
  H+  H15  1  0.13232585  0.13984228  1.00404986  1
  H+  H16  1  0.73121406  0.36690379  0.16435891  1
  H+  H17  1  0.11266103  0.64009919  0.49547200  1
  H+  H18  1  0.88546712  0.86839495  0.17178536  1
  H+  H19  1  0.45757794  0.16873389  0.52950580  1
  H+  H20  1  0.61678371  0.36668554  0.81799667  1
  H+  H21  1  0.88489469  0.17217474  0.99204071  1
  H+  H22  1  0.63004535  0.01645321  0.99486512  1
  H+  H23  1  0.35746539  0.37644043  0.83643857  1
  H+  H24  1  0.65936304  0.63041225  0.66509748  1
  H+  H25  1  0.61648338  0.36644320  0.50365297  1
  H+  H26  1  0.60642187  0.72255500  0.82486550  1
  H+  H27  1  0.61512865  0.70657559  0.46027859  1
  H+  H28  1  0.62597178  0.73019594  0.66120184  1
  H+  H29  1  0.88714146  0.12131946  0.51167271  1
  H+  H30  1  0.61781607  0.27849883  0.49743932  1
  H+  H31  1  0.28676256  0.36357309  0.35431925  1
  H+  H32  1  -0.02417083  0.35745637  0.66121721  1
  H+  H33  1  0.10908580  0.19114750  0.16502913  1
  H+  H34  1  0.38071545  0.61880370  0.98014242  1
  H+  H35  1  1.01501811  0.38187928  0.82997894  1
  H+  H36  1  0.91952379  0.87264840  0.58892040  1
  H+  H37  1  0.86339652  0.88622164  0.66892904  1
  H+  H38  1  0.16431956  0.73533792  0.98091506  1
  H+  H39  1  0.88677675  0.86987920  0.84634027  1
  H+  H40  1  0.08386100  0.91218298  0.07028687  1
  H+  H41  1  0.86249528  0.13204137  0.66959303  1
  H+  H42  1  0.15061445  0.27787586  0.67999684  1
  H+  H43  1  0.38653549  0.27157254  0.50107137  1
  H+  H44  1  0.73457388  0.61043054  0.35679697  1
  H+  H45  1  0.21439989  0.10210746  0.83649863  1
  H+  H46  1  0.39918122  0.26818173  0.32762459  1
  H+  H47  1  0.31530262  0.64475295  0.76069084  1
  H+  H48  1  0.77663328  0.39017587  0.33679152  1
  H+  H49  1  0.37861786  0.85083766  -0.01226092  1
  H+  H50  1  0.15135229  0.89313902  0.99080985  1
  H+  H51  1  -0.01837922  0.36754188  0.50395701  1
  H+  H52  1  0.38956713  0.76795833  0.51446884  1
  H+  H53  1  0.72912653  0.10852851  0.66871942  1
  H+  H54  1  0.84357149  -0.02452475  0.16836424  1
  H+  H55  1  0.76230421  0.88063005  0.16576245  1
  H+  H56  1  0.61926037  0.39181650  0.67116974  1
  H+  H57  1  0.62739220  0.16043200  0.49440996  1
  H+  H58  1  0.61820633  0.77732882  0.91148389  1
  H+  H59  1  0.25310166  0.90492299  0.84009483  1
  H+  H60  1  0.11424687  0.88634990  0.16732210  1
  H+  H61  1  0.46523628  0.60800348  0.48911413  1
  H+  H62  1  0.10157312  0.23679345  0.32935483  1
  H+  H63  1  0.37288065  -0.03288396  1.00144722  1
  H+  H64  1  0.84558674  0.54715986  1.06071202  1
  H+  H65  1  0.36463470  0.13436832  0.66908479  1
  H+  H66  1  0.09534151  0.18558174  0.27179852  1
  H+  H67  1  0.58985271  0.87142290  0.70727675  1
  H+  H68  1  0.73462016  0.12253327  0.16001702  1
  H+  H69  1  0.63267733  0.27119834  0.65725005  1
  H+  H70  1  0.71414096  0.35392407  1.02198557  1
  H+  H71  1  0.27810026  0.13829731  0.34413357  1
  H+  H72  1  0.76060286  0.87548887  0.82849310  1
  H+  H73  1  0.24431388  0.37559659  0.51878010  1
  H+  H74  1  0.78340115  0.15694570  0.49861586  1
  H+  H75  1  0.71983362  0.64139357  0.99753614  1
  H+  H76  1  0.37416685  0.38056444  0.16316412  1
  H+  H77  1  0.47226550  0.36561538  0.50758663  1
  H+  H78  1  0.88713232  0.27760319  0.32773130  1
  H+  H79  1  0.87471711  0.23675331  0.49264212  1
  H+  H80  1  0.62086960  0.90261164  0.15630167  1
  H+  H81  1  0.89702303  0.33342023  0.99965554  1
  H+  H82  1  0.11129955  0.88699085  0.66817532  1
  H+  H83  1  0.12987589  0.27147740  0.84907424  1
  H+  H84  1  0.13305534  0.01344532  0.99639804  1
  H+  H85  1  0.24957893  0.89453386  -0.01092133  1
  H+  H86  1  0.35874468  0.72346564  0.14797850  1
  H+  H87  1  0.63007748  0.61274057  0.83807909  1
  H+  H88  1  0.37769967  -0.02435248  0.49367425  1
  H+  H89  1  0.87094724  0.63980364  0.34682346  1
  H+  H90  1  0.48527718  0.09984756  0.15335728  1
  H+  H91  1  0.49695549  0.13049457  0.33573512  1
  H+  H92  1  0.60914859  0.23088362  0.33070400  1
  H+  H93  1  0.86772219  0.64416714  0.16381619  1
  H+  H94  1  0.78197896  0.83633327  0.48353249  1
  H+  H95  1  0.61557873  0.21978107  0.98869875  1
  H+  H96  1  0.02703347  0.89156598  0.16420064  1
  H+  H97  1  0.63115397  0.59511631  0.17048617  1
  H+  H98  1  0.88813918  0.60921351  0.50963389  1
  H+  H99  1  0.87627933  0.39694602  0.49391682  1
  H+  H100  1  0.03895195  0.89456536  0.34769890  1
  H+  H101  1  0.06756434  0.13627984  0.74846130  1
  H+  H102  1  0.63667855  0.02173138  0.67039646  1
  H+  H103  1  0.75614294  0.36990839  0.81282484  1
  H+  H104  1  0.64209305  0.60581211  0.36187172  1
  H+  H105  1  0.88526942  0.72703936  0.52830726  1
  H+  H106  1  0.02157658  0.88639910  0.01063940  1
  H+  H107  1  0.02941196  0.04886416  0.71360603  1
  H+  H108  1  0.73168688  0.22117650  0.56134241  1
  H+  H109  1  0.96507857  0.09928482  0.66335585  1
  H+  H110  1  0.13473264  0.50501519  0.99179730  1
  H+  H111  1  0.05934016  0.09464993  0.14258521  1
  H+  H112  1  0.37077576  0.26049976  0.80953162  1
  H+  H113  1  0.86441291  0.14039768  0.34343873  1
  H+  H114  1  0.14096382  0.11522030  0.32898859  1
  H+  H115  1  0.84733027  0.65541868  1.01574098  1
  H+  H116  1  0.09544363  -0.00839089  0.49921568  1
  H+  H117  1  0.47186721  0.85834314  0.16287674  1
  H+  H118  1  1.02622219  0.64372085  0.49799800  1
  H+  H119  1  0.86523093  0.44550955  0.00201032  1
  H+  H120  1  0.48247594  0.09590701  -0.02134335  1
  H+  H121  1  0.13644848  0.62268326  0.32366839  1
  H+  H122  1  0.38734114  0.51757419  0.84537967  1
  H+  H123  1  0.24858620  0.62401225  0.00345231  1
  H+  H124  1  0.37804843  0.60133578  0.17316181  1
  H+  H125  1  0.94804678  0.47114174  0.03693075  1
  H+  H126  1  0.37864640  0.48676878  0.66823700  1
  H+  H127  1  0.65027215  0.82973297  0.48560364  1
  H+  H128  1  1.00640977  0.39647098  0.33184200  1
  H+  H129  1  0.01627559  0.13173808  0.83350200  1
  H+  H130  1  0.52027774  0.62053737  0.15827454  1
  H+  H131  1  0.12217038  0.37697405  1.01140894  1
  H+  H132  1  0.97775440  0.12730247  0.51461101  1
  H+  H133  1  0.88866526  0.05426293  0.99513239  1
  H+  H134  1  0.97723033  0.87496288  0.64552007  1
  H+  H135  1  0.77111145  0.37257571  0.66165438  1
  H+  H136  1  0.72374732  0.09912022  0.99288137  1
  H+  H137  1  0.52341746  0.68548256  0.97472101  1
  H+  H138  1  0.94583815  0.59396304  0.78793223  1
  H+  H139  1  0.28840586  0.88712139  0.49508356  1
  H+  H140  1  0.39066092  0.02478049  0.66200065  1
  H+  H141  1  0.89249978  0.52779497  0.32555764  1
  H+  H142  1  0.38919887  0.11673469  0.33685163  1
  H+  H143  1  0.49194544  0.11961544  0.81020021  1
  H+  H144  1  0.87008217  0.11818750  0.17165080  1
  H+  H145  1  0.14200339  0.63662125  0.16529449  1
  H+  H146  1  0.53635629  0.64264216  0.66380262  1
  H+  H147  1  0.72285028  0.08928033  0.83509866  1
  H+  H148  1  0.14245492  0.10702602  0.66379062  1
  H+  H149  1  0.61709022  0.49779363  0.50353080  1
  H+  H150  1  0.63267357  0.55323800  -0.00043695  1
  H+  H151  1  0.87272732  0.34861320  0.84067614  1
  H+  H152  1  0.42298682  0.09064895  0.57397144  1
  H+  H153  1  0.38126320  0.85477824  0.16124850  1
  H+  H154  1  0.48475775  0.35843681  0.16878683  1
  H+  H155  1  0.14100366  0.36042517  0.15371206  1
  H+  H156  1  0.26734778  0.63014623  0.66506634  1
  H+  H157  1  0.73383761  0.10705597  0.32376578  1
  H+  H158  1  0.57328740  0.21600822  0.81085652  1
  H+  H159  1  0.35902912  0.46193976  0.17114812  1
  H+  H160  1  0.35761630  0.38249126  0.49577987  1
  H+  H161  1  0.62498361  0.14386670  0.14746164  1
  H+  H162  1  0.13460487  0.77177092  0.18206956  1
  H+  H163  1  0.26378976  0.63856675  0.15146118  1
  H+  H164  1  0.22350202  0.59890459  0.83828013  1
  H+  H165  1  0.15506438  0.78338098  0.50574430  1
  H+  H166  1  0.64165992  0.36242294  0.31655275  1
  H+  H167  1  0.97447790  0.86835207  0.84502714  1
  H+  H168  1  0.60809481  0.83854433  0.86061857  1
  H+  H169  1  0.14910246  0.38603342  0.18239619  1
  H+  H170  1  0.26722282  0.39563990  0.01824766  1
  H+  H171  1  0.34950518  0.61970312  0.81950176  1
  H+  H172  1  0.60320165  0.40545793  0.00792399  1
  H+  H173  1  0.12187301  0.25234393  0.50647084  1
  H+  H174  1  0.61489098  0.38451928  0.15508759  1
  H+  H175  1  0.85588666  0.23878733  0.16206505  1
  H+  H176  1  0.72231270  0.60153902  0.17503826  1
  H+  H177  1  0.36394890  0.89448191  0.68487973  1
  H+  H178  1  0.58456445  0.87780417  0.42307862  1
  H+  H179  1  0.46574399  0.59142729  0.33614881  1
  H+  H180  1  0.85491303  0.97061135  0.67190664  1
  H+  H181  1  0.53165645  0.84753183  0.48557943  1
  H+  H182  1  0.62564516  0.90783286  0.00278639  1
  H+  H183  1  0.60571431  0.71681192  0.36345547  1
  H+  H184  1  0.62026733  0.13298037  -0.00631503  1
  H+  H185  1  0.48740608  0.35943683  0.32529762  1
  H+  H186  1  0.39877471  0.10122867  0.15991724  1
  H+  H187  1  0.70045790  0.89472489  0.93317951  1
  H+  H188  1  0.00809369  0.40121929  0.15543044  1
  H+  H189  1  0.15694699  0.27472887  -0.00194886  1
  H+  H190  1  0.61338483  0.13480298  0.67377100  1
  H+  H191  1  0.36517656  0.96844490  0.14881329  1
  H+  H192  1  0.28711458  0.89476444  0.34194759  1
  H+  H193  1  0.58174232  0.42726418  0.75649640  1
  H+  H194  1  0.86549786  0.22355696  0.66820792  1
  H+  H195  1  0.37895955  0.60980630  0.50219310  1
  H+  H196  1  0.62495642  0.47740109  0.34883002  1
  H+  H197  1  0.99170460  0.96012446  0.29048264  1
  H+  H198  1  0.33496324  0.10374514  0.81889223  1
  H+  H199  1  0.11032816  0.39207667  0.46644291  1
  H+  H200  1  0.60080053  0.47727016  0.82174224  1
  H+  H201  1  0.27873096  0.38592346  0.86081278  1
  H+  H202  1  0.68338870  0.12469417  0.58158203  1
  H+  H203  1  0.11295651  0.37339517  0.34091035  1
  H+  H204  1  0.52865562  0.13185620  0.48765213  1
  H+  H205  1  0.32581232  0.65898185  0.43922434  1
  H+  H206  1  0.61203070  0.70261203  0.15993776  1
  H+  H207  1  0.90679296  0.89591320  0.32402604  1
  H+  H208  1  0.75986429  0.93125011  -0.00809414  1
  H+  H209  1  0.84509102  0.45555614  0.79885194  1
  H+  H210  1  0.11089542  0.38614683  0.68153573  1
  H+  H211  1  0.95270960  0.10945994  0.17466764  1
  H+  H212  1  0.27128403  0.88215231  0.15576822  1
  H+  H213  1  0.59293624  0.79626113  0.20099753  1
  H+  H214  1  0.21915892  0.73131668  0.78639578  1
  H+  H215  1  0.84123305  0.89944197  0.40067024  1
  H+  H216  1  0.22795578  0.09238597  0.99365460  1
  H+  H217  1  0.20134760  0.72737454  -0.01766143  1
  H+  H218  1  0.75392227  0.61460325  0.82085117  1
  H+  H219  1  0.23274592  0.10852555  0.65802635  1
  H+  H220  1  0.90318645  0.31275459  0.89755740  1
  H+  H221  1  0.86423877  0.38940832  0.33765354  1
  H+  H222  1  0.17793455  0.12189085  0.19065438  1
  H+  H223  1  0.74205602  0.86085000  0.64655273  1
  H+  H224  1  0.14986764  0.86739116  0.33603040  1
  H+  H225  1  0.35643580  0.29304529  0.03813796  1
  H+  H226  1  0.28855386  0.40630105  0.68383155  1
  H+  H227  1  0.72293763  0.84317483  0.33807857  1
  H+  H228  1  0.34467448  0.72206811  0.00078526  1
  H+  H229  1  0.84342537  0.75731720  0.48028542  1
  H+  H230  1  0.23446910  0.87778578  0.66450119  1
  H+  H231  1  0.73548967  0.62512456  0.51338315  1
  H+  H232  1  0.35889163  0.34673923  0.65728580  1
  H+  H233  1  0.12840868  0.61051284  0.65848122  1
  H+  H234  1  0.63444742  0.48647609  0.67269151  1
  H+  H235  1  0.85404398  0.58674158  0.78443859  1
  H+  H236  1  0.52251801  0.87451955  0.00354926  1
  H+  H237  1  0.42323895  0.43208903  0.93498857  1
  H+  H238  1  0.16788824  0.09392887  0.56772145  1
  H+  H239  1  0.85646351  0.21615358  0.82262374  1
  H+  H240  1  0.27007327  0.63526009  0.50015774  1
  H+  H241  1  0.89651429  0.53346665  0.17310131  1
  H+  H242  1  0.29156849  0.12700994  0.16487363  1
  H+  H243  1  0.68462805  0.59291913  0.57502772  1
  H+  H244  1  0.66174993  0.86580197  0.62018082  1
  H+  H245  1  1.02743493  0.64384967  0.34057449  1
  H+  H246  1  0.39605641  0.62042264  0.65197750  1
  H+  H247  1  0.39099088  0.08809111  0.98667949  1
  H+  H248  1  0.07388820  0.58051129  0.01996451  1
  H+  H249  1  0.36228363  0.18913848  0.00535273  1
  H+  H250  1  0.16644364  0.76596704  0.82057415  1
  H+  H251  1  0.13914541  0.13257365  0.51194900  1
  H+  H252  1  0.40666805  0.87831522  0.32048204  1
  H+  H253  1  0.93218380  0.58338081  1.02623200  1
  H+  H254  1  0.12671507  0.97756983  0.35671453  1
  H+  H255  1  0.61479217  1.01153833  0.49223080  1
  H+  H256  1  0.58205805  0.91833203  0.09574443  1
  H+  H257  1  0.10421673  0.47202255  0.83110170  1
  H+  H258  1  0.39425328  0.02688119  0.33611805  1
  H+  H259  1  0.10642426  0.13253542  0.83584938  1
  H+  H260  1  0.85366385  0.38072122  0.16999298  1
  H+  H261  1  0.61139651  -0.00595147  0.52363497  1
  H+  H262  1  0.88097501  0.10823095  0.83251246  1
  H+  H263  1  0.46458199  0.85811092  0.67415075  1
  H+  H264  1  0.13257865  0.52584102  0.50347916  1
  H+  H265  1  0.87784686  0.91584059  0.01285029  1
  H+  H266  1  0.89156886  0.57327239  0.68260979  1
  H+  H267  1  0.59785735  -0.04362384  0.84538881  1
  H+  H268  1  0.34497222  0.21468708  0.66819332  1
  H+  H269  1  0.02837623  0.66061250  0.67506506  1
  H+  H270  1  0.13167336  0.54384346  0.16633829  1
  H+  H271  1  0.12614901  0.51964774  0.66298379  1
  H+  H272  1  0.37731098  0.44271439  0.01497912  1
  H+  H273  1  0.24436240  0.30864150  0.18421680  1
  H+  H274  1  0.34415206  0.12440539  0.49578305  1
  H+  H275  1  0.26410846  0.62339013  0.34379838  1
  H+  H276  1  0.40112817  0.30078994  1.04294820  1
  H+  H277  1  0.85531853  0.97107386  0.34897336  1
  H+  H278  1  -0.03987216  0.91930636  0.49690710  1
  H+  H279  1  0.35929753  0.47281131  0.49291094  1
  H+  H280  1  0.53443099  0.88211594  0.32845386  1
  H+  H281  1  0.14515809  0.61517418  0.84295090  1
  H+  H282  1  0.48909063  0.43613196  0.98907477  1
  H+  H283  1  0.81844780  0.64267518  0.65871675  1
  H+  H284  1  0.47182777  0.60794143  0.82778493  1
  H+  H285  1  0.48237884  0.11359645  0.65854511  1
  H+  H286  1  0.89360264  0.52418453  0.51085113  1
  H+  H287  1  0.87761106  1.01778877  0.83816160  1
  H+  H288  1  0.88371537  0.35275487  0.65496747  1
  H+  H289  1  0.18812653  0.37053365  0.30627672  1
  H+  H290  1  0.41639355  0.83448416  0.60955599  1
  H+  H291  1  0.14873964  0.78655406  0.65700463  1
  H+  H292  1  0.92379648  0.59055410  0.26757684  1
  H+  H293  1  0.65450995  0.33071210  0.59799287  1
  H+  H294  1  0.04642537  0.60199820  0.08497700  1
  H+  H295  1  0.39681793  0.26715913  0.91876877  1
  H+  H296  1  0.08539130  0.67165696  0.40124825  1
  H+  H297  1  0.90835452  0.59406007  0.61047498  1
  H+  H298  1  0.07655664  0.41518401  0.73800028  1
  H+  H299  1  0.16008720  0.56971302  0.93402161  1
  H+  H300  1  0.37540378  0.21981950  0.15685636  1
  H+  H301  1  0.59302799  0.16912347  0.08634845  1
  H+  H302  1  0.63552616  0.84743190  0.33323911  1
  H+  H303  1  0.83185458  0.16104586  0.76122487  1
  H+  H304  1  0.08750228  0.16673316  0.05596080  1
  H+  H305  1  0.59639598  0.39840683  0.39390969  1
  H+  H306  1  0.63468405  0.32055495  0.87295813  1
  H+  H307  1  0.91237037  0.08151429  0.59984167  1
  H+  H308  1  0.85431515  0.67606357  0.40768931  1
  H+  H309  1  0.82672322  0.68855009  0.07503996  1
  H+  H310  1  0.65887525  0.58937355  0.90053530  1
  H+  H311  1  0.61597341  0.47535987  0.16250182  1
  H+  H312  1  0.92661387  0.85324920  0.23058966  1
  H+  H313  1  0.09233836  0.19959966  0.44481080  1
  H+  H314  1  0.34832407  0.92152797  0.40055476  1
  H+  H315  1  0.19038572  0.87625698  0.91721572  1
  H+  H316  1  0.85281192  0.19660797  0.09473903  1
  H+  H317  1  0.33445774  0.16644813  0.40415211  1
  H+  H318  1  0.90693138  0.09501609  0.92859769  1
  H+  H319  1  0.09810674  0.71383659  0.10885137  1
  H+  H320  1  0.55565473  0.90337605  0.76013394  1
  H+  H321  1  0.07926307  0.91281455  0.76342476  1
  H+  H322  1  0.57930580  0.43008053  0.07100431  1
  H+  H323  1  0.67933346  0.07798396  0.26261318  1
  H+  H324  1  0.15738516  0.57812902  0.56679891  1
  H+  H325  1  0.89886816  0.32905735  0.26413992  1
  H+  H326  1  0.93661424  0.63830164  0.89822740  1
  H+  H327  1  0.83935681  0.93571678  0.07231126  1
  H+  H328  1  0.31608632  0.66303844  0.07038471  1
  H+  H329  1  0.07149729  0.43046739  0.42086339  1
  H+  H330  1  0.92529938  0.33425560  0.56598414  1
  H+  H331  1  0.42665115  0.32378526  0.22878599  1
  H+  H332  1  0.67006621  0.06941558  0.89651139  1
  H+  H333  1  0.02738890  0.36090329  0.00421028  1
  H+  H334  1  0.41743132  0.59847676  0.92070807  1
  H+  H335  1  0.17267585  0.83701946  0.23835398  1
  H+  H336  1  0.44447122  0.28506415  0.91575798  1
  H+  H337  1  0.31491735  0.14307192  0.76045821  1
  H+  H338  1  0.13012013  0.36033394  0.84735755  1
  H+  H339  1  0.17611911  0.33131139  0.61857076  1
  H+  H340  1  0.89344515  0.07412815  0.26989471  1
  H+  H341  1  0.34148532  0.93943995  0.74151539  1
  H+  H342  1  0.10272806  0.68857592  0.72636961  1
  H+  H343  1  0.81680435  0.90469892  0.76729752  1
  H+  H344  1  0.80124376  0.27692737  0.21404136  1
  H+  H345  1  0.42714532  0.59245838  0.59251309  1
  H+  H346  1  0.16068490  0.07289865  0.89896650  1
  H+  H347  1  0.83572598  0.17341244  0.40140589  1
  H+  H348  1  0.71267806  0.38665201  0.95752886  1
  H+  H349  1  0.56272328  0.46475914  0.44428811  1
  H+  H350  1  0.32516540  0.41878733  0.08447761  1
  H+  H351  1  0.61405316  0.69499862  -0.01551578  1
  H+  H352  1  0.17604394  0.07611111  0.27917164  1
  H+  H353  1  0.32956281  0.90673317  0.06205763  1
  H+  H354  1  0.58462926  0.17256453  0.39302506  1
  H+  H355  1  0.84716926  0.42916345  0.43573446  1
  H+  H356  1  0.41007563  0.57716143  0.23437133  1
  H+  H357  1  0.82501001  0.38908229  0.72179404  1
  H+  H358  1  0.62889199  0.96538928  0.33179010  1
  H+  H359  1  0.33775143  0.13947907  0.06729509  1
  H+  H360  1  0.93755514  0.59706460  0.90067042  1
  H+  H361  1  0.16529467  0.59611159  0.26174408  1
  H+  H362  1  0.66119325  0.80898731  0.24962815  1
  H+  H363  1  0.68293740  0.80142660  0.54393894  1
  H+  H364  1  0.98430359  0.62562032  0.16943832  1
  H+  H365  1  0.14804819  0.02013915  0.18122786  1
  H+  H366  1  0.06700802  0.92237176  0.44634674  1
  H+  H367  1  0.58919761  0.67247136  0.76058355  1
  H+  H368  1  0.38134785  0.50320139  0.31925357  1
  H+  H369  1  0.26127622  0.13635151  0.49462801  1
  H+  H370  1  0.79296704  0.65149110  0.75593856  1
  H+  H371  1  0.06650721  0.42570824  0.09639273  1
  H+  H372  1  0.92337478  0.85486918  0.94108430  1
  H+  H373  1  0.14746076  0.87842380  0.83786669  1
  H+  H374  1  0.50567108  0.87246928  0.86265885  1
  H+  H375  1  0.67016952  0.33007767  0.25770636  1
  H+  H376  1  0.35976942  0.36220149  0.31481224  1
  H+  H377  1  0.18798131  0.84506817  0.56334246  1
  H+  H378  1  0.85106572  0.41824013  0.10439508  1
  H+  H379  1  0.57135993  0.16160288  0.72808532  1
  H+  H380  1  0.42406580  0.84052980  0.26030552  1
  H+  H381  1  0.39100468  0.03454753  0.88361067  1
  H+  H382  1  0.09920977  0.48880120  0.33082764  1
  H+  H383  1  0.23110801  0.28186069  0.25098480  1
  O2-  O384  1  0.05849766  0.14837269  0.14168313  1
  O2-  O385  1  0.09088373  0.19310546  0.48879950  1
  O2-  O386  1  0.07768095  0.16378473  0.81906321  1
  O2-  O387  1  0.05703537  0.44815490  0.13499096  1
  O2-  O388  1  0.08013572  0.42440146  0.46639435  1
  O2-  O389  1  0.07567670  0.41170758  0.81534642  1
  O2-  O390  1  0.08201716  0.67259907  0.14191870  1
  O2-  O391  1  0.08504840  0.67269338  0.48002722  1
  O2-  O392  1  0.16026865  0.71543322  0.79691522  1
  O2-  O393  1  0.08898495  0.92169388  0.15173213  1
  O2-  O394  1  0.05080900  0.93254873  0.48726192  1
  O2-  O395  1  0.08153828  0.91154576  0.80883461  1
  O2-  O396  1  0.34618234  0.15878052  0.14209339  1
  O2-  O397  1  0.32203632  0.16031377  0.47856149  1
  O2-  O398  1  0.31122263  0.14065033  0.80616801  1
  O2-  O399  1  0.33381370  0.40264971  0.15365112  1
  O2-  O400  1  0.32386558  0.41023823  0.48296700  1
  O2-  O401  1  0.34196285  0.41309093  0.86250991  1
  O2-  O402  1  0.32363697  0.66249240  0.13231624  1
  O2-  O403  1  0.33047353  0.66366573  0.48521549  1
  O2-  O404  1  0.31056361  0.64105373  0.80566096  1
  O2-  O405  1  0.32835127  0.90559973  0.13575372  1
  O2-  O406  1  0.35036875  0.91679658  0.47856272  1
  O2-  O407  1  0.33603261  0.95031094  0.81671992  1
  O2-  O408  1  0.59343627  0.17281675  0.13147841  1
  O2-  O409  1  0.58593167  0.16915766  0.46957915  1
  O2-  O410  1  0.55208005  0.15628080  0.79750841  1
  O2-  O411  1  0.58242168  0.41412229  0.14366607  1
  O2-  O412  1  0.57591735  0.44226823  0.48059764  1
  O2-  O413  1  0.57322520  0.41931457  0.80239979  1
  O2-  O414  1  0.57929757  0.64480255  0.14243724  1
  O2-  O415  1  0.56380238  0.65351802  0.44369712  1
  O2-  O416  1  0.58094749  0.66474356  0.80537908  1
  O2-  O417  1  0.58374300  0.92398712  0.14180514  1
  O2-  O418  1  0.58515871  0.85864619  0.46543880  1
  O2-  O419  1  0.55717011  0.89307441  0.83621763  1
  O2-  O420  1  0.84057523  0.18213266  0.13825707  1
  O2-  O421  1  0.83938766  0.17511414  0.47898749  1
  O2-  O422  1  0.82983945  0.15643610  0.80669111  1
  O2-  O423  1  0.83864089  0.42320147  0.14742518  1
  O2-  O424  1  0.85237821  0.43335153  0.48060614  1
  O2-  O425  1  0.81791600  0.39182977  0.80445100  1
  O2-  O426  1  0.83363183  0.67162001  0.15062405  1
  O2-  O427  1  0.84665185  0.70549205  0.49344561  1
  O2-  O428  1  0.80744134  0.63772483  0.79611731  1
  O2-  O429  1  0.82229015  0.91614646  0.15223055  1
  O2-  O430  1  0.84111523  0.84925798  0.46754821  1
  O2-  O431  1  0.81947791  0.90934026  0.81256990  1
  O2-  O432  1  0.18926744  0.07610064  0.20240510  1
  O2-  O433  1  0.16582611  0.09733236  0.52200767  1
  O2-  O434  1  0.15451506  0.07442846  0.85401485  1
  O2-  O435  1  0.20620361  0.25867439  0.21069192  1
  O2-  O436  1  0.18402340  0.34904869  0.54090168  1
  O2-  O437  1  0.15967276  0.33113196  0.86532042  1
  O2-  O438  1  0.17130341  0.60375999  0.18076445  1
  O2-  O439  1  0.16223281  0.58428772  0.52143501  1
  O2-  O440  1  0.16357703  0.57531998  0.85811721  1
  O2-  O441  1  0.16681743  0.83446444  0.19292629  1
  O2-  O442  1  0.19392282  0.84354246  0.51854638  1
  O2-  O443  1  0.18769350  0.86164036  0.85741908  1
  O2-  O444  1  0.42486960  0.06493937  0.16725290  1
  O2-  O445  1  0.42866022  0.10613718  0.52821967  1
  O2-  O446  1  0.38082091  0.04005598  0.83980490  1
  O2-  O447  1  0.42297399  0.32430196  0.18349963  1
  O2-  O448  1  0.41053555  0.33004409  0.51845710  1
  O2-  O449  1  0.39315599  0.32190096  0.80151850  1
  O2-  O450  1  0.40680209  0.57087906  0.18911916  1
  O2-  O451  1  0.41175052  0.57944012  0.51319433  1
  O2-  O452  1  0.41281619  0.58165659  0.84491015  1
  O2-  O453  1  0.41082590  0.82301079  0.17535704  1
  O2-  O454  1  0.42678749  0.82795382  0.52961773  1
  O2-  O455  1  0.41028183  0.81515755  0.91205706  1
  O2-  O456  1  0.67524173  0.09491386  0.17746693  1
  O2-  O457  1  0.70195528  0.16298230  0.54503410  1
  O2-  O458  1  0.66432421  0.05650686  0.85260359  1
  O2-  O459  1  0.67002470  0.33380455  0.17865555  1
  O2-  O460  1  0.63743084  0.33076026  0.52212930  1
  O2-  O461  1  0.64274859  0.32855245  0.82928830  1
  O2-  O462  1  0.66141113  0.56557505  0.18709284  1
  O2-  O463  1  0.67736628  0.58886813  0.53026957  1
  O2-  O464  1  0.65589887  0.57949857  0.85563096  1
  O2-  O465  1  0.65292095  0.81115209  0.20404425  1
  O2-  O466  1  0.68421476  0.80056131  0.49879021  1
  O2-  O467  1  0.64372215  0.81218462  0.87226797  1
  O2-  O468  1  0.89321058  0.08236999  0.19027000  1
  O2-  O469  1  0.91822459  0.09356821  0.52925919  1
  O2-  O470  1  0.91093002  0.07897819  0.85114800  1
  O2-  O471  1  0.86080391  0.30985547  0.20018960  1
  O2-  O472  1  0.92218118  0.33507363  0.52021507  1
  O2-  O473  1  0.90692347  0.32102634  0.85305199  1
  O2-  O474  1  0.92365130  0.59428516  0.18677560  1
  O2-  O475  1  0.91982708  0.58479783  0.52910689  1
  O2-  O476  1  0.88814158  0.55692615  0.77243561  1
  O2-  O477  1  0.91939542  0.84165628  0.18598944  1
  O2-  O478  1  0.90150183  0.90937270  0.51283270  1
  O2-  O479  1  0.92054158  0.84854360  0.86797575  1
  O2-  O480  1  0.17165221  0.08277754  0.32402215  1
  O2-  O481  1  0.17153537  0.08094237  0.64154628  1
  O2-  O482  1  0.16855573  0.07253559  0.97915364  1
  O2-  O483  1  0.14551338  0.34103850  0.33811528  1
  O2-  O484  1  0.16916979  0.33465426  0.66336183  1
  O2-  O485  1  0.18308447  0.33841474  0.98670325  1
  O2-  O486  1  0.16144094  0.58814101  0.30676730  1
  O2-  O487  1  0.15673580  0.57817952  0.64422005  1
  O2-  O488  1  0.15984600  0.56690670  0.97994422  1
  O2-  O489  1  0.18013453  0.83943793  0.31723239  1
  O2-  O490  1  0.17701775  0.84785313  0.64432154  1
  O2-  O491  1  0.19891475  0.89340921  0.96613851  1
  O2-  O492  1  0.42358098  0.08972036  0.32251478  1
  O2-  O493  1  0.42082625  0.08403063  0.64346502  1
  O2-  O494  1  0.42056608  0.05978683  0.96745074  1
  O2-  O495  1  0.42797176  0.32619821  0.30809874  1
  O2-  O496  1  0.35165966  0.29416020  0.63625466  1
  O2-  O497  1  0.44041659  0.44460130  0.97777037  1
  O2-  O498  1  0.41096970  0.56610152  0.31337494  1
  O2-  O499  1  0.43238951  0.59643179  0.63771860  1
  O2-  O500  1  0.42519795  0.60733964  0.96571980  1
  O2-  O501  1  0.43706824  0.84970097  0.30408849  1
  O2-  O502  1  0.40701503  0.83186887  0.65466952  1
  O2-  O503  1  0.40598742  0.81491399  0.97760765  1
  O2-  O504  1  0.67740177  0.06497264  0.30630747  1
  O2-  O505  1  0.66783973  0.08050753  0.65386007  1
  O2-  O506  1  0.66490063  0.07644511  0.97844934  1
  O2-  O507  1  0.66921201  0.32869662  0.30326053  1
  O2-  O508  1  0.66433701  0.33200116  0.64286883  1
  O2-  O509  1  0.67553713  0.34590959  0.98830487  1
  O2-  O510  1  0.67052104  0.57242669  0.35320860  1
  O2-  O511  1  0.69437267  0.60226210  0.65306780  1
  O2-  O512  1  0.66151283  0.60986399  0.97921497  1
  O2-  O513  1  0.66190160  0.80913876  0.32489082  1
  O2-  O514  1  0.68516678  0.82748194  0.62311029  1
  O2-  O515  1  0.71245876  0.93196332  0.96891689  1
  O2-  O516  1  0.90307038  0.07432350  0.31470847  1
  O2-  O517  1  0.90657771  0.07505150  0.64629515  1
  O2-  O518  1  0.90837647  0.10866658  0.97267282  1
  O2-  O519  1  0.91272830  0.33686183  0.31040723  1
  O2-  O520  1  0.91826985  0.32444015  0.64142632  1
  O2-  O521  1  0.91663994  0.29573535  0.98005657  1
  O2-  O522  1  0.92474693  0.58949367  0.31296520  1
  O2-  O523  1  0.91051707  0.61861260  0.65142955  1
  O2-  O524  1  0.87060807  0.56567934  1.02032426  1
  O2-  O525  1  0.95790943  0.89960960  0.30150197  1
  O2-  O526  1  0.91738953  0.85232288  0.63085189  1
  O2-  O527  1  0.92529132  0.85705026  0.98740759  1
  O2-  O528  1  0.11017930  0.17911783  0.01444843  1
  O2-  O529  1  0.08199527  0.17601923  0.31522904  1
  O2-  O530  1  0.05737924  0.11046919  0.70573955  1
  O2-  O531  1  0.08487567  0.40279128  0.02030131  1
  O2-  O532  1  0.06673317  0.43000096  0.35006819  1
  O2-  O533  1  0.07848817  0.41573211  0.69230735  1
  O2-  O534  1  0.02391917  0.57188577  0.04427526  1
  O2-  O535  1  0.08826694  0.67418815  0.35573639  1
  O2-  O536  1  0.08981041  0.67944225  0.68211724  1
  O2-  O537  1  0.08341469  0.91164617  0.02503534  1
  O2-  O538  1  0.09485572  0.91610221  0.36869032  1
  O2-  O539  1  0.07921543  0.91597485  0.68238197  1
  O2-  O540  1  0.33340611  0.13089565  0.02172109  1
  O2-  O541  1  0.33897096  0.16749576  0.35839328  1
  O2-  O542  1  0.32655566  0.15494105  0.68552904  1
  O2-  O543  1  0.32380135  0.43716169  0.04062709  1
  O2-  O544  1  0.31397897  0.37905195  0.31433252  1
  O2-  O545  1  0.35070418  0.42940619  0.68755320  1
  O2-  O546  1  0.31124081  0.66166086  0.02037338  1
  O2-  O547  1  0.31827937  0.64266081  0.36644445  1
  O2-  O548  1  0.32759519  0.65849115  0.68021108  1
  O2-  O549  1  0.33240374  0.90643084  0.01588405  1
  O2-  O550  1  0.34847356  0.92847580  0.35528370  1
  O2-  O551  1  0.33791441  0.93029257  0.69578682  1
  O2-  O552  1  0.58616358  0.16146676  0.00558597  1
  O2-  O553  1  0.57454400  0.17096725  0.34816304  1
  O2-  O554  1  0.58104357  0.16519820  0.68211261  1
  O2-  O555  1  0.57899840  0.43874153  0.02539688  1
  O2-  O556  1  0.59170590  0.41042663  0.35114128  1
  O2-  O557  1  0.59426524  0.42728763  0.68515826  1
  O2-  O558  1  0.58674990  0.72946662  -0.02390225  1
  O2-  O559  1  0.57304669  0.65428313  0.37720539  1
  O2-  O560  1  0.59656426  0.67218913  0.68023924  1
  O2-  O561  1  0.57800118  0.91449620  0.02282268  1
  O2-  O562  1  0.59402965  0.90366838  0.34549789  1
  O2-  O563  1  0.56424830  0.90719991  0.71444307  1
  O2-  O564  1  0.86143188  0.21165690  0.00967037  1
  O2-  O565  1  0.83780750  0.17496111  0.35591270  1
  O2-  O566  1  0.83285383  0.16333069  0.68480149  1
  O2-  O567  1  0.89040853  0.41873843  0.02712191  1
  O2-  O568  1  0.83627379  0.42231610  0.35265571  1
  O2-  O569  1  0.83094480  0.39566757  0.67703204  1
  O2-  O570  1  0.82555033  0.69331895  0.02950848  1
  O2-  O571  1  0.84071792  0.66850289  0.36425908  1
  O2-  O572  1  0.78083388  0.66467988  0.67449796  1
  O2-  O573  1  0.85058671  0.94878428  0.02834780  1
  O2-  O574  1  0.83325651  0.90888168  0.35691866  1
  O2-  O575  1  0.82640977  0.90949295  0.68613476  1
