# generated using pymatgen
data_H2O
_symmetry_space_group_name_H-M   'P 1'
_cell_length_a   17.98893171
_cell_length_b   17.98419855
_cell_length_c   21.99983993
_cell_angle_alpha   89.99101082
_cell_angle_beta   90.00922328
_cell_angle_gamma   119.96854344
_symmetry_Int_Tables_number   1
_chemical_formula_structural   H2O
_chemical_formula_sum   'H384 O192'
_cell_volume   6165.72543402
_cell_formula_units_Z   192
loop_
 _symmetry_equiv_pos_site_id
 _symmetry_equiv_pos_as_xyz
  1  'x, y, z'
loop_
 _atom_type_symbol
 _atom_type_oxidation_number
  H+  1.0
  O2-  -2.0
loop_
 _atom_site_type_symbol
 _atom_site_label
 _atom_site_symmetry_multiplicity
 _atom_site_fract_x
 _atom_site_fract_y
 _atom_site_fract_z
 _atom_site_occupancy
  H+  H0  1  0.02947579  0.13961940  0.16626437  1
  H+  H1  1  0.11292730  0.62953266  0.67474670  1
  H+  H2  1  0.27066886  0.63206633  -0.00376304  1
  H+  H3  1  0.87745325  1.02571717  0.50320387  1
  H+  H4  1  0.65906140  0.53274988  0.32762711  1
  H+  H5  1  0.63870461  0.11748290  0.36036525  1
  H+  H6  1  0.51487764  0.62954967  0.50976094  1
  H+  H7  1  0.13112876  0.28038532  0.84531991  1
  H+  H8  1  0.10258224  0.14497068  0.82104951  1
  H+  H9  1  0.63459306  0.15740879  0.50350659  1
  H+  H10  1  0.63689178  0.03235957  0.50403365  1
  H+  H11  1  0.25011252  0.15688202  0.97735607  1
  H+  H12  1  0.08386289  0.82995785  1.02084535  1
  H+  H13  1  0.61762809  0.98308118  0.83696251  1
  H+  H14  1  0.33406865  0.43336575  0.09381209  1
  H+  H15  1  0.14919139  0.99788141  0.02223784  1
  H+  H16  1  0.22951942  0.86662364  0.33185299  1
  H+  H17  1  0.22524697  0.36449841  0.83926605  1
  H+  H18  1  0.46559724  0.60431712  0.65683294  1
  H+  H19  1  0.37018865  0.72207619  0.83433823  1
  H+  H20  1  0.36657625  0.86976370  0.83303801  1
  H+  H21  1  0.50482177  0.91691718  0.68763299  1
  H+  H22  1  0.51818227  0.38396907  0.68007105  1
  H+  H23  1  0.21787747  0.35801846  0.66425687  1
  H+  H24  1  0.22652739  0.85957160  0.99474936  1
  H+  H25  1  0.58434476  0.89124393  0.07422583  1
  H+  H26  1  0.36469218  0.64512932  0.67221651  1
  H+  H27  1  0.39141191  0.76539481  0.32783686  1
  H+  H28  1  0.72873530  0.62454609  0.15357561  1
  H+  H29  1  0.40095248  0.37168578  0.52330298  1
  H+  H30  1  0.11460243  0.72273545  0.00694808  1
  H+  H31  1  0.23346470  0.07874057  0.64226199  1
  H+  H32  1  0.13945287  0.61319051  0.83579068  1
  H+  H33  1  0.61744554  0.40069136  0.16246886  1
  H+  H34  1  -0.01570646  0.86871666  0.18629046  1
  H+  H35  1  0.76394238  0.60434837  0.47386773  1
  H+  H36  1  0.33099528  0.40384928  0.46696887  1
  H+  H37  1  0.19877938  0.08879070  0.45168728  1
  H+  H38  1  0.14039770  0.85530955  0.83833179  1
  H+  H39  1  0.64690978  0.85765300  1.00740102  1
  H+  H40  1  0.35583116  0.98081024  0.35245654  1
  H+  H41  1  0.86368058  0.38777297  0.16950740  1
  H+  H42  1  0.12609660  0.16069809  1.00292790  1
  H+  H43  1  0.85989658  0.72002272  0.84040172  1
  H+  H44  1  0.73224346  0.09658416  0.00141879  1
  H+  H45  1  0.36169905  0.18447686  0.42435472  1
  H+  H46  1  0.52860452  0.89396981  0.49545679  1
  H+  H47  1  0.13266813  0.10940009  0.17134383  1
  H+  H48  1  0.11052972  0.64388215  0.16189007  1
  H+  H49  1  0.61719570  0.94074193  0.16129520  1
  H+  H50  1  0.89231850  0.87810870  0.33085718  1
  H+  H51  1  0.11812190  0.01203722  1.03202915  1
  H+  H52  1  0.64251108  0.61637135  0.50774064  1
  H+  H53  1  0.53695097  0.40261498  0.82399659  1
  H+  H54  1  0.88801390  0.51824529  0.84261543  1
  H+  H55  1  0.37024412  0.48009653  0.51658606  1
  H+  H56  1  0.97755300  0.85358925  0.66153989  1
  H+  H57  1  0.85746586  0.12800150  0.83086250  1
  H+  H58  1  0.35430334  0.12690494  0.33075519  1
  H+  H59  1  0.35000300  0.13573698  0.15647013  1
  H+  H60  1  0.89024810  0.60208304  0.27229113  1
  H+  H61  1  0.00947763  0.13822154  0.49174480  1
  H+  H62  1  0.89127552  0.61745384  -0.01419334  1
  H+  H63  1  0.02314046  -0.01267635  0.54381816  1
  H+  H64  1  0.64376285  0.37260523  0.84189111  1
  H+  H65  1  0.36021715  0.62831446  0.83401564  1
  H+  H66  1  0.85698449  0.11140054  0.01201374  1
  H+  H67  1  0.45906390  0.34755694  0.30204277  1
  H+  H68  1  0.65374505  0.78497308  0.30514868  1
  H+  H69  1  0.47377735  0.83464473  0.16978556  1
  H+  H70  1  0.15432487  0.32770343  0.60627827  1
  H+  H71  1  0.87586693  -0.02207076  0.17948573  1
  H+  H72  1  0.77667143  0.88098427  0.82267272  1
  H+  H73  1  0.86891994  -0.02333090  1.01949870  1
  H+  H74  1  0.63678795  0.86275015  0.82074422  1
  H+  H75  1  0.89140535  0.76536201  0.66440240  1
  H+  H76  1  0.82737543  0.50179786  0.36104668  1
  H+  H77  1  0.22131431  0.11113675  0.16785893  1
  H+  H78  1  0.65615688  0.29195581  0.17413996  1
  H+  H79  1  0.35854222  0.95593652  0.16415240  1
  H+  H80  1  0.47960957  0.36889066  0.15959415  1
  H+  H81  1  0.13134164  0.07371046  0.75815112  1
  H+  H82  1  0.13477309  0.35795139  0.32444627  1
  H+  H83  1  0.98265868  0.11202719  0.99773338  1
  H+  H84  1  0.67418325  0.58654425  0.56605596  1
  H+  H85  1  0.63817742  0.27826285  -0.00321096  1
  H+  H86  1  0.88465544  0.36071476  0.84585355  1
  H+  H87  1  0.63288442  0.64913616  0.02977257  1
  H+  H88  1  0.77584576  0.39311788  1.02283667  1
  H+  H89  1  0.52022957  0.87593606  0.34175431  1
  H+  H90  1  0.11969210  0.39670553  0.67517778  1
  H+  H91  1  0.12599462  0.75725791  0.66644543  1
  H+  H92  1  0.86270071  0.71901982  0.00371422  1
  H+  H93  1  0.38880141  0.36787815  0.15672467  1
  H+  H94  1  -0.03152994  0.35001175  0.16384129  1
  H+  H95  1  0.61715347  0.39399432  0.00884010  1
  H+  H96  1  0.13345481  0.27251057  0.16664488  1
  H+  H97  1  0.86654837  0.21132166  0.16387432  1
  H+  H98  1  0.35768066  0.21679910  0.32243922  1
  H+  H99  1  0.66089993  0.58974098  0.94521693  1
  H+  H100  1  0.34651370  0.59126617  0.14922538  1
  H+  H101  1  0.65337941  -0.01471713  0.31673055  1
  H+  H102  1  0.62306367  0.38182740  0.32028760  1
  H+  H103  1  0.99040046  0.34517733  0.32259733  1
  H+  H104  1  0.06472808  0.70546391  0.48582738  1
  H+  H105  1  0.53595376  0.44820145  0.37000593  1
  H+  H106  1  0.85066820  0.66673913  0.74934838  1
  H+  H107  1  0.01867748  0.87072879  0.82641004  1
  H+  H108  1  0.34046223  0.89276169  0.76962936  1
  H+  H109  1  0.77321016  0.13637234  0.82453710  1
  H+  H110  1  0.08124375  0.65833440  0.76693650  1
  H+  H111  1  0.12785160  0.39559241  0.82594633  1
  H+  H112  1  0.38552356  0.74806698  0.16658719  1
  H+  H113  1  0.34310467  0.18399912  0.80567389  1
  H+  H114  1  0.90982146  0.33886729  0.94163020  1
  H+  H115  1  0.57793953  0.16054767  0.77205169  1
  H+  H116  1  0.27947633  0.62868013  0.34681973  1
  H+  H117  1  0.11112886  0.38723482  0.49829742  1
  H+  H118  1  0.15743020  0.76888848  0.32522273  1
  H+  H119  1  0.88403366  0.01574895  0.84519616  1
  H+  H120  1  0.78463667  0.11482826  0.16398603  1
  H+  H121  1  0.40013006  0.77886307  0.50611037  1
  H+  H122  1  0.53011418  0.39921095  0.00932140  1
  H+  H123  1  0.11200092  0.87629913  0.33823790  1
  H+  H124  1  0.35657844  0.39083261  0.28873682  1
  H+  H125  1  0.88706441  0.85694173  0.84251275  1
  H+  H126  1  0.63908697  0.53114348  0.00451403  1
  H+  H127  1  0.66040058  0.82293953  0.76657625  1
  H+  H128  1  0.26851749  0.39755620  0.99893820  1
  H+  H129  1  0.13873593  -0.02244305  0.65390526  1
  H+  H130  1  0.92019789  0.33044822  0.56617265  1
  H+  H131  1  0.36024407  0.11486973  0.66113949  1
  H+  H132  1  0.87152336  0.89065243  1.02070514  1
  H+  H133  1  0.36624119  0.89128235  0.00641513  1
  H+  H134  1  0.63140438  0.37382430  0.52893520  1
  H+  H135  1  0.38778545  0.77692589  1.00325121  1
  H+  H136  1  0.41340012  0.29084205  0.50821073  1
  H+  H137  1  0.60118215  0.62577828  0.83609228  1
  H+  H138  1  0.07756265  0.24861880  0.68663907  1
  H+  H139  1  0.88368207  0.27218783  0.84578615  1
  H+  H140  1  -0.01979073  0.36544244  0.66318150  1
  H+  H141  1  0.52300147  0.13750528  0.83179058  1
  H+  H142  1  0.33813187  0.17386667  0.05657194  1
  H+  H143  1  0.32634551  0.41109108  0.72894602  1
  H+  H144  1  0.40639121  0.62453696  0.32460141  1
  H+  H145  1  0.63749789  0.52608928  0.84669366  1
  H+  H146  1  0.89547303  0.27268377  0.66229570  1
  H+  H147  1  0.77913380  0.89631375  0.33727051  1
  H+  H148  1  0.89316809  0.87439627  0.18568969  1
  H+  H149  1  0.10609161  0.95236045  0.49519728  1
  H+  H150  1  0.17200520  0.58706408  0.60250023  1
  H+  H151  1  0.36512678  0.65872528  -0.02580970  1
  H+  H152  1  0.08301028  0.08530634  0.51999307  1
  H+  H153  1  0.85951569  0.46107400  0.51352714  1
  H+  H154  1  0.21653877  0.10442630  0.32490057  1
  H+  H155  1  0.16578566  0.77467517  0.51797244  1
  H+  H156  1  1.01870367  0.61999751  0.67326168  1
  H+  H157  1  0.35334175  0.46979740  0.82551685  1
  H+  H158  1  0.22866935  0.85262886  0.83928800  1
  H+  H159  1  0.85831400  0.62993340  0.84015168  1
  H+  H160  1  0.24369729  0.62738850  0.17495707  1
  H+  H161  1  0.98767541  0.62098219  0.99091137  1
  H+  H162  1  0.92778954  0.58785919  0.92236055  1
  H+  H163  1  0.87227805  0.20084749  0.33839430  1
  H+  H164  1  0.52862292  0.13471551  0.00570662  1
  H+  H165  1  0.16641375  0.58579152  0.93075020  1
  H+  H166  1  -0.03087403  0.61598981  0.18375626  1
  H+  H167  1  0.78927621  0.10784385  0.33813115  1
  H+  H168  1  0.10191650  0.10395763  0.68249868  1
  H+  H169  1  0.98162856  0.11618577  0.29575768  1
  H+  H170  1  0.51646395  0.23034858  0.39809056  1
  H+  H171  1  0.40126240  0.86764109  0.50828107  1
  H+  H172  1  0.57753695  0.93208700  0.77687614  1
  H+  H173  1  0.35966394  0.22880859  0.14924583  1
  H+  H174  1  0.61990493  0.89993184  0.49773353  1
  H+  H175  1  0.64373362  0.75510437  1.02203504  1
  H+  H176  1  0.13181060  0.26944415  0.51108499  1
  H+  H177  1  0.88448939  0.52447610  0.18587806  1
  H+  H178  1  0.60357808  0.12339352  0.67720854  1
  H+  H179  1  0.53979032  0.63775268  0.30451615  1
  H+  H180  1  0.72241479  0.61520203  0.85206639  1
  H+  H181  1  0.63796078  0.12631371  0.83858685  1
  H+  H182  1  0.10968892  0.86224926  0.67337796  1
  H+  H183  1  0.44278460  0.09670348  0.16710486  1
  H+  H184  1  0.14357471  0.14626124  0.68183555  1
  H+  H185  1  0.59185732  0.25906568  0.35111743  1
  H+  H186  1  0.83705022  0.42246409  0.11052383  1
  H+  H187  1  0.10205493  0.96190224  0.81485998  1
  H+  H188  1  0.13822362  0.60227499  0.33919735  1
  H+  H189  1  0.63509374  0.51787690  0.65247339  1
  H+  H190  1  0.72747833  0.84444519  0.66978306  1
  H+  H191  1  0.86382584  0.22862486  0.49445439  1
  H+  H192  1  0.60372214  0.71054884  0.67685479  1
  H+  H193  1  0.77909183  0.39513831  0.83310864  1
  H+  H194  1  0.38315715  0.98675437  0.50182720  1
  H+  H195  1  0.89529588  0.40273027  0.38237110  1
  H+  H196  1  0.83697696  0.16030087  0.73458042  1
  H+  H197  1  0.40008183  0.53766121  0.30253553  1
  H+  H198  1  0.98873379  0.93601379  0.97029478  1
  H+  H199  1  0.85469115  0.62856617  0.15934453  1
  H+  H200  1  0.22005923  0.36404624  0.16603328  1
  H+  H201  1  0.37375743  0.14894227  -0.00207016  1
  H+  H202  1  0.48475362  0.86081917  0.84893304  1
  H+  H203  1  0.73889205  0.41590298  0.36281929  1
  H+  H204  1  0.13688706  0.52869273  0.50926863  1
  H+  H205  1  0.46227246  0.08359802  0.66594168  1
  H+  H206  1  0.63905344  0.85889350  0.33282780  1
  H+  H207  1  0.94212545  0.70345373  0.72322373  1
  H+  H208  1  0.13543514  0.61672288  0.51213646  1
  H+  H209  1  0.72445574  0.86745503  0.51194118  1
  H+  H210  1  -0.01724237  0.21397175  0.71210631  1
  H+  H211  1  0.82873861  0.13877010  0.07271759  1
  H+  H212  1  0.38854070  0.02717326  0.99384362  1
  H+  H213  1  0.89789860  0.11227716  0.19593287  1
  H+  H214  1  0.11936103  0.48218969  1.00396429  1
  H+  H215  1  0.04362189  0.65555969  0.35378620  1
  H+  H216  1  0.23220278  0.61692808  0.83887774  1
  H+  H217  1  0.05812649  0.18386331  0.77815588  1
  H+  H218  1  0.11391083  0.96652003  0.34004306  1
  H+  H219  1  0.62280919  0.10985564  0.32809142  1
  H+  H220  1  0.46512901  0.59595902  0.85060188  1
  H+  H221  1  0.97344724  0.37102472  0.99711628  1
  H+  H222  1  0.48680998  0.12381848  0.33324955  1
  H+  H223  1  0.36247021  0.63397980  0.50268647  1
  H+  H224  1  0.27602572  0.63889144  0.49935797  1
  H+  H225  1  0.63550625  0.78041251  0.52012381  1
  H+  H226  1  0.59573677  0.71058430  0.82509024  1
  H+  H227  1  -0.02062884  0.60960716  0.83953038  1
  H+  H228  1  0.21134809  0.06695897  0.47558236  1
  H+  H229  1  0.17253890  0.83172547  0.23252015  1
  H+  H230  1  0.60363939  0.99490138  0.67901718  1
  H+  H231  1  0.41338860  0.29870802  0.85422231  1
  H+  H232  1  0.40869283  0.57117306  0.46874373  1
  H+  H233  1  0.57819314  0.15238056  0.16279957  1
  H+  H234  1  0.63937326  0.65506341  0.12923708  1
  H+  H235  1  0.88345412  0.35776792  0.50972789  1
  H+  H236  1  0.22592893  0.85618007  0.17012501  1
  H+  H237  1  0.11430100  0.46863750  0.34270915  1
  H+  H238  1  0.35412571  0.46760512  0.66819046  1
  H+  H239  1  0.98119930  0.59846577  0.51026829  1
  H+  H240  1  0.12165329  0.48809503  0.67492175  1
  H+  H241  1  0.88729882  0.59140188  0.50615328  1
  H+  H242  1  0.87891978  0.11597988  0.50792580  1
  H+  H243  1  0.37143876  0.79227779  0.67402487  1
  H+  H244  1  0.37204411  0.34335489  0.66352823  1
  H+  H245  1  0.59330181  0.37285381  0.65679292  1
  H+  H246  1  0.10405376  0.46845017  0.16153098  1
  H+  H247  1  0.39018547  1.00439382  0.83881867  1
  H+  H248  1  0.74040580  0.86300227  0.01392585  1
  H+  H249  1  0.13094825  0.49270012  0.82556562  1
  H+  H250  1  0.85300153  0.36091727  0.38066150  1
  H+  H251  1  0.35892845  0.38534109  0.82545934  1
  H+  H252  1  0.65455377  0.08881239  0.16698470  1
  H+  H253  1  0.86414910  0.39317620  0.02003339  1
  H+  H254  1  0.96849180  0.10941306  0.84842865  1
  H+  H255  1  0.95640715  0.10370595  0.65937882  1
  H+  H256  1  0.11084344  0.38360137  0.15681467  1
  H+  H257  1  -0.02257096  0.86800810  0.33400560  1
  H+  H258  1  0.11250215  0.88392709  0.16802186  1
  H+  H259  1  0.73474058  0.12299244  0.65671955  1
  H+  H260  1  0.10927305  -0.02876893  0.16038579  1
  H+  H261  1  0.86148239  0.46489831  0.68026460  1
  H+  H262  1  0.14943962  0.85392508  0.51123625  1
  H+  H263  1  0.61483102  -0.03462304  1.02435447  1
  H+  H264  1  0.72957310  0.11938298  0.50393260  1
  H+  H265  1  -0.01585979  0.85508302  0.00328081  1
  H+  H266  1  0.62886258  0.60216580  0.65426903  1
  H+  H267  1  0.02235156  0.38697543  0.49552568  1
  H+  H268  1  0.13804149  0.61489397  -0.00792966  1
  H+  H269  1  0.84416300  0.91325642  0.77015107  1
  H+  H270  1  0.31507037  0.15946394  0.48641306  1
  H+  H271  1  0.61642260  0.13332220  0.00194333  1
  H+  H272  1  0.10735728  0.22100941  0.33233191  1
  H+  H273  1  0.63860970  0.28385411  0.53279681  1
  H+  H274  1  0.37722589  0.08441441  0.83218195  1
  H+  H275  1  0.53786485  0.39817786  0.50620094  1
  H+  H276  1  0.35204291  0.20304409  0.66377699  1
  H+  H277  1  0.77206658  0.63194988  0.00064449  1
  H+  H278  1  0.39570373  0.29004494  -0.00667026  1
  H+  H279  1  0.78710130  0.54281054  0.43530096  1
  H+  H280  1  0.29353510  0.89813837  0.50828090  1
  H+  H281  1  0.58130299  0.91381469  0.40252736  1
  H+  H282  1  -0.02526195  0.86445482  0.50994563  1
  H+  H283  1  0.61650077  0.79210296  0.14644763  1
  H+  H284  1  0.92319914  0.85051127  0.57214631  1
  H+  H285  1  0.66350474  0.82696618  0.61575715  1
  H+  H286  1  0.41536869  0.12796269  0.50647072  1
  H+  H287  1  0.27087836  0.39492129  0.29464007  1
  H+  H288  1  0.90372681  0.06987045  0.59690682  1
  H+  H289  1  0.17346598  0.58482851  0.27724704  1
  H+  H290  1  0.10617038  0.72862070  0.15943723  1
  H+  H291  1  0.08886801  0.42165743  0.06321146  1
  H+  H292  1  0.32465671  0.92618882  0.41400529  1
  H+  H293  1  0.57697168  0.68014791  0.45556372  1
  H+  H294  1  0.15269004  0.32643541  0.26039068  1
  H+  H295  1  0.40687702  0.57916788  0.59776361  1
  H+  H296  1  0.42077791  0.81790341  0.26642219  1
  H+  H297  1  0.83418817  0.65256390  0.09435854  1
  H+  H298  1  0.86439260  0.90087985  0.49256835  1
  H+  H299  1  0.66197731  0.34767866  0.26806321  1
  H+  H300  1  0.86022605  0.96167232  0.67361146  1
  H+  H301  1  0.59475748  0.42294299  0.76421467  1
  H+  H302  1  0.35905686  0.54734618  1.01424215  1
  H+  H303  1  0.10311393  0.13014603  0.33439815  1
  H+  H304  1  0.08354995  0.65097945  0.41865715  1
  H+  H305  1  0.34035069  0.66289742  0.40490353  1
  H+  H306  1  0.66914259  0.34053034  0.93943752  1
  H+  H307  1  0.83854763  0.41990206  0.77280175  1
  H+  H308  1  0.72599726  -0.01545752  0.28017236  1
  H+  H309  1  0.92107831  0.31681882  0.22686502  1
  H+  H310  1  0.48033303  0.86084605  1.00425313  1
  H+  H311  1  0.89681130  0.32961804  0.31994134  1
  H+  H312  1  0.41692796  0.32207137  0.60925343  1
  H+  H313  1  0.08175979  0.90240815  0.73123028  1
  H+  H314  1  0.41030837  0.07308189  0.23432407  1
  H+  H315  1  0.08287687  0.40899867  0.40212919  1
  H+  H316  1  0.83229093  0.92555392  0.43151433  1
  H+  H317  1  0.36246393  0.86850724  0.15728075  1
  H+  H318  1  0.92576082  0.83877809  0.90249310  1
  H+  H319  1  0.85589187  0.12273922  0.67240852  1
  H+  H320  1  0.81043133  0.40725256  0.45730630  1
  H+  H321  1  0.43309778  0.36290527  0.90682154  1
  H+  H322  1  0.33309307  0.91555851  0.06521014  1
  H+  H323  1  0.17043840  0.09162634  0.93863593  1
  H+  H324  1  0.92419473  0.84578557  0.25391643  1
  H+  H325  1  0.83266212  0.16356440  0.43605604  1
  H+  H326  1  0.31878287  0.12864310  0.74638844  1
  H+  H327  1  0.29876828  0.45751161  0.40076656  1
  H+  H328  1  0.66637798  0.61756054  0.29763013  1
  H+  H329  1  0.86091627  0.37765228  0.68435231  1
  H+  H330  1  0.60388472  0.20093914  0.45161816  1
  H+  H331  1  0.11400276  0.72029685  0.82612256  1
  H+  H332  1  0.39828326  0.55000902  0.90612133  1
  H+  H333  1  0.41908329  0.07984346  0.93216502  1
  H+  H334  1  0.47494248  0.03774138  0.30583941  1
  H+  H335  1  0.36323505  0.93851876  0.66793687  1
  H+  H336  1  0.14465683  0.37791292  0.99542058  1
  H+  H337  1  0.35861077  0.48510719  0.21189733  1
  H+  H338  1  0.66515269  0.02733370  0.95290450  1
  H+  H339  1  0.68067532  0.04534341  0.22218565  1
  H+  H340  1  0.77369660  0.61911670  0.31564883  1
  H+  H341  1  0.08833603  0.89940651  0.43428996  1
  H+  H342  1  0.84599260  0.92147516  0.11843916  1
  H+  H343  1  0.67546151  0.09378323  0.59647351  1
  H+  H344  1  0.17230894  0.34529969  0.93554411  1
  H+  H345  1  0.86720631  0.98478637  0.32932820  1
  H+  H346  1  0.59683617  0.43592267  0.41483621  1
  H+  H347  1  0.23440787  0.69320795  0.21501240  1
  H+  H348  1  0.91798082  0.07302516  0.94022304  1
  H+  H349  1  0.33742297  0.66925304  0.73476493  1
  H+  H350  1  0.63327841  0.54297777  0.15657617  1
  H+  H351  1  0.25591637  0.41678016  0.40272036  1
  H+  H352  1  0.58823318  0.42498640  0.10045711  1
  H+  H353  1  0.83804356  0.64458014  0.38036151  1
  H+  H354  1  0.40577386  0.31858659  0.24107030  1
  H+  H355  1  0.86621562  0.87549335  0.67710036  1
  H+  H356  1  0.16700899  0.82602324  0.93519302  1
  H+  H357  1  0.54182089  0.04840944  0.71594257  1
  H+  H358  1  0.41876303  0.07069618  0.60071171  1
  H+  H359  1  0.63974906  0.28216775  0.84312779  1
  H+  H360  1  0.61433389  0.17278262  0.09594737  1
  H+  H361  1  0.50258676  0.12866076  0.51688151  1
  H+  H362  1  0.11278811  0.23909332  0.01126910  1
  H+  H363  1  0.39173275  0.37792257  0.99597836  1
  H+  H364  1  0.33324448  0.63955646  0.09327850  1
  H+  H365  1  0.62782640  0.48833398  0.50389014  1
  H+  H366  1  0.10027050  0.43052635  0.75943616  1
  H+  H367  1  0.23257792  0.61965951  0.66254409  1
  H+  H368  1  0.05058550  0.85632329  0.08030929  1
  H+  H369  1  0.20770263  0.09522765  0.80231753  1
  H+  H370  1  0.16654244  0.82402761  0.61052964  1
  H+  H371  1  0.91604650  0.56903632  0.60112441  1
  H+  H372  1  0.42433706  0.82926333  0.90809351  1
  H+  H373  1  0.08107951  0.16708545  0.10176809  1
  H+  H374  1  0.22279913  0.35582757  0.52259806  1
  H+  H375  1  0.14378978  0.04223261  0.59290678  1
  H+  H376  1  0.89041032  0.59936825  0.66297677  1
  H+  H377  1  0.73984820  0.38137758  0.18036412  1
  H+  H378  1  0.07184068  0.16182343  0.43426131  1
  H+  H379  1  0.60965399  0.66731180  0.35524934  1
  H+  H380  1  0.07756888  0.66165219  0.06603969  1
  H+  H381  1  0.56554773  0.64424697  0.73211176  1
  H+  H382  1  0.67744870  0.10907686  0.89775081  1
  H+  H383  1  0.15934068  0.07342725  0.26500893  1
  O2-  O384  1  0.08712460  0.16902602  0.14721378  1
  O2-  O385  1  0.07139716  0.16337127  0.47937799  1
  O2-  O386  1  0.07160660  0.17758246  0.82162770  1
  O2-  O387  1  0.07881803  0.41290719  0.14132033  1
  O2-  O388  1  0.08348235  0.41823668  0.48051599  1
  O2-  O389  1  0.10352075  0.43154511  0.80733142  1
  O2-  O390  1  0.07536670  0.66728259  0.14527630  1
  O2-  O391  1  0.07118353  0.65485202  0.48512868  1
  O2-  O392  1  0.08246923  0.65873686  0.81284918  1
  O2-  O393  1  0.07653824  0.90798817  0.15238266  1
  O2-  O394  1  0.08759578  0.89431342  0.47985605  1
  O2-  O395  1  0.07820620  0.89923236  0.80888294  1
  O2-  O396  1  0.32508733  0.16723755  0.13627468  1
  O2-  O397  1  0.37287055  0.19091566  0.46918005  1
  O2-  O398  1  0.31238222  0.12434024  0.79262002  1
  O2-  O399  1  0.32757911  0.41950585  0.13871087  1
  O2-  O400  1  0.33585983  0.41034103  0.51109287  1
  O2-  O401  1  0.32390908  0.40954587  0.80908958  1
  O2-  O402  1  0.33099128  0.63528593  0.13804894  1
  O2-  O403  1  0.33630930  0.66628792  0.48415765  1
  O2-  O404  1  0.33498661  0.66253555  0.81760858  1
  O2-  O405  1  0.33155388  0.89918282  0.14409918  1
  O2-  O406  1  0.35016307  0.92624765  0.48745021  1
  O2-  O407  1  0.33665356  0.89864093  0.81444570  1
  O2-  O408  1  0.63168060  0.17880616  0.14007339  1
  O2-  O409  1  0.60798688  0.19526373  0.49587101  1
  O2-  O410  1  0.58303708  0.17336866  0.81676281  1
  O2-  O411  1  0.58282668  0.42522819  0.14601589  1
  O2-  O412  1  0.59867656  0.42525445  0.49026757  1
  O2-  O413  1  0.59703861  0.42819425  0.80976767  1
  O2-  O414  1  0.62096177  0.70028062  0.10995759  1
  O2-  O415  1  0.57940230  0.66858847  0.49851173  1
  O2-  O416  1  0.56352015  0.64734568  0.81946816  1
  O2-  O417  1  0.58055434  0.87896147  0.14802004  1
  O2-  O418  1  0.59030178  0.92907963  0.47979599  1
  O2-  O419  1  0.58718180  0.92343642  0.82082681  1
  O2-  O420  1  0.84724396  0.14959631  0.15470944  1
  O2-  O421  1  0.83083040  0.16655633  0.48193868  1
  O2-  O422  1  0.83342013  0.16069695  0.81013450  1
  O2-  O423  1  0.83817487  0.42360620  0.15771043  1
  O2-  O424  1  0.82392019  0.40027773  0.49944490  1
  O2-  O425  1  0.83998340  0.42578497  0.81928675  1
  O2-  O426  1  0.82635703  0.65649978  0.13823797  1
  O2-  O427  1  0.80968991  0.60320985  0.44883556  1
  O2-  O428  1  0.82680972  0.65916297  0.82571356  1
  O2-  O429  1  0.84815505  0.91863649  0.16341776  1
  O2-  O430  1  0.82793844  0.92381130  0.47687964  1
  O2-  O431  1  0.83997390  0.91202612  0.81593185  1
  O2-  O432  1  0.16241637  0.07797903  0.18534449  1
  O2-  O433  1  0.08279710  0.03742422  0.54343048  1
  O2-  O434  1  0.14419204  0.07336431  0.80139063  1
  O2-  O435  1  0.15982851  0.33368393  0.18098084  1
  O2-  O436  1  0.15970803  0.32757810  0.53023327  1
  O2-  O437  1  0.16594116  0.34286681  0.85646617  1
  O2-  O438  1  0.20076916  0.63452789  0.19974864  1
  O2-  O439  1  0.16833237  0.58817907  0.52583295  1
  O2-  O440  1  0.17019688  0.58329891  0.85216258  1
  O2-  O441  1  0.16678852  0.83168177  0.18701848  1
  O2-  O442  1  0.18581285  0.83374055  0.53209220  1
  O2-  O443  1  0.16847094  0.82395220  0.85508432  1
  O2-  O444  1  0.39053587  0.06674024  0.19116252  1
  O2-  O445  1  0.43940699  0.09436413  0.52486324  1
  O2-  O446  1  0.41423080  0.06555921  0.85221789  1
  O2-  O447  1  0.41610625  0.33416477  0.16991863  1
  O2-  O448  1  0.43819368  0.34532397  0.53141668  1
  O2-  O449  1  0.43262125  0.35913737  0.86071635  1
  O2-  O450  1  0.36951177  0.50476521  0.16841512  1
  O2-  O451  1  0.41487850  0.57154919  0.51292610  1
  O2-  O452  1  0.40252037  0.56482357  0.86256633  1
  O2-  O453  1  0.41161352  0.80865561  0.17974154  1
  O2-  O454  1  0.43403201  0.83905032  0.52015315  1
  O2-  O455  1  0.42372326  0.82517497  0.86286636  1
  O2-  O456  1  0.67555121  0.04888466  0.17658707  1
  O2-  O457  1  0.66890964  0.09327236  0.51965163  1
  O2-  O458  1  0.66989601  0.09695468  0.85390544  1
  O2-  O459  1  0.67647950  0.34910009  0.19219068  1
  O2-  O460  1  0.64950074  0.33807511  0.55604609  1
  O2-  O461  1  0.67154037  0.34146408  0.85987245  1
  O2-  O462  1  0.66600649  0.60601673  0.16145718  1
  O2-  O463  1  0.67489905  0.58698047  0.51923251  1
  O2-  O464  1  0.66133562  0.58393675  0.86610128  1
  O2-  O465  1  0.62664519  0.83900573  0.17522685  1
  O2-  O466  1  0.66709078  0.84199819  0.53177883  1
  O2-  O467  1  0.66272009  0.82598963  0.81109994  1
  O2-  O468  1  0.93274318  0.08537120  0.21168704  1
  O2-  O469  1  0.90965216  0.08466110  0.52171880  1
  O2-  O470  1  0.90808320  0.07452152  0.86306498  1
  O2-  O471  1  0.91036030  0.31819489  0.18232445  1
  O2-  O472  1  0.91963037  0.33066700  0.52080628  1
  O2-  O473  1  0.91200107  0.32989188  0.86405163  1
  O2-  O474  1  0.90967192  0.58571056  0.19991685  1
  O2-  O475  1  0.91861930  0.56754619  0.52784094  1
  O2-  O476  1  0.92043595  0.58132272  0.85809869  1
  O2-  O477  1  0.92457953  0.84374403  0.20420190  1
  O2-  O478  1  0.93752561  0.88106237  0.53215523  1
  O2-  O479  1  0.91774080  0.82669968  0.85794929  1
  O2-  O480  1  0.15655565  0.07155469  0.31053044  1
  O2-  O481  1  0.17886891  0.02899191  0.62392543  1
  O2-  O482  1  0.19650140  0.14820280  0.95719967  1
  O2-  O483  1  0.16245994  0.32734780  0.30507441  1
  O2-  O484  1  0.15611929  0.33351094  0.65190341  1
  O2-  O485  1  0.17716926  0.34800137  0.98084330  1
  O2-  O486  1  0.16925754  0.57366902  0.32142944  1
  O2-  O487  1  0.17147775  0.58580683  0.64833204  1
  O2-  O488  1  0.17049663  0.58717771  0.97614846  1
  O2-  O489  1  0.17452595  0.82643520  0.30915996  1
  O2-  O490  1  0.15396368  0.81931130  0.65480150  1
  O2-  O491  1  0.16596063  0.82338236  0.98058780  1
  O2-  O492  1  0.44688097  0.07228177  0.30794843  1
  O2-  O493  1  0.40522628  0.05935675  0.64502168  1
  O2-  O494  1  0.42163815  0.08689620  0.97730434  1
  O2-  O495  1  0.40021185  0.31431963  0.28738825  1
  O2-  O496  1  0.40186510  0.31080086  0.65328196  1
  O2-  O497  1  0.42607332  0.35203412  0.98098557  1
  O2-  O498  1  0.43848832  0.60063719  0.30313616  1
  O2-  O499  1  0.40444308  0.57712023  0.64253496  1
  O2-  O500  1  0.37751365  0.51456649  0.98863463  1
  O2-  O501  1  0.42261829  0.82460473  0.31090614  1
  O2-  O502  1  0.40055278  0.85468183  0.66371920  1
  O2-  O503  1  0.42075302  0.83651129  0.98779728  1
  O2-  O504  1  0.70427213  0.02337276  0.28985675  1
  O2-  O505  1  0.67470135  0.09358040  0.64206514  1
  O2-  O506  1  0.66989457  0.06973437  0.98265259  1
  O2-  O507  1  0.65196521  0.34836112  0.31323897  1
  O2-  O508  1  0.58454034  0.30257661  0.60584635  1
  O2-  O509  1  0.66518984  0.33944636  0.98482645  1
  O2-  O510  1  0.69558576  0.58221040  0.30051988  1
  O2-  O511  1  0.66296112  0.57769650  0.63698064  1
  O2-  O512  1  0.66848026  0.59288326  0.99052999  1
  O2-  O513  1  0.68213333  0.84706857  0.31319672  1
  O2-  O514  1  0.66536617  0.81507202  0.65966419  1
  O2-  O515  1  0.67918431  0.82669420  0.99848478  1
  O2-  O516  1  0.92203246  0.08297543  0.27821650  1
  O2-  O517  1  0.89948224  0.06268438  0.64257001  1
  O2-  O518  1  0.92165937  0.07261693  0.98568378  1
  O2-  O519  1  0.93261785  0.30806394  0.30289654  1
  O2-  O520  1  0.92158130  0.33229621  0.64617813  1
  O2-  O521  1  0.91263499  0.34712756  0.98668384  1
  O2-  O522  1  0.88529865  0.60136609  0.31868940  1
  O2-  O523  1  0.91820135  0.56789824  0.64712260  1
  O2-  O524  1  0.92830206  0.59293658  0.97078059  1
  O2-  O525  1  0.91934915  0.84435766  0.31571763  1
  O2-  O526  1  0.91650735  0.82433187  0.64730084  1
  O2-  O527  1  0.94870584  0.87515872  0.97739939  1
  O2-  O528  1  0.08737987  0.17797265  0.02372832  1
  O2-  O529  1  0.07109530  0.15998022  0.34565162  1
  O2-  O530  1  0.02848892  0.19964821  0.70897392  1
  O2-  O531  1  0.09242492  0.42152961  0.01801278  1
  O2-  O532  1  0.08437086  0.40726523  0.35651183  1
  O2-  O533  1  0.09134038  0.42806717  0.69297374  1
  O2-  O534  1  0.08005098  0.66094279  0.02044778  1
  O2-  O535  1  0.09437777  0.65678184  0.37084091  1
  O2-  O536  1  0.07812077  0.65459966  0.69112513  1
  O2-  O537  1  0.03178423  0.82314846  0.04169153  1
  O2-  O538  1  0.08449063  0.90692476  0.35696124  1
  O2-  O539  1  0.08225978  0.90105872  0.68561214  1
  O2-  O540  1  0.34631850  0.18257962  0.01175008  1
  O2-  O541  1  0.33324253  0.16312559  0.34776288  1
  O2-  O542  1  0.32229997  0.13967789  0.67391517  1
  O2-  O543  1  0.33238201  0.42815209  0.01633249  1
  O2-  O544  1  0.33260817  0.42887000  0.28195084  1
  O2-  O545  1  0.32384729  0.40714720  0.68367800  1
  O2-  O546  1  0.33273212  0.65770009  0.01006069  1
  O2-  O547  1  0.34067718  0.66101420  0.35945638  1
  O2-  O548  1  0.33611672  0.67561351  0.68996011  1
  O2-  O549  1  0.33386530  0.92005719  0.01999518  1
  O2-  O550  1  0.30702101  0.93210155  0.37187612  1
  O2-  O551  1  0.34380698  0.88338733  0.68993063  1
  O2-  O552  1  0.58949055  0.16431762  0.02022223  1
  O2-  O553  1  0.55002276  0.20909490  0.37724422  1
  O2-  O554  1  0.55348858  0.10712526  0.70459593  1
  O2-  O555  1  0.59031645  0.42772323  0.02475477  1
  O2-  O556  1  0.58731331  0.44288487  0.37008818  1
  O2-  O557  1  0.58091197  0.41028086  0.68555123  1
  O2-  O558  1  0.60588313  0.68434841  0.04427713  1
  O2-  O559  1  0.60458597  0.66382894  0.31113899  1
  O2-  O560  1  0.56732957  0.64779959  0.68719701  1
  O2-  O561  1  0.58583073  0.90215443  0.02918872  1
  O2-  O562  1  0.58108871  0.90582622  0.35740803  1
  O2-  O563  1  0.55866115  0.95850221  0.70908383  1
  O2-  O564  1  0.81758316  0.13032457  0.02848130  1
  O2-  O565  1  0.83737958  0.14960462  0.36356896  1
  O2-  O566  1  0.84412348  0.16748154  0.68909361  1
  O2-  O567  1  0.83367258  0.42050101  0.04082631  1
  O2-  O568  1  0.78370032  0.46010818  0.38933686  1
  O2-  O569  1  0.83372437  0.40890563  0.70180417  1
  O2-  O570  1  0.83550121  0.65720089  0.00975139  1
  O2-  O571  1  0.84528628  0.65300017  0.33374213  1
  O2-  O572  1  0.88286200  0.67980492  0.70979965  1
  O2-  O573  1  0.83884583  0.91707097  0.03749688  1
  O2-  O574  1  0.84080481  0.93011356  0.35210993  1
  O2-  O575  1  0.83588086  0.90470288  0.69422481  1
