# generated using pymatgen
data_H2O
_symmetry_space_group_name_H-M   'P 1'
_cell_length_a   18.00298136
_cell_length_b   18.00567198
_cell_length_c   22.01380422
_cell_angle_alpha   89.99115977
_cell_angle_beta   90.00756374
_cell_angle_gamma   120.01717418
_symmetry_Int_Tables_number   1
_chemical_formula_structural   H2O
_chemical_formula_sum   'H384 O192'
_cell_volume   6178.80240460
_cell_formula_units_Z   192
loop_
 _symmetry_equiv_pos_site_id
 _symmetry_equiv_pos_as_xyz
  1  'x, y, z'
loop_
 _atom_type_symbol
 _atom_type_oxidation_number
  H+  1.0
  O2-  -2.0
loop_
 _atom_site_type_symbol
 _atom_site_label
 _atom_site_symmetry_multiplicity
 _atom_site_fract_x
 _atom_site_fract_y
 _atom_site_fract_z
 _atom_site_occupancy
  H+  H0  1  0.48961588  0.87195932  0.84233725  1
  H+  H1  1  0.32894342  0.95874754  0.34618034  1
  H+  H2  1  0.58777658  0.49671235  0.67938827  1
  H+  H3  1  0.62764669  0.22153056  0.14078356  1
  H+  H4  1  0.15422773  0.34347219  0.65586892  1
  H+  H5  1  0.26327399  0.13484902  0.49469444  1
  H+  H6  1  0.02111413  0.86910331  0.66091481  1
  H+  H7  1  0.98441835  0.61879122  0.67622459  1
  H+  H8  1  0.71860821  0.35157920  0.98794157  1
  H+  H9  1  0.39402939  0.52203292  0.51674025  1
  H+  H10  1  0.03272052  0.68314170  0.76023009  1
  H+  H11  1  0.89275043  0.03354047  0.17372164  1
  H+  H12  1  0.72383138  0.13144891  0.51638227  1
  H+  H13  1  0.85867417  0.49976009  0.66297413  1
  H+  H14  1  0.87684011  0.74787366  0.82009144  1
  H+  H15  1  0.85819621  0.18549465  0.75472180  1
  H+  H16  1  0.11242302  0.62498490  0.15552663  1
  H+  H17  1  0.47166218  0.10521871  0.99558447  1
  H+  H18  1  0.39088940  0.77003789  0.65610285  1
  H+  H19  1  0.52934293  0.39205859  0.83360471  1
  H+  H20  1  0.46898984  0.36961553  0.66769841  1
  H+  H21  1  -0.02051036  0.90687985  0.49697046  1
  H+  H22  1  0.11667844  0.41412054  0.66314906  1
  H+  H23  1  0.59125447  0.66649576  0.05931716  1
  H+  H24  1  0.89663133  0.03596909  0.82990715  1
  H+  H25  1  0.63142994  0.40797104  0.34893405  1
  H+  H26  1  0.38652978  0.02813805  0.50704948  1
  H+  H27  1  0.14336150  0.55427885  0.66255382  1
  H+  H28  1  0.72823381  0.36407305  0.49924858  1
  H+  H29  1  0.11360024  0.21216718  0.66714370  1
  H+  H30  1  0.63037685  0.11101764  0.84667299  1
  H+  H31  1  0.64229734  0.02748271  0.66496966  1
  H+  H32  1  1.14058612  1.00064621  0.32614123  1
  H+  H33  1  0.71898907  0.59174350  0.99019669  1
  H+  H34  1  0.38057431  0.13905387  0.67622072  1
  H+  H35  1  0.11043059  0.96044015  0.15809112  1
  H+  H36  1  0.62559929  0.74113896  0.67006266  1
  H+  H37  1  0.35254127  0.13589598  0.49111417  1
  H+  H38  1  0.62038740  0.47690993  0.15478355  1
  H+  H39  1  0.65120906  0.62010150  0.50746146  1
  H+  H40  1  0.10176154  0.38603214  0.69150802  1
  H+  H41  1  0.04866708  0.59527208  0.70426810  1
  H+  H42  1  0.92824840  0.70210847  0.80136655  1
  H+  H43  1  0.20967017  0.85841497  0.99506959  1
  H+  H44  1  0.86358985  0.10358501  0.36572080  1
  H+  H45  1  0.38873469  0.35572540  0.83947403  1
  H+  H46  1  0.89935792  0.13818925  0.34736446  1
  H+  H47  1  0.40507698  0.47385381  0.81183328  1
  H+  H48  1  0.10517240  0.94103163  0.43031392  1
  H+  H49  1  0.53672780  0.88972357  0.69567191  1
  H+  H50  1  0.86554394  0.63361987  0.49765588  1
  H+  H51  1  0.77753746  0.63788040  0.49347501  1
  H+  H52  1  0.35771687  -0.02250345  0.99478832  1
  H+  H53  1  0.77227456  0.14126895  1.01290072  1
  H+  H54  1  0.78351833  0.39990087  0.34084268  1
  H+  H55  1  0.85919208  0.13713878  0.66417887  1
  H+  H56  1  0.90413883  0.53728511  0.33289943  1
  H+  H57  1  0.33249623  0.91353001  0.73021031  1
  H+  H58  1  0.47392900  0.62762645  0.33045146  1
  H+  H59  1  0.11091758  0.89482994  0.48979449  1
  H+  H60  1  0.77175792  0.14264163  0.66836862  1
  H+  H61  1  0.22158102  0.60403557  0.49973744  1
  H+  H62  1  0.49459119  0.59235837  0.84705433  1
  H+  H63  1  0.55182124  0.74516757  0.38046548  1
  H+  H64  1  0.15469415  0.09773783  1.05386337  1
  H+  H65  1  0.97300411  0.61254057  0.51807594  1
  H+  H66  1  0.65135416  0.53032670  0.50881297  1
  H+  H67  1  0.23809650  0.37147474  0.83874342  1
  H+  H68  1  0.50224586  0.55902145  0.86189627  1
  H+  H69  1  0.62834626  0.73275621  0.14897830  1
  H+  H70  1  -0.01744423  0.86828713  0.18074719  1
  H+  H71  1  0.14610564  0.77864643  0.23731199  1
  H+  H72  1  0.34070660  0.60400005  0.85393813  1
  H+  H73  1  1.02402355  0.12492692  0.15123513  1
  H+  H74  1  0.83032985  0.25121250  0.34575938  1
  H+  H75  1  0.56664464  0.89473172  0.20236900  1
  H+  H76  1  0.46883768  0.10125675  0.83237902  1
  H+  H77  1  0.23353555  0.87411132  0.64730485  1
  H+  H78  1  0.44206164  0.86958865  0.25440207  1
  H+  H79  1  0.36771324  0.22640091  0.82765641  1
  H+  H80  1  0.97803908  0.37235669  0.50422902  1
  H+  H81  1  0.64672026  0.86774372  0.16828794  1
  H+  H82  1  0.16870128  0.84070081  0.56115140  1
  H+  H83  1  0.59974749  0.13511687  0.34023051  1
  H+  H84  1  0.64131376  0.27964846  0.33346749  1
  H+  H85  1  0.60792304  0.22401854  0.82842566  1
  H+  H86  1  0.38781553  0.10879223  0.15773053  1
  H+  H87  1  0.60737542  0.46557514  -0.00241024  1
  H+  H88  1  0.87147854  0.50398683  0.84005026  1
  H+  H89  1  0.60665360  0.12685484  0.67861206  1
  H+  H90  1  0.46861384  0.84890501  0.61916436  1
  H+  H91  1  0.21639193  0.84722511  0.18865689  1
  H+  H92  1  0.35233989  0.72460486  0.15984059  1
  H+  H93  1  0.47671608  0.85797162  0.31862528  1
  H+  H94  1  0.26152431  0.36864795  0.33363085  1
  H+  H95  1  0.25129342  0.11838034  0.33658946  1
  H+  H96  1  0.36958795  0.84664221  0.49495418  1
  H+  H97  1  0.63781847  0.76574887  0.99717379  1
  H+  H98  1  0.36441669  0.25718373  0.16463766  1
  H+  H99  1  0.77435130  0.89253444  0.00936195  1
  H+  H100  1  0.36301499  0.88239691  0.82304526  1
  H+  H101  1  0.75282942  0.89151779  0.81454354  1
  H+  H102  1  0.05004055  0.33248067  0.12203229  1
  H+  H103  1  0.47667266  0.60368397  -0.01057918  1
  H+  H104  1  0.38065571  0.10105398  0.83019218  1
  H+  H105  1  0.76257345  0.37152351  0.18059999  1
  H+  H106  1  0.63244447  0.90497455  0.83461271  1
  H+  H107  1  0.27186779  0.38547481  0.15917397  1
  H+  H108  1  0.39640939  0.52798991  0.66508141  1
  H+  H109  1  0.35684529  0.64474013  0.32975399  1
  H+  H110  1  0.28170557  0.38242355  0.66770546  1
  H+  H111  1  0.74930945  0.61280836  0.83836949  1
  H+  H112  1  0.86057875  0.14180992  0.00966796  1
  H+  H113  1  0.62724053  0.36212402  0.17299878  1
  H+  H114  1  0.12876768  0.61493524  0.82875575  1
  H+  H115  1  0.85319682  0.45858808  0.17878049  1
  H+  H116  1  0.33365048  0.91792889  0.42562910  1
  H+  H117  1  0.56908381  0.87878608  0.45144306  1
  H+  H118  1  0.87298909  0.35179217  0.18192343  1
  H+  H119  1  0.32793116  0.51144090  0.85111101  1
  H+  H120  1  0.12000095  0.77610311  0.84106604  1
  H+  H121  1  0.61540176  0.12688401  0.14229827  1
  H+  H122  1  0.97354948  0.60110696  0.99626954  1
  H+  H123  1  0.14705383  0.38548402  0.17688620  1
  H+  H124  1  0.37128908  0.33573060  0.31529196  1
  H+  H125  1  0.86929360  0.59129583  0.85065629  1
  H+  H126  1  0.86759636  0.39620041  0.68265871  1
  H+  H127  1  0.58860761  0.27007826  0.20504388  1
  H+  H128  1  0.89336699  0.38006530  0.32775343  1
  H+  H129  1  0.62089689  0.48109713  0.83058194  1
  H+  H130  1  0.23235044  0.88680451  0.36051186  1
  H+  H131  1  0.67025831  0.62788941  0.83117131  1
  H+  H132  1  0.97887631  0.09353983  0.51433349  1
  H+  H133  1  0.01668771  0.38538281  0.83126310  1
  H+  H134  1  0.27399953  0.14022196  0.00618218  1
  H+  H135  1  0.82859492  0.66533637  0.73251277  1
  H+  H136  1  0.62576423  0.36248437  0.63765977  1
  H+  H137  1  0.99481459  0.36613104  0.15462850  1
  H+  H138  1  0.59957449  0.37861591  0.65350818  1
  H+  H139  1  0.89075545  0.15717020  0.81425369  1
  H+  H140  1  0.61865609  0.63587122  -0.00147018  1
  H+  H141  1  0.10846975  0.71185296  0.16071949  1
  H+  H142  1  0.88730115  0.59400489  0.17578019  1
  H+  H143  1  0.27522405  0.14010552  0.82251678  1
  H+  H144  1  0.13682419  0.03071355  0.50671589  1
  H+  H145  1  0.13827804  0.51456427  0.15962674  1
  H+  H146  1  0.49538065  0.84556690  0.50034395  1
  H+  H147  1  0.72465106  0.36012776  0.83405996  1
  H+  H148  1  0.55908459  -0.01441574  0.29510651  1
  H+  H149  1  0.85634477  0.59908294  0.00557826  1
  H+  H150  1  0.86871989  0.90546371  0.00254686  1
  H+  H151  1  0.40227167  0.63424259  0.16319872  1
  H+  H152  1  0.91080008  0.56339122  0.93700839  1
  H+  H153  1  0.85728578  0.59032490  0.66041589  1
  H+  H154  1  0.46792161  0.86358448  0.16237959  1
  H+  H155  1  0.38395548  0.10956890  0.00173460  1
  H+  H156  1  0.13943723  0.12051429  0.83521622  1
  H+  H157  1  0.11112096  0.47593656  0.49342863  1
  H+  H158  1  0.88200806  0.03247936  0.99284522  1
  H+  H159  1  0.87552642  0.26300257  0.18091505  1
  H+  H160  1  0.85361022  0.23686153  0.49609454  1
  H+  H161  1  0.73821601  0.87122195  0.16730784  1
  H+  H162  1  0.97693169  0.59621746  0.17632559  1
  H+  H163  1  0.99987745  0.43804770  0.68580167  1
  H+  H164  1  0.11049229  0.48584392  0.99599506  1
  H+  H165  1  0.16712897  0.34383192  0.23272065  1
  H+  H166  1  0.11890539  0.09373979  0.65778906  1
  H+  H167  1  0.90097913  0.28274113  0.83003348  1
  H+  H168  1  0.48584096  0.87017384  0.00173480  1
  H+  H169  1  0.13749425  0.53203247  0.83201942  1
  H+  H170  1  0.64083653  0.02361616  1.00417203  1
  H+  H171  1  0.27779736  0.38507860  1.00729799  1
  H+  H172  1  0.11162109  0.73186841  0.49705649  1
  H+  H173  1  0.63513039  0.87646163  0.34640226  1
  H+  H174  1  0.65396650  0.87535411  0.66994564  1
  H+  H175  1  0.60848503  0.37670864  -0.00125118  1
  H+  H176  1  0.63182349  0.12530898  0.51618775  1
  H+  H177  1  0.02977817  0.14251658  0.82813061  1
  H+  H178  1  0.62430203  0.00363591  0.16629434  1
  H+  H179  1  0.88477585  0.64337498  0.35002165  1
  H+  H180  1  0.62109439  0.61375211  0.31940798  1
  H+  H181  1  0.88703886  0.79786521  0.20263453  1
  H+  H182  1  0.89235291  0.26917292  0.65686549  1
  H+  H183  1  0.72399219  0.60952778  0.17192234  1
  H+  H184  1  0.85956213  0.38511426  0.82154712  1
  H+  H185  1  0.38061151  0.23744195  0.67501433  1
  H+  H186  1  0.62292831  -0.00940755  0.83675448  1
  H+  H187  1  0.89939019  0.85955797  0.34527867  1
  H+  H188  1  0.38927580  0.02700906  0.66417960  1
  H+  H189  1  0.60797571  0.23185233  0.48997220  1
  H+  H190  1  0.89959129  0.80964522  -0.03539350  1
  H+  H191  1  0.18208902  0.14769133  0.28022000  1
  H+  H192  1  0.84552006  0.92944060  0.10160616  1
  H+  H193  1  0.73958102  0.87102364  0.67373428  1
  H+  H194  1  0.60386209  0.92999572  0.74815785  1
  H+  H195  1  0.22389851  0.61402194  0.31833732  1
  H+  H196  1  0.75898974  0.62935350  0.67555098  1
  H+  H197  1  0.62032193  0.21840321  0.67145075  1
  H+  H198  1  0.75407550  0.34679206  0.65880804  1
  H+  H199  1  0.65537883  0.77968271  0.32066205  1
  H+  H200  1  1.02197450  0.39330347  0.34094093  1
  H+  H201  1  0.88490039  0.73555914  0.35344858  1
  H+  H202  1  0.76360153  0.12701420  0.16223761  1
  H+  H203  1  0.86557759  0.39597069  0.49248504  1
  H+  H204  1  0.10136504  0.72433540  0.00794185  1
  H+  H205  1  0.75547906  0.15534962  0.34002173  1
  H+  H206  1  0.63844426  0.61526044  0.16431632  1
  H+  H207  1  0.86160640  0.48259435  0.49407149  1
  H+  H208  1  0.11946230  0.23137368  0.82573203  1
  H+  H209  1  0.32176958  0.65766940  0.39168186  1
  H+  H210  1  0.36754597  0.26277949  0.51066855  1
  H+  H211  1  0.25789253  0.38677913  0.49351360  1
  H+  H212  1  0.92525621  0.95359122  0.51157832  1
  H+  H213  1  0.66087851  0.32773960  0.92713510  1
  H+  H214  1  0.60908490  0.21962984  -0.00942508  1
  H+  H215  1  0.13688550  0.61350006  0.50527191  1
  H+  H216  1  0.10960244  0.24021820  0.99822655  1
  H+  H217  1  0.62425026  0.40174235  0.49839443  1
  H+  H218  1  0.96958032  0.12298694  0.98821921  1
  H+  H219  1  0.35943072  0.62265295  0.49322477  1
  H+  H220  1  0.84962935  0.45558799  0.00529165  1
  H+  H221  1  0.84222051  0.42947562  0.39998175  1
  H+  H222  1  0.62116687  0.72620050  0.50208084  1
  H+  H223  1  0.36058705  0.73762685  1.00818339  1
  H+  H224  1  -0.02624497  0.36224525  -0.01448800  1
  H+  H225  1  0.88877970  0.88555371  0.81458757  1
  H+  H226  1  0.62500188  0.84168325  0.51879101  1
  H+  H227  1  0.21704156  0.86311504  0.49620898  1
  H+  H228  1  0.37925752  0.86507221  0.16785258  1
  H+  H229  1  0.67210438  0.58892531  0.59900962  1
  H+  H230  1  0.36086481  0.35440770  0.16546663  1
  H+  H231  1  0.36437159  0.22945073  1.00195040  1
  H+  H232  1  0.39423338  0.53456165  0.31700959  1
  H+  H233  1  0.37000741  0.74104391  0.82674837  1
  H+  H234  1  0.38137877  0.35709616  0.51298395  1
  H+  H235  1  0.96802054  0.11238568  0.66126671  1
  H+  H236  1  0.63587730  0.10955538  -0.00604926  1
  H+  H237  1  0.62851152  0.49476114  0.34482380  1
  H+  H238  1  0.34702721  0.70398495  0.48731817  1
  H+  H239  1  0.31722379  0.90147419  -0.05288168  1
  H+  H240  1  0.13082453  0.36792558  0.32742434  1
  H+  H241  1  0.13398917  0.66378764  0.29740890  1
  H+  H242  1  0.87752397  0.90579748  0.16397599  1
  H+  H243  1  -0.01244126  0.88821393  -0.01405411  1
  H+  H244  1  0.11456485  0.97976358  0.80998957  1
  H+  H245  1  1.03838268  0.06136752  0.28737875  1
  H+  H246  1  0.66317697  0.74777891  0.81660344  1
  H+  H247  1  0.80016890  0.89271201  0.33328832  1
  H+  H248  1  0.11916993  0.14247400  0.50468644  1
  H+  H249  1  0.10404719  0.14794243  -0.00285008  1
  H+  H250  1  0.15456351  0.06492830  0.22147672  1
  H+  H251  1  0.10250706  0.86714116  0.16411256  1
  H+  H252  1  0.45382347  0.09416814  0.33566954  1
  H+  H253  1  0.07356433  0.66713989  0.44181878  1
  H+  H254  1  0.61168578  -0.05343098  0.36656336  1
  H+  H255  1  0.42956800  0.96273667  0.45007372  1
  H+  H256  1  0.22147220  0.84324395  0.84388206  1
  H+  H257  1  0.12406596  0.00823106  0.65251943  1
  H+  H258  1  0.07338593  0.42188117  0.05353961  1
  H+  H259  1  0.47590917  0.35857891  0.99180771  1
  H+  H260  1  0.64258358  0.62604654  0.65551111  1
  H+  H261  1  0.02257738  0.89804599  0.81027740  1
  H+  H262  1  -0.00672352  0.64873348  0.82610229  1
  H+  H263  1  0.35727553  0.97632215  0.15536053  1
  H+  H264  1  0.12673948  0.27670894  0.33036808  1
  H+  H265  1  0.47477332  0.10621697  0.15029782  1
  H+  H266  1  0.72897863  0.26289910  0.61581107  1
  H+  H267  1  0.12817228  0.08833892  0.15795953  1
  H+  H268  1  0.88001768  1.02791484  0.67339304  1
  H+  H269  1  0.03892624  0.13780187  0.34619539  1
  H+  H270  1  0.53563473  0.64976873  0.67303286  1
  H+  H271  1  0.88209319  0.73907830  0.64959667  1
  H+  H272  1  0.89204474  0.85436661  0.56670524  1
  H+  H273  1  0.14080724  0.37585995  0.99067964  1
  H+  H274  1  0.61495261  0.88348570  1.02324322  1
  H+  H275  1  0.12895141  0.35950702  0.50795893  1
  H+  H276  1  0.28927139  0.64254163  0.66926166  1
  H+  H277  1  0.48066436  0.11566602  0.66289563  1
  H+  H278  1  0.35639004  0.96743407  0.82007618  1
  H+  H279  1  0.87477579  0.70155955  0.14214847  1
  H+  H280  1  0.89681161  -0.02993968  0.33214341  1
  H+  H281  1  0.14121890  0.86635544  0.64760430  1
  H+  H282  1  0.11160339  0.48221797  0.33750205  1
  H+  H283  1  0.39658956  0.61794767  0.66557877  1
  H+  H284  1  0.36647570  0.89203559  0.66921410  1
  H+  H285  1  0.36519004  0.09267182  0.33380436  1
  H+  H286  1  0.26860350  0.65136046  1.00550303  1
  H+  H287  1  0.57608020  0.68293204  0.41386182  1
  H+  H288  1  0.36818243  0.24613318  0.31307673  1
  H+  H289  1  0.66050956  0.02341941  0.28877514  1
  H+  H290  1  0.92156786  0.87284434  0.87975237  1
  H+  H291  1  0.26657999  0.12257492  0.15308608  1
  H+  H292  1  0.89261425  0.12113781  0.18052284  1
  H+  H293  1  0.67005247  0.34037748  0.27572038  1
  H+  H294  1  0.82966643  0.16518650  0.10710474  1
  H+  H295  1  0.41023326  0.08458420  0.56798817  1
  H+  H296  1  0.62567554  0.68570192  0.75872112  1
  H+  H297  1  0.05210061  0.67235234  0.30444135  1
  H+  H298  1  0.64901328  0.83210830  0.94531976  1
  H+  H299  1  0.07258884  0.90342267  0.06687986  1
  H+  H300  1  0.17664611  0.32154095  0.59197492  1
  H+  H301  1  0.60244590  0.43863315  0.43935350  1
  H+  H302  1  0.84644428  0.66676504  0.42046852  1
  H+  H303  1  0.07793112  0.66112528  0.06599422  1
  H+  H304  1  0.91551182  0.08578892  0.89493451  1
  H+  H305  1  0.96514774  0.07779498  0.25845119  1
  H+  H306  1  0.16543036  0.08234125  0.89134428  1
  H+  H307  1  0.16350190  0.59391462  0.92846393  1
  H+  H308  1  0.34503075  0.67994917  0.73105866  1
  H+  H309  1  0.18243265  0.58486229  0.59595705  1
  H+  H310  1  0.31263611  0.46168437  0.44740513  1
  H+  H311  1  0.53274149  0.63486582  0.50046704  1
  H+  H312  1  0.40860070  0.32233600  0.60571627  1
  H+  H313  1  0.53517146  0.64992321  0.15038152  1
  H+  H314  1  0.68232475  0.83451118  0.25875173  1
  H+  H315  1  0.16285886  0.08231554  0.57070208  1
  H+  H316  1  0.17491939  0.34453328  0.93465181  1
  H+  H317  1  0.07787151  0.38466923  0.77747624  1
  H+  H318  1  0.94220918  0.83947577  0.29039723  1
  H+  H319  1  0.07905085  0.16274822  0.73033213  1
  H+  H320  1  0.82308196  0.62586868  0.09766720  1
  H+  H321  1  0.63737467  0.36390117  0.83495280  1
  H+  H322  1  0.39189848  0.31169831  0.23065774  1
  H+  H323  1  0.07511748  0.15673959  0.08881796  1
  H+  H324  1  0.15152193  0.37514919  0.84274511  1
  H+  H325  1  0.66367591  0.08998908  0.60496598  1
  H+  H326  1  0.84830520  0.36829200  0.99761810  1
  H+  H327  1  0.92135566  0.34501241  0.56484833  1
  H+  H328  1  0.82531721  0.41264240  0.76025989  1
  H+  H329  1  0.36947913  0.38420035  0.67319567  1
  H+  H330  1  0.67918572  0.32468111  0.56081756  1
  H+  H331  1  0.58292787  0.91169487  0.08146188  1
  H+  H332  1  0.08516561  0.17101634  0.44642348  1
  H+  H333  1  0.31074098  0.90430896  0.10470692  1
  H+  H334  1  0.38648219  0.36044736  0.99318095  1
  H+  H335  1  0.85132839  0.68463661  0.01351093  1
  H+  H336  1  0.37004007  0.47137227  1.00816923  1
  H+  H337  1  0.13109157  0.26893573  0.50786418  1
  H+  H338  1  0.39360816  0.57123528  0.94536438  1
  H+  H339  1  0.43010057  0.84184700  0.90133238  1
  H+  H340  1  0.91766619  0.33334375  0.89487062  1
  H+  H341  1  0.91201083  0.05209037  0.56716502  1
  H+  H342  1  0.64187087  0.07819837  0.21653963  1
  H+  H343  1  0.16660537  0.57392399  0.25803359  1
  H+  H344  1  0.14856941  0.89545683  0.28766338  1
  H+  H345  1  0.32908940  0.16313313  0.09474496  1
  H+  H346  1  0.39807857  0.87266061  0.99246415  1
  H+  H347  1  0.37668911  0.80662080  0.55815568  1
  H+  H348  1  0.91566001  0.33700750  0.27122147  1
  H+  H349  1  0.92403203  0.58887321  0.27185269  1
  H+  H350  1  0.12898612  0.02019229  1.01114413  1
  H+  H351  1  0.34627224  0.17145740  0.73894848  1
  H+  H352  1  0.58121589  0.16409901  0.76998571  1
  H+  H353  1  0.67840573  0.82750540  0.56969034  1
  H+  H354  1  0.13006230  0.61825936  0.98860302  1
  H+  H355  1  0.15340681  0.82137122  0.93574607  1
  H+  H356  1  0.22756114  0.60545714  0.16293941  1
  H+  H357  1  0.08245993  0.41797934  0.43338922  1
  H+  H358  1  0.90276687  0.57311448  0.57279868  1
  H+  H359  1  0.56209904  0.43903566  0.74023674  1
  H+  H360  1  0.73656054  0.86676785  0.88264606  1
  H+  H361  1  0.04924734  0.47142669  0.74778947  1
  H+  H362  1  0.57429569  0.16721892  0.39934984  1
  H+  H363  1  0.51626467  0.14473064  0.49368221  1
  H+  H364  1  0.34287445  0.41806857  0.75861955  1
  H+  H365  1  0.59395806  0.41577745  0.09573444  1
  H+  H366  1  0.80264980  0.18568132  0.43863166  1
  H+  H367  1  0.31940993  0.37915539  0.39062679  1
  H+  H368  1  0.43781035  0.61250837  0.22238888  1
  H+  H369  1  0.33191412  0.40628601  0.09896685  1
  H+  H370  1  0.27489647  0.65985274  0.81965919  1
  H+  H371  1  0.88638820  0.27074914  -0.00853035  1
  H+  H372  1  0.98859924  0.32668058  0.63716481  1
  H+  H373  1  0.07851842  0.90827768  0.72159432  1
  H+  H374  1  0.13002150  0.15743917  0.35709384  1
  H+  H375  1  0.58395926  0.16254651  0.05066559  1
  H+  H376  1  0.66411364  0.08244356  0.90516076  1
  H+  H377  1  0.67139008  0.57934310  0.92693365  1
  H+  H378  1  0.41688080  0.32934267  0.90172050  1
  H+  H379  1  0.42517866  0.58588279  0.57340718  1
  H+  H380  1  0.31065537  0.15376650  0.39641348  1
  H+  H381  1  0.32610236  0.67177145  0.09741957  1
  H+  H382  1  0.65811727  0.58933079  0.26302101  1
  H+  H383  1  0.10496142  0.88283442  0.00415900  1
  O2-  O384  1  0.07676676  0.13472834  0.12968768  1
  O2-  O385  1  0.08710082  0.17297527  0.49171203  1
  O2-  O386  1  0.08988089  0.17118960  0.81117326  1
  O2-  O387  1  0.05075688  0.38607761  0.13057238  1
  O2-  O388  1  0.08124857  0.41472225  0.47899140  1
  O2-  O389  1  0.07975822  0.41718835  0.81349715  1
  O2-  O390  1  0.07889578  0.65322256  0.14264451  1
  O2-  O391  1  0.08147895  0.66868282  0.48569131  1
  O2-  O392  1  0.02300410  0.70230984  0.80200918  1
  O2-  O393  1  0.07434601  0.89736319  0.14587742  1
  O2-  O394  1  0.08968227  0.93257776  0.47392371  1
  O2-  O395  1  0.08184834  0.92021290  0.79544369  1
  O2-  O396  1  0.32769838  0.16025692  0.14031770  1
  O2-  O397  1  0.32172555  0.16451687  0.47466383  1
  O2-  O398  1  0.33598980  0.16827274  0.80809120  1
  O2-  O399  1  0.33118928  0.40340299  0.14444404  1
  O2-  O400  1  0.31764833  0.42266517  0.47562274  1
  O2-  O401  1  0.34890435  0.42290344  0.80497388  1
  O2-  O402  1  0.32559632  0.66515162  0.14360944  1
  O2-  O403  1  0.32307475  0.64316911  0.47354273  1
  O2-  O404  1  0.33562072  0.68234736  0.80816919  1
  O2-  O405  1  0.31989196  0.91118302  0.14847302  1
  O2-  O406  1  0.37089823  0.93382897  0.46559196  1
  O2-  O407  1  0.32635689  0.90468674  0.80697267  1
  O2-  O408  1  0.59020040  0.16264928  0.12635956  1
  O2-  O409  1  0.57487904  0.17033687  0.47610236  1
  O2-  O410  1  0.57835284  0.16262041  0.81526418  1
  O2-  O411  1  0.60038257  0.41747821  0.14057117  1
  O2-  O412  1  0.60191133  0.43929553  0.48527477  1
  O2-  O413  1  0.58739082  0.42125209  0.81469414  1
  O2-  O414  1  0.59600818  0.67234043  0.13405102  1
  O2-  O415  1  0.59091076  0.66621317  0.48212134  1
  O2-  O416  1  0.64402085  0.68936472  0.80191504  1
  O2-  O417  1  0.58626240  0.91503019  0.16116846  1
  O2-  O418  1  0.55834816  0.87692293  0.49551727  1
  O2-  O419  1  0.59637296  0.92825598  0.81981202  1
  O2-  O420  1  0.82647544  0.16096582  0.15251774  1
  O2-  O421  1  0.81628400  0.17781402  0.48109468  1
  O2-  O422  1  0.87602143  0.19923340  0.79787399  1
  O2-  O423  1  0.82183358  0.39742481  0.16614307  1
  O2-  O424  1  0.83380710  0.42377085  0.47547485  1
  O2-  O425  1  0.82717900  0.41363123  0.80833705  1
  O2-  O426  1  0.83237380  0.64066655  0.14230857  1
  O2-  O427  1  0.83852579  0.66425126  0.47738896  1
  O2-  O428  1  0.86768678  0.69048431  0.80786557  1
  O2-  O429  1  0.84397047  0.93123728  0.14687134  1
  O2-  O430  1  0.92201369  0.89623975  0.50829777  1
  O2-  O431  1  0.84248979  0.94068245  0.78039644  1
  O2-  O432  1  0.16016801  0.06039443  0.17503606  1
  O2-  O433  1  0.16717393  0.09011922  0.52422269  1
  O2-  O434  1  0.17096237  0.08950452  0.84742523  1
  O2-  O435  1  0.17386750  0.35170393  0.18789038  1
  O2-  O436  1  0.16277541  0.33203951  0.52162360  1
  O2-  O437  1  0.17873194  0.34125321  0.85460831  1
  O2-  O438  1  0.16512157  0.57219375  0.17719972  1
  O2-  O439  1  0.16288363  0.57849085  0.51823215  1
  O2-  O440  1  0.16405235  0.59265260  0.84517587  1
  O2-  O441  1  0.15458052  0.81396552  0.19947009  1
  O2-  O442  1  0.15969913  0.83421340  0.51378750  1
  O2-  O443  1  0.17028255  0.80505218  0.86863745  1
  O2-  O444  1  0.41605372  0.07479911  0.16692097  1
  O2-  O445  1  0.40924817  0.08727497  0.52277133  1
  O2-  O446  1  0.40621903  0.06537549  0.84052625  1
  O2-  O447  1  0.39060402  0.31688418  0.18259174  1
  O2-  O448  1  0.39217666  0.31667423  0.53513602  1
  O2-  O449  1  0.41999585  0.32788211  0.85573707  1
  O2-  O450  1  0.44400221  0.61746398  0.17787097  1
  O2-  O451  1  0.42416422  0.58348921  0.52775944  1
  O2-  O452  1  0.32957564  0.55385600  0.87942253  1
  O2-  O453  1  0.41018118  0.83475867  0.18184627  1
  O2-  O454  1  0.38074087  0.80233007  0.51361127  1
  O2-  O455  1  0.42829700  0.84099480  0.85587909  1
  O2-  O456  1  0.65436321  0.07343758  0.17366187  1
  O2-  O457  1  0.66552411  0.10278514  0.53654014  1
  O2-  O458  1  0.66063311  0.08024832  0.86012707  1
  O2-  O459  1  0.64339289  0.32054432  0.19513153  1
  O2-  O460  1  0.66931014  0.33194797  0.51713557  1
  O2-  O461  1  0.66428227  0.33051979  0.85008395  1
  O2-  O462  1  0.66302673  0.58155412  0.18363230  1
  O2-  O463  1  0.68357261  0.59324157  0.52432695  1
  O2-  O464  1  0.68914989  0.58828216  0.85086782  1
  O2-  O465  1  0.67729474  0.83581883  0.18098449  1
  O2-  O466  1  0.66462849  0.81876225  0.52603646  1
  O2-  O467  1  0.70440095  0.85996300  0.84542936  1
  O2-  O468  1  0.92748746  0.09342832  0.18952556  1
  O2-  O469  1  0.92263035  0.04334216  0.52449549  1
  O2-  O470  1  0.92820586  0.09243129  0.85033447  1
  O2-  O471  1  0.90954622  0.32479604  0.19337535  1
  O2-  O472  1  0.91804095  0.34778358  0.52000706  1
  O2-  O473  1  0.92502347  0.34237765  0.84964652  1
  O2-  O474  1  0.91866789  0.56812304  0.19531789  1
  O2-  O475  1  0.91069866  0.58022882  0.52690796  1
  O2-  O476  1  0.90021201  0.56158931  0.86265290  1
  O2-  O477  1  0.92872504  0.85887875  0.20219434  1
  O2-  O478  1  0.86766904  0.82618062  0.60990200  1
  O2-  O479  1  0.91459810  0.85542019  0.83674445  1
  O2-  O480  1  0.14716950  0.08697719  0.29021852  1
  O2-  O481  1  0.15335349  0.07011097  0.64040926  1
  O2-  O482  1  0.15794234  0.08485370  1.01108578  1
  O2-  O483  1  0.15770978  0.33468331  0.31125562  1
  O2-  O484  1  0.18356247  0.31565126  0.63737786  1
  O2-  O485  1  0.17006446  0.34273313  0.97966585  1
  O2-  O486  1  0.16300381  0.58102473  0.30256241  1
  O2-  O487  1  0.19722262  0.58536252  0.63956633  1
  O2-  O488  1  0.16141732  0.58913949  0.97327022  1
  O2-  O489  1  0.13062702  0.88391678  0.33036526  1
  O2-  O490  1  0.17642019  0.84423523  0.62787467  1
  O2-  O491  1  0.14851862  0.82786650  0.98170680  1
  O2-  O492  1  0.39256312  0.05767221  0.32555852  1
  O2-  O493  1  0.41877754  0.08805480  0.64895716  1
  O2-  O494  1  0.40777990  0.07121125  0.99470926  1
  O2-  O495  1  0.39708295  0.30476893  0.29495644  1
  O2-  O496  1  0.41075229  0.32201834  0.65196832  1
  O2-  O497  1  0.41516306  0.32886117  0.97597039  1
  O2-  O498  1  0.42025247  0.59527227  0.30599843  1
  O2-  O499  1  0.42756185  0.58833974  0.65032851  1
  O2-  O500  1  0.41433766  0.56467598  0.98559079  1
  O2-  O501  1  0.47033041  0.89893643  0.29329860  1
  O2-  O502  1  0.41229555  0.82924076  0.63698653  1
  O2-  O503  1  0.42929227  0.84250560  0.98023665  1
  O2-  O504  1  0.61820541  0.03874166  0.30190559  1
  O2-  O505  1  0.66696715  0.08792581  0.65181075  1
  O2-  O506  1  0.67162865  0.08172748  0.98578024  1
  O2-  O507  1  0.67689680  0.34072751  0.32039359  1
  O2-  O508  1  0.70416623  0.29639633  0.63132007  1
  O2-  O509  1  0.65687768  0.32394808  0.97254935  1
  O2-  O510  1  0.66095487  0.59462391  0.30804156  1
  O2-  O511  1  0.66630231  0.58780046  0.64481629  1
  O2-  O512  1  0.66187509  0.57327024  0.97207329  1
  O2-  O513  1  0.68876954  0.83839170  0.30421394  1
  O2-  O514  1  0.68259030  0.84441281  0.65383004  1
  O2-  O515  1  0.66614087  0.83024845  0.98703087  1
  O2-  O516  1  0.98339886  0.06086733  0.29623962  1
  O2-  O517  1  0.90641337  0.08151257  0.64868090  1
  O2-  O518  1  0.90858408  0.09045305  0.97373780  1
  O2-  O519  1  0.91825768  0.34273628  0.31654914  1
  O2-  O520  1  0.93684771  0.33031637  0.64291996  1
  O2-  O521  1  0.91350530  0.32799248  0.97069259  1
  O2-  O522  1  0.93336235  0.59743897  0.31666771  1
  O2-  O523  1  0.88749483  0.56074048  0.64420791  1
  O2-  O524  1  0.91206224  0.56585988  0.98273964  1
  O2-  O525  1  0.93148341  0.82816346  0.33390103  1
  O2-  O526  1  0.92258148  0.79018564  0.62369407  1
  O2-  O527  1  0.93169056  0.87202357  0.96410811  1
  O2-  O528  1  0.07326343  0.17786561  0.00991015  1
  O2-  O529  1  0.09223343  0.17999701  0.36915575  1
  O2-  O530  1  0.07210915  0.15610871  0.68548120  1
  O2-  O531  1  0.08129496  0.42383542  0.00881554  1
  O2-  O532  1  0.08316318  0.42287094  0.35546820  1
  O2-  O533  1  0.04224303  0.49026586  0.70738128  1
  O2-  O534  1  0.07456110  0.66262836  0.02047910  1
  O2-  O535  1  0.11360146  0.70576056  0.29391330  1
  O2-  O536  1  0.04077400  0.64493900  0.69832105  1
  O2-  O537  1  0.07621212  0.91423229  0.02199705  1
  O2-  O538  1  0.15587755  0.96813410  0.35625708  1
  O2-  O539  1  0.08046362  0.90579294  0.67580284  1
  O2-  O540  1  0.33493056  0.16911135  0.01864803  1
  O2-  O541  1  0.31137920  0.14954027  0.35102058  1
  O2-  O542  1  0.35292028  0.17384003  0.69231653  1
  O2-  O543  1  0.33745579  0.40835240  0.02213868  1
  O2-  O544  1  0.32238604  0.39102401  0.34687699  1
  O2-  O545  1  0.33997381  0.41653408  0.68630440  1
  O2-  O546  1  0.32435356  0.68043588  0.02679031  1
  O2-  O547  1  0.32215480  0.66797903  0.34747108  1
  O2-  O548  1  0.34999752  0.67740131  0.68578021  1
  O2-  O549  1  0.32335900  0.91031095  -0.00897114  1
  O2-  O550  1  0.29214720  0.90043428  0.36544528  1
  O2-  O551  1  0.33852903  0.92337078  0.68489795  1
  O2-  O552  1  0.58047360  0.15844581  0.00528655  1
  O2-  O553  1  0.57291667  0.16806453  0.35363751  1
  O2-  O554  1  0.57889722  0.16153526  0.69042553  1
  O2-  O555  1  0.57807008  0.40671556  0.01519239  1
  O2-  O556  1  0.60287645  0.43816883  0.36541524  1
  O2-  O557  1  0.53918309  0.44936232  0.70213317  1
  O2-  O558  1  0.59117073  0.66878992  0.01336900  1
  O2-  O559  1  0.56377976  0.69895780  0.37164940  1
  O2-  O560  1  0.59747540  0.67979383  0.68415514  1
  O2-  O561  1  0.58567041  0.91505182  0.03634489  1
  O2-  O562  1  0.59390964  0.88586714  0.37150379  1
  O2-  O563  1  0.59857588  0.92399849  0.70182121  1
  O2-  O564  1  0.83327847  0.17310770  0.02794771  1
  O2-  O565  1  0.77692440  0.20582716  0.36565347  1
  O2-  O566  1  0.83497113  0.17434974  0.67800269  1
  O2-  O567  1  0.81385962  0.39348321  0.01299346  1
  O2-  O568  1  0.84486234  0.43242292  0.35430179  1
  O2-  O569  1  0.82383283  0.41080633  0.69275441  1
  O2-  O570  1  0.81928192  0.62386350  0.02331573  1
  O2-  O571  1  0.85402002  0.67221752  0.36797613  1
  O2-  O572  1  0.82135671  0.65461799  0.68807078  1
  O2-  O573  1  0.83508849  0.92852825  0.02291080  1
  O2-  O574  1  0.85614652  0.91676130  0.35387923  1
  O2-  O575  1  0.83767957  0.93562140  0.71925114  1
