# generated using pymatgen
data_H2O
_symmetry_space_group_name_H-M   'P 1'
_cell_length_a   17.99096536
_cell_length_b   17.99502683
_cell_length_c   22.01434470
_cell_angle_alpha   89.99093463
_cell_angle_beta   90.03595347
_cell_angle_gamma   119.99850406
_symmetry_Int_Tables_number   1
_chemical_formula_structural   H2O
_chemical_formula_sum   'H384 O192'
_cell_volume   6172.33961423
_cell_formula_units_Z   192
loop_
 _symmetry_equiv_pos_site_id
 _symmetry_equiv_pos_as_xyz
  1  'x, y, z'
loop_
 _atom_type_symbol
 _atom_type_oxidation_number
  H+  1.0
  O2-  -2.0
loop_
 _atom_site_type_symbol
 _atom_site_label
 _atom_site_symmetry_multiplicity
 _atom_site_fract_x
 _atom_site_fract_y
 _atom_site_fract_z
 _atom_site_occupancy
  H+  H0  1  0.02034659  0.12765542  0.00295449  1
  H+  H1  1  0.60530193  0.64910091  0.82731024  1
  H+  H2  1  0.86330216  0.47233461  0.48267291  1
  H+  H3  1  0.37227242  0.10306978  0.82466032  1
  H+  H4  1  0.63410879  0.11007541  0.50598056  1
  H+  H5  1  0.97171379  0.11999171  0.50415321  1
  H+  H6  1  0.64217070  0.27111837  0.83795551  1
  H+  H7  1  0.10477531  0.53378325  0.18410320  1
  H+  H8  1  0.13858813  0.11300830  0.66120064  1
  H+  H9  1  0.14476095  0.77674546  0.50904300  1
  H+  H10  1  0.77640843  0.63386658  0.83017234  1
  H+  H11  1  0.02667790  0.39899554  0.65790977  1
  H+  H12  1  0.98251924  0.86354392  0.32935126  1
  H+  H13  1  0.14338085  0.52324859  0.49620113  1
  H+  H14  1  0.14867902  0.53081025  0.63861997  1
  H+  H15  1  0.84641310  0.39168321  0.16420901  1
  H+  H16  1  0.00055615  0.11898732  0.16405747  1
  H+  H17  1  0.89432713  0.16998811  0.67494100  1
  H+  H18  1  0.24292054  0.38913016  0.18718599  1
  H+  H19  1  0.64675456  0.04195855  0.34381109  1
  H+  H20  1  0.63816415  0.84905355  0.37523297  1
  H+  H21  1  0.72633427  0.61947285  0.17077832  1
  H+  H22  1  0.23176686  0.12078826  0.65609832  1
  H+  H23  1  0.36412450  0.38150913  0.33827667  1
  H+  H24  1  0.73789455  0.87672307  0.84568446  1
  H+  H25  1  0.62119727  0.62384154  0.50405533  1
  H+  H26  1  0.13180494  0.10565756  0.98619609  1
  H+  H27  1  0.27793076  0.63613728  0.82476919  1
  H+  H28  1  0.16814878  0.32730351  0.27815395  1
  H+  H29  1  0.90868183  0.29672577  0.66582071  1
  H+  H30  1  0.72720443  0.61350632  0.32035849  1
  H+  H31  1  0.60814532  0.47818632  0.33360122  1
  H+  H32  1  0.15474743  0.66414249  0.32954068  1
  H+  H33  1  0.14334312  0.99349263  0.67830291  1
  H+  H34  1  0.72358933  0.11357325  0.50617440  1
  H+  H35  1  0.39211858  0.77776296  0.65225731  1
  H+  H36  1  0.08748619  0.32405582  0.35904990  1
  H+  H37  1  0.64382925  0.78214864  0.14569724  1
  H+  H38  1  0.88015089  1.03307372  0.50609539  1
  H+  H39  1  0.48227620  0.36599271  0.50117228  1
  H+  H40  1  0.85468636  0.20920164  0.83889090  1
  H+  H41  1  0.34588240  0.36560647  0.83541319  1
  H+  H42  1  0.88940357  0.89500573  0.16530714  1
  H+  H43  1  0.36432475  0.61957598  0.99612194  1
  H+  H44  1  0.52617710  0.62495156  0.00431438  1
  H+  H45  1  0.21176896  0.35737450  1.00084498  1
  H+  H46  1  0.87267474  0.64104448  0.68600765  1
  H+  H47  1  0.11637531  0.22172692  0.82977108  1
  H+  H48  1  0.67048276  0.60154983  0.77193905  1
  H+  H49  1  0.86212621  0.12504206  0.99780393  1
  H+  H50  1  0.12028017  0.79925984  0.16897224  1
  H+  H51  1  0.01318527  0.12374111  0.34046817  1
  H+  H52  1  0.94901551  0.35251613  1.00267511  1
  H+  H53  1  0.11322475  0.97354152  0.49561707  1
  H+  H54  1  0.07577104  0.98893374  0.81810048  1
  H+  H55  1  0.40563418  0.86368308  0.82454271  1
  H+  H56  1  0.35291514  0.38055319  0.01071393  1
  H+  H57  1  0.22839613  0.35788763  0.66124659  1
  H+  H58  1  0.85526187  0.63821218  0.17120203  1
  H+  H59  1  0.63552866  0.37440824  1.00106311  1
  H+  H60  1  0.73417059  0.08830806  0.97775481  1
  H+  H61  1  0.54223876  0.36707092  -0.00682732  1
  H+  H62  1  -0.04955218  0.36114355  0.17144974  1
  H+  H63  1  0.11500188  -0.02045009  0.34494699  1
  H+  H64  1  0.08953126  0.84433984  0.82793082  1
  H+  H65  1  0.61515285  0.14653070  0.34267979  1
  H+  H66  1  0.36151991  0.23294228  0.16282591  1
  H+  H67  1  0.36635410  0.63431334  0.82925969  1
  H+  H68  1  0.38224110  0.51618153  0.32650606  1
  H+  H69  1  0.61391695  0.47970669  0.48703711  1
  H+  H70  1  0.36390656  0.22788304  0.49469197  1
  H+  H71  1  0.09432436  0.45161527  0.82502781  1
  H+  H72  1  -0.01894753  0.61963828  0.66094523  1
  H+  H73  1  0.27589101  0.89165891  0.33720146  1
  H+  H74  1  0.52441626  0.63658423  0.15892806  1
  H+  H75  1  0.37064352  0.23133996  0.66600032  1
  H+  H76  1  0.86351386  -0.03328245  0.34961572  1
  H+  H77  1  0.56352338  0.14173231  -0.00839961  1
  H+  H78  1  0.73431429  0.86869924  0.15172373  1
  H+  H79  1  -0.02955041  0.57782359  0.30673174  1
  H+  H80  1  0.51001954  0.17488853  0.81407818  1
  H+  H81  1  0.78336773  0.11002047  0.82485229  1
  H+  H82  1  0.34284418  0.84246847  -0.02032306  1
  H+  H83  1  0.39356820  0.52079762  0.50262675  1
  H+  H84  1  0.52017452  0.14057567  0.66200509  1
  H+  H85  1  0.88135584  0.60782882  0.00415909  1
  H+  H86  1  0.11716838  0.38669043  0.50275057  1
  H+  H87  1  0.61104351  0.22777392  0.66866433  1
  H+  H88  1  0.33575693  0.41099013  0.39921062  1
  H+  H89  1  0.57302406  0.41952120  0.09715930  1
  H+  H90  1  0.61229941  0.98251609  0.15919115  1
  H+  H91  1  0.61403933  0.89463507  0.14672726  1
  H+  H92  1  0.22385757  0.11332620  0.50606593  1
  H+  H93  1  0.35258555  0.22014257  0.81673190  1
  H+  H94  1  0.37473914  0.52081332  0.83833568  1
  H+  H95  1  0.38847236  0.86713523  0.33497276  1
  H+  H96  1  -0.02539675  0.84259814  0.51113179  1
  H+  H97  1  0.36267573  0.13933039  0.34338835  1
  H+  H98  1  0.09200258  0.91122159  0.07848603  1
  H+  H99  1  0.86340760  0.87285518  0.67211289  1
  H+  H100  1  0.36545612  0.13873797  0.66413217  1
  H+  H101  1  0.27338493  0.13929287  0.34215423  1
  H+  H102  1  0.38438999  0.11416902  0.50192165  1
  H+  H103  1  0.38820329  0.27347544  0.32609286  1
  H+  H104  1  0.37612949  0.58946144  0.17051499  1
  H+  H105  1  0.63564111  0.85478441  0.51519957  1
  H+  H106  1  0.87851718  0.60310998  0.48851129  1
  H+  H107  1  0.27843705  0.88842804  0.49288164  1
  H+  H108  1  0.72562201  0.84725878  0.37002845  1
  H+  H109  1  0.11554087  0.11474909  0.15472997  1
  H+  H110  1  0.39188141  0.77245680  0.49898412  1
  H+  H111  1  0.48008027  0.86329813  0.50129332  1
  H+  H112  1  0.53408092  0.26302686  0.05567027  1
  H+  H113  1  0.63895574  -0.01521267  0.98693660  1
  H+  H114  1  0.10945778  0.13420694  0.49573136  1
  H+  H115  1  0.39247422  0.02600388  0.65301352  1
  H+  H116  1  0.61777897  0.97847881  0.49913383  1
  H+  H117  1  0.63450816  0.28304998  0.33883329  1
  H+  H118  1  0.21560391  0.60091626  0.99002169  1
  H+  H119  1  0.64016398  0.29956943  0.17827091  1
  H+  H120  1  0.27971700  0.63733771  0.14766307  1
  H+  H121  1  0.35132750  0.70274874  -0.00452679  1
  H+  H122  1  0.34647816  0.96492051  1.00311291  1
  H+  H123  1  0.61725921  0.48890990  0.67938374  1
  H+  H124  1  0.77688540  0.88096104  0.01840001  1
  H+  H125  1  -0.03085595  0.60795517  0.49632357  1
  H+  H126  1  0.86039904  0.23369447  0.49362379  1
  H+  H127  1  0.41856580  0.15413162  0.00458367  1
  H+  H128  1  0.65531256  0.32561459  0.73156654  1
  H+  H129  1  0.48070580  0.36932727  0.65937833  1
  H+  H130  1  0.58528083  0.65381449  0.44867321  1
  H+  H131  1  0.88701867  0.36699921  0.50376930  1
  H+  H132  1  0.60912126  0.39839358  0.15558731  1
  H+  H133  1  0.47417143  0.36459622  0.17026158  1
  H+  H134  1  0.13939650  0.47783554  0.31647559  1
  H+  H135  1  0.47782336  0.36424090  0.32345473  1
  H+  H136  1  0.86149950  0.47502256  0.33284779  1
  H+  H137  1  0.37937421  0.88830257  0.66140243  1
  H+  H138  1  0.89404015  0.10548930  0.83972696  1
  H+  H139  1  0.41781102  0.75999365  0.10281438  1
  H+  H140  1  0.08697751  0.65408228  0.17661795  1
  H+  H141  1  -0.04134211  0.62372509  0.18225663  1
  H+  H142  1  0.64007902  0.76266156  -0.00040676  1
  H+  H143  1  0.61207266  0.91802535  0.31386217  1
  H+  H144  1  0.60084644  0.10446345  0.85419018  1
  H+  H145  1  0.38745581  0.02591110  0.50072351  1
  H+  H146  1  0.22683339  0.34551452  0.33646861  1
  H+  H147  1  0.88233045  0.60337901  0.85757991  1
  H+  H148  1  0.13368794  1.01890029  -0.00844806  1
  H+  H149  1  0.73598188  0.13037654  0.33523840  1
  H+  H150  1  0.62277047  0.87811980  0.01126272  1
  H+  H151  1  0.58509845  0.11894438  0.97822406  1
  H+  H152  1  0.28042915  0.45331224  0.78425523  1
  H+  H153  1  0.18429950  0.50593864  0.12566390  1
  H+  H154  1  0.86771350  0.72418863  0.33018547  1
  H+  H155  1  0.79232588  0.32514765  0.99951981  1
  H+  H156  1  0.52187381  0.88981844  0.34287028  1
  H+  H157  1  0.39032174  0.76269920  0.83317668  1
  H+  H158  1  0.63326619  0.11278337  0.19181141  1
  H+  H159  1  0.10901661  0.88154917  1.01569091  1
  H+  H160  1  0.57602525  0.41635185  0.42837008  1
  H+  H161  1  0.85225666  0.87483381  0.83336333  1
  H+  H162  1  0.74721316  0.62875709  0.67962743  1
  H+  H163  1  0.87655165  0.12073097  0.33211385  1
  H+  H164  1  0.36773003  0.88842633  0.48912217  1
  H+  H165  1  0.50708328  0.39988973  0.82742286  1
  H+  H166  1  0.89273982  0.53221999  0.67072880  1
  H+  H167  1  0.64887820  0.79077015  0.67229321  1
  H+  H168  1  0.48475381  0.60756697  0.51105252  1
  H+  H169  1  0.86965096  0.88111234  0.34236389  1
  H+  H170  1  0.36799398  0.46892199  0.16248262  1
  H+  H171  1  0.23772983  0.65227665  0.32498061  1
  H+  H172  1  0.13094371  0.10376589  0.32825350  1
  H+  H173  1  0.40843861  0.56603077  0.59771346  1
  H+  H174  1  0.39420473  0.02576871  0.81989638  1
  H+  H175  1  -0.02311243  0.86015086  0.00591296  1
  H+  H176  1  0.14850196  0.00318741  0.18231147  1
  H+  H177  1  0.76262071  0.87792280  0.67186581  1
  H+  H178  1  0.16201671  0.07385694  0.89807336  1
  H+  H179  1  0.13538925  0.42054995  0.16120725  1
  H+  H180  1  0.10598577  0.21942853  0.00492347  1
  H+  H181  1  0.87276840  0.39802370  0.67506359  1
  H+  H182  1  0.63986112  0.76772607  0.51758727  1
  H+  H183  1  0.60359765  0.70818386  0.36244970  1
  H+  H184  1  0.22653969  0.36553014  0.84263016  1
  H+  H185  1  0.88679468  0.01436669  0.99412813  1
  H+  H186  1  0.31004717  0.61913848  0.08466364  1
  H+  H187  1  0.86404518  0.72087830  0.84307602  1
  H+  H188  1  0.11941653  0.58920871  0.83644939  1
  H+  H189  1  0.86852647  0.24151434  0.33511680  1
  H+  H190  1  0.77345185  0.89328804  0.50315940  1
  H+  H191  1  0.39787292  0.13127326  0.15911261  1
  H+  H192  1  0.16558704  0.07367858  0.27082096  1
  H+  H193  1  0.88619716  0.75392227  0.50755825  1
  H+  H194  1  0.28221269  0.64062887  0.66370962  1
  H+  H195  1  0.38203775  0.59862545  0.65651521  1
  H+  H196  1  0.27844822  0.38416429  0.49304326  1
  H+  H197  1  0.41480653  0.57582690  0.23342083  1
  H+  H198  1  0.35894870  0.37565444  0.16411993  1
  H+  H199  1  0.69863068  0.32947651  0.92639045  1
  H+  H200  1  0.74377666  0.34246362  0.84116048  1
  H+  H201  1  0.91244077  0.82298530  0.60446636  1
  H+  H202  1  0.27413954  0.91126665  0.15990391  1
  H+  H203  1  -0.11207578  0.77424112  0.66823398  1
  H+  H204  1  0.37388846  0.72930318  0.34063390  1
  H+  H205  1  0.11012310  0.75575178  0.34283432  1
  H+  H206  1  0.14197384  0.73244756  0.86542925  1
  H+  H207  1  0.37314197  0.63461570  0.49198260  1
  H+  H208  1  0.88700789  -0.01669446  0.16539650  1
  H+  H209  1  0.18629738  0.83288605  0.86231688  1
  H+  H210  1  0.63800585  0.95677181  0.71769629  1
  H+  H211  1  0.21787854  0.85595609  1.01151161  1
  H+  H212  1  0.38556771  1.02938816  0.33143962  1
  H+  H213  1  0.76332743  0.62387456  0.48155823  1
  H+  H214  1  0.09419010  0.38046505  1.00436845  1
  H+  H215  1  0.18226509  0.59252943  0.58072280  1
  H+  H216  1  0.38111185  0.51046085  0.99306331  1
  H+  H217  1  0.14062487  0.27284173  0.50520263  1
  H+  H218  1  0.86885889  0.47306195  0.83838551  1
  H+  H219  1  0.23563844  0.61185565  0.49390842  1
  H+  H220  1  0.21963472  0.10202417  0.83560349  1
  H+  H221  1  0.97523774  0.11858597  0.65602294  1
  H+  H222  1  0.87060343  0.38426419  0.83443483  1
  H+  H223  1  0.12046470  0.64213979  0.49070330  1
  H+  H224  1  0.86992172  0.25612220  -0.00343509  1
  H+  H225  1  0.15816059  0.87285991  0.66398068  1
  H+  H226  1  0.30301950  0.28459023  0.87611302  1
  H+  H227  1  0.98174994  0.10346316  0.83889100  1
  H+  H228  1  0.58901437  0.73325159  0.83041437  1
  H+  H229  1  0.77427767  0.63127889  0.01580522  1
  H+  H230  1  0.63433792  0.53055637  0.16659076  1
  H+  H231  1  0.63939384  0.59646879  1.00366512  1
  H+  H232  1  0.60462949  0.62304443  0.34312282  1
  H+  H233  1  0.67594208  0.83358210  0.94574984  1
  H+  H234  1  0.96057196  0.34222171  0.85808602  1
  H+  H235  1  0.83533276  0.40916401  0.42530682  1
  H+  H236  1  0.61116923  0.38997102  0.33824669  1
  H+  H237  1  0.86652919  0.63406805  0.33079038  1
  H+  H238  1  0.12967991  0.34592440  0.84815068  1
  H+  H239  1  0.14140799  0.88159313  0.32860893  1
  H+  H240  1  0.56458774  0.06619239  0.83925525  1
  H+  H241  1  0.46906288  0.61072296  0.84128805  1
  H+  H242  1  0.95479096  0.86494307  0.84349724  1
  H+  H243  1  0.96839444  0.60521349  1.00528553  1
  H+  H244  1  0.62898988  0.66445209  0.68810403  1
  H+  H245  1  0.48802688  0.88909000  0.17590361  1
  H+  H246  1  0.14095763  0.36163210  0.65491923  1
  H+  H247  1  0.15159102  0.78001120  0.65613554  1
  H+  H248  1  0.11615738  0.22283620  0.67328488  1
  H+  H249  1  0.38295131  0.76993971  0.09482844  1
  H+  H250  1  0.36791137  0.38402534  0.49226268  1
  H+  H251  1  0.13028054  0.63997422  0.64998437  1
  H+  H252  1  0.82920419  0.15380709  0.05635598  1
  H+  H253  1  0.40348732  0.04667031  0.15131179  1
  H+  H254  1  0.47269095  0.11866017  0.33218128  1
  H+  H255  1  0.13315542  0.88425687  0.82438121  1
  H+  H256  1  -0.02397916  0.36611277  0.51040859  1
  H+  H257  1  0.35743302  0.46557033  0.66947367  1
  H+  H258  1  0.72496257  0.35977697  0.49260991  1
  H+  H259  1  0.65401231  0.00855925  0.80189820  1
  H+  H260  1  0.11534367  0.13227608  0.82737935  1
  H+  H261  1  0.10566107  0.20862260  0.34026664  1
  H+  H262  1  0.29037257  0.89086454  0.66857433  1
  H+  H263  1  0.86577111  0.96960834  0.82627709  1
  H+  H264  1  0.85544139  0.48478678  0.16604020  1
  H+  H265  1  0.38799275  0.36129933  0.65929958  1
  H+  H266  1  0.63623087  0.11133961  0.66990444  1
  H+  H267  1  0.00024975  0.85562223  0.17871793  1
  H+  H268  1  0.10511828  0.63264697  0.01819167  1
  H+  H269  1  0.08616761  0.91730992  0.40438214  1
  H+  H270  1  0.88175514  0.14578880  0.14579954  1
  H+  H271  1  0.32217111  0.17173802  0.10505227  1
  H+  H272  1  0.09948877  0.48142561  0.31799596  1
  H+  H273  1  0.10411755  0.72065282  0.02192773  1
  H+  H274  1  0.36497996  0.63559771  0.33635455  1
  H+  H275  1  0.47983735  0.43804912  -0.03264643  1
  H+  H276  1  0.56591941  0.41967492  0.76968500  1
  H+  H277  1  0.36164027  0.90751275  0.16791249  1
  H+  H278  1  0.33244456  0.91690723  0.39867385  1
  H+  H279  1  0.61483051  0.63930592  0.15835591  1
  H+  H280  1  0.88831279  0.86067467  0.00410700  1
  H+  H281  1  0.72601993  0.38768616  0.15946395  1
  H+  H282  1  0.96575495  0.38449286  0.30625288  1
  H+  H283  1  0.61579884  0.23028415  0.48850774  1
  H+  H284  1  0.90155308  0.77628748  0.17549500  1
  H+  H285  1  -0.00053256  0.61615442  0.85308118  1
  H+  H286  1  0.61801656  0.40032035  0.68462753  1
  H+  H287  1  0.41490481  0.08394858  0.59254493  1
  H+  H288  1  0.86174690  0.14573891  0.48992225  1
  H+  H289  1  0.83221935  0.90308158  0.73540423  1
  H+  H290  1  0.59446801  0.91954521  0.44035844  1
  H+  H291  1  0.04378907  0.92750655  0.76103872  1
  H+  H292  1  0.33790175  0.66745074  0.72508805  1
  H+  H293  1  0.16489314  0.08218563  0.56549193  1
  H+  H294  1  0.66325463  0.07386826  0.24206926  1
  H+  H295  1  0.39704953  0.80735880  0.18211655  1
  H+  H296  1  0.05119071  0.66743527  0.79413236  1
  H+  H297  1  0.53456933  0.15838145  0.19054753  1
  H+  H298  1  0.22481245  0.44427903  0.23361547  1
  H+  H299  1  0.66457081  0.58690604  0.26293556  1
  H+  H300  1  0.33197345  0.91734320  0.06829534  1
  H+  H301  1  0.65700823  0.06487623  0.61857457  1
  H+  H302  1  0.91097627  0.82933555  0.90997718  1
  H+  H303  1  0.72435335  0.37011508  0.33255960  1
  H+  H304  1  0.32308365  0.40605319  0.07179314  1
  H+  H305  1  0.42631554  0.84877143  0.27542733  1
  H+  H306  1  0.58012478  0.17075703  0.40117499  1
  H+  H307  1  0.86140476  0.22236431  0.14846329  1
  H+  H308  1  0.92146112  0.34708073  0.60067287  1
  H+  H309  1  0.33006558  0.41012550  0.73165641  1
  H+  H310  1  0.86453770  0.19303610  0.73778071  1
  H+  H311  1  0.47228075  0.60358148  0.32866139  1
  H+  H312  1  0.73550338  0.37474366  0.68816911  1
  H+  H313  1  0.41754652  0.83425149  0.59175278  1
  H+  H314  1  0.82702099  0.66036351  0.42322684  1
  H+  H315  1  0.06809927  0.67945566  0.11234561  1
  H+  H316  1  0.33105816  0.16941356  0.43504882  1
  H+  H317  1  0.68376304  0.61631778  0.62438549  1
  H+  H318  1  0.07077947  0.38938086  0.44376400  1
  H+  H319  1  0.65647972  0.81232810  0.26134297  1
  H+  H320  1  0.84464209  0.91871440  0.07393492  1
  H+  H321  1  0.92989995  0.83767577  0.26675458  1
  H+  H322  1  0.90913302  0.57330407  0.92106600  1
  H+  H323  1  0.17727185  0.96470250  0.73411001  1
  H+  H324  1  0.10014383  0.44754753  0.70929973  1
  H+  H325  1  0.58358089  0.68767618  0.74022839  1
  H+  H326  1  0.84974209  0.42520038  0.73894638  1
  H+  H327  1  0.86271217  0.72305125  0.01462018  1
  H+  H328  1  0.68310467  0.55838328  0.54914898  1
  H+  H329  1  0.85709153  0.38179710  0.32897466  1
  H+  H330  1  0.90203842  0.58201808  0.24395607  1
  H+  H331  1  0.15988667  0.32856246  0.93876425  1
  H+  H332  1  0.30603110  0.88171868  0.80973082  1
  H+  H333  1  0.89911854  0.32478362  0.23460750  1
  H+  H334  1  0.16561864  0.85617798  0.26512404  1
  H+  H335  1  0.13763721  0.59947331  0.24171250  1
  H+  H336  1  0.27998114  0.77949491  0.93102151  1
  H+  H337  1  0.09108193  0.14983126  0.09477605  1
  H+  H338  1  0.67960896  0.84361567  0.60914370  1
  H+  H339  1  0.94943977  0.11391534  0.22435693  1
  H+  H340  1  0.07914629  0.16072802  0.43562177  1
  H+  H341  1  0.59514781  0.19998434  0.24741898  1
  H+  H342  1  0.56327604  0.19381137  0.75382107  1
  H+  H343  1  0.83393634  0.67006272  0.10816883  1
  H+  H344  1  0.22761098  0.10074144  0.18020556  1
  H+  H345  1  0.34406542  0.66482321  0.43167803  1
  H+  H346  1  0.41735054  0.33093448  0.23255072  1
  H+  H347  1  0.64776475  0.51188868  1.00605241  1
  H+  H348  1  0.48592637  0.17165958  0.08989160  1
  H+  H349  1  0.42433900  0.33668162  0.56236354  1
  H+  H350  1  0.62870178  0.53115192  0.82177628  1
  H+  H351  1  0.39355242  0.82015018  0.89337946  1
  H+  H352  1  0.67861722  0.86049259  0.26237846  1
  H+  H353  1  0.41305286  0.56911964  0.93149071  1
  H+  H354  1  0.83979541  0.18472341  0.39861404  1
  H+  H355  1  0.08893585  0.68325500  0.43937181  1
  H+  H356  1  0.63649467  0.36122819  0.49277342  1
  H+  H357  1  0.85962002  0.04945023  0.28318177  1
  H+  H358  1  0.69090335  -0.03246348  0.84963546  1
  H+  H359  1  0.16178532  0.81149892  0.95372636  1
  H+  H360  1  0.83451377  0.91767754  0.44567203  1
  H+  H361  1  0.11200422  0.66311511  0.71430159  1
  H+  H362  1  0.17301591  0.32872341  0.56600145  1
  H+  H363  1  0.59165812  0.92397232  0.06154685  1
  H+  H364  1  0.89442747  0.31845772  0.91320231  1
  H+  H365  1  0.67879562  0.03919514  0.91407825  1
  H+  H366  1  0.39231213  0.06177697  0.91306813  1
  H+  H367  1  0.84540408  0.67071713  0.74767492  1
  H+  H368  1  0.91688212  0.06941785  0.93161690  1
  H+  H369  1  0.58137566  0.65691982  0.06568442  1
  H+  H370  1  -0.00279353  0.32001392  0.35489298  1
  H+  H371  1  0.17879412  0.84142778  0.56579811  1
  H+  H372  1  0.08603472  0.16332941  0.73267704  1
  H+  H373  1  0.36144464  0.91696169  0.74823529  1
  H+  H374  1  0.33042310  0.16625996  0.75517973  1
  H+  H375  1  0.91568999  0.10151028  0.59844552  1
  H+  H376  1  0.41740861  0.35975230  0.92685758  1
  H+  H377  1  0.04198567  0.36693875  0.78186529  1
  H+  H378  1  0.12240338  0.51791633  0.99085931  1
  H+  H379  1  0.52534763  0.14055192  0.49131068  1
  H+  H380  1  0.12031241  0.88816987  0.49451069  1
  H+  H381  1  0.01851134  0.67031981  0.35050365  1
  H+  H382  1  0.15459285  0.56610148  0.89425248  1
  H+  H383  1  0.07811702  0.42159214  0.06270324  1
  O2-  O384  1  0.09166783  0.15063556  0.14003800  1
  O2-  O385  1  0.08192508  0.16721024  0.48061996  1
  O2-  O386  1  0.08525803  0.16294361  0.81179720  1
  O2-  O387  1  0.12498374  0.45897620  0.13446163  1
  O2-  O388  1  0.08560508  0.41468088  0.48578445  1
  O2-  O389  1  0.06426988  0.38743501  0.82250816  1
  O2-  O390  1  0.06898013  0.69298579  0.15626139  1
  O2-  O391  1  0.09109681  0.67596659  0.48415945  1
  O2-  O392  1  0.06178014  0.64798249  0.83281491  1
  O2-  O393  1  0.10705932  0.90255045  0.15843639  1
  O2-  O394  1  0.08616258  0.91407170  0.47895710  1
  O2-  O395  1  0.02379059  0.94146464  0.79850979  1
  O2-  O396  1  0.32941924  0.17059339  0.14885910  1
  O2-  O397  1  0.33040631  0.16664435  0.48071131  1
  O2-  O398  1  0.32599625  0.16119825  0.80100383  1
  O2-  O399  1  0.32968317  0.40793676  0.14929990  1
  O2-  O400  1  0.33800824  0.41455830  0.47599460  1
  O2-  O401  1  0.31101377  0.43057738  0.80727775  1
  O2-  O402  1  0.29175755  0.59641904  0.12725948  1
  O2-  O403  1  0.34240499  0.66499241  0.47713719  1
  O2-  O404  1  0.33896829  0.66832308  0.81238922  1
  O2-  O405  1  0.33352138  0.93391338  0.14457514  1
  O2-  O406  1  0.33795210  0.92001392  0.47542097  1
  O2-  O407  1  0.36537868  0.91526472  0.79588512  1
  O2-  O408  1  0.59584730  0.18933621  0.20403010  1
  O2-  O409  1  0.58495398  0.16695306  0.47547379  1
  O2-  O410  1  0.55737453  0.22198643  0.79126820  1
  O2-  O411  1  0.57175601  0.42537464  0.14163066  1
  O2-  O412  1  0.57791902  0.41520114  0.47363851  1
  O2-  O413  1  0.56676637  0.42614223  0.81478931  1
  O2-  O414  1  0.58263483  0.66705891  0.14076042  1
  O2-  O415  1  0.58951856  0.65720049  0.49351214  1
  O2-  O416  1  0.56462210  0.66913710  0.81724034  1
  O2-  O417  1  0.57967584  0.92393791  0.13905771  1
  O2-  O418  1  0.58831362  0.91642421  0.48465370  1
  O2-  O419  1  0.61002974  0.82291774  0.84035532  1
  O2-  O420  1  0.84781308  0.16876126  0.12659704  1
  O2-  O421  1  0.83020204  0.17527344  0.47467261  1
  O2-  O422  1  0.84365113  0.15682964  0.81637479  1
  O2-  O423  1  0.82479913  0.42745495  0.14610338  1
  O2-  O424  1  0.83514202  0.40924797  0.47095067  1
  O2-  O425  1  0.84617857  0.41810020  0.81535551  1
  O2-  O426  1  0.83091819  0.67422910  0.15352118  1
  O2-  O427  1  0.82635358  0.65672080  0.46832042  1
  O2-  O428  1  0.84001408  0.66099333  0.82647146  1
  O2-  O429  1  0.85633658  0.92274256  0.15107284  1
  O2-  O430  1  0.83233726  0.93297153  0.48831119  1
  O2-  O431  1  0.82796448  0.90811675  0.81327689  1
  O2-  O432  1  0.16774403  0.06457384  0.19478527  1
  O2-  O433  1  0.16275449  0.08129759  0.52010232  1
  O2-  O434  1  0.16052301  0.07672533  0.85163580  1
  O2-  O435  1  0.19540186  0.39028688  0.21120918  1
  O2-  O436  1  0.17390495  0.33321493  0.52069875  1
  O2-  O437  1  0.16768016  0.32406968  0.86204106  1
  O2-  O438  1  0.09780463  0.57735397  0.20609734  1
  O2-  O439  1  0.17465248  0.58544950  0.50823225  1
  O2-  O440  1  0.15365765  0.56228832  0.84878009  1
  O2-  O441  1  0.15661268  0.86196440  0.18094179  1
  O2-  O442  1  0.17689379  0.83944628  0.52051870  1
  O2-  O443  1  0.19285739  0.78720938  0.88110413  1
  O2-  O444  1  0.43922909  0.11004514  0.15445944  1
  O2-  O445  1  0.41671185  0.08577524  0.51705943  1
  O2-  O446  1  0.40811543  0.07953850  0.84129136  1
  O2-  O447  1  0.41358767  0.32995196  0.18670584  1
  O2-  O448  1  0.42070165  0.33408367  0.51718979  1
  O2-  O449  1  0.35837165  0.32436686  0.85779519  1
  O2-  O450  1  0.41623116  0.57239035  0.18771871  1
  O2-  O451  1  0.42122516  0.58024399  0.51946903  1
  O2-  O452  1  0.40784923  0.58083991  0.85753387  1
  O2-  O453  1  0.42998320  0.86613227  0.19687901  1
  O2-  O454  1  0.41783822  0.83351980  0.51251002  1
  O2-  O455  1  0.41993464  0.82478656  0.85068653  1
  O2-  O456  1  0.65233665  0.07032391  0.19783977  1
  O2-  O457  1  0.66340576  0.07899083  0.52113706  1
  O2-  O458  1  0.68956261  0.02108775  0.84288197  1
  O2-  O459  1  0.66238805  0.36073312  0.16912613  1
  O2-  O460  1  0.66406994  0.32796978  0.50634474  1
  O2-  O461  1  0.69417739  0.29846377  0.86471122  1
  O2-  O462  1  0.66429804  0.58994709  0.18394241  1
  O2-  O463  1  0.66803453  0.57124368  0.50973001  1
  O2-  O464  1  0.66751176  0.59509136  0.81606586  1
  O2-  O465  1  0.67252015  0.84561735  0.14457679  1
  O2-  O466  1  0.66756090  0.82810686  0.53277492  1
  O2-  O467  1  0.68934079  0.86978473  0.87358915  1
  O2-  O468  1  0.93968202  0.09604479  0.18186184  1
  O2-  O469  1  0.91140995  0.09608661  0.51785791  1
  O2-  O470  1  0.92116154  0.07115488  0.85398383  1
  O2-  O471  1  0.89291643  0.32305557  0.18686152  1
  O2-  O472  1  0.91524808  0.33686225  0.52437955  1
  O2-  O473  1  0.89894265  0.31696384  0.86734281  1
  O2-  O474  1  0.89857725  0.58728039  0.19614362  1
  O2-  O475  1  0.90715021  0.57069052  0.50265372  1
  O2-  O476  1  0.91146768  0.57215823  0.87333663  1
  O2-  O477  1  0.93918595  0.83693444  0.19009625  1
  O2-  O478  1  0.91868203  0.80802974  0.53122582  1
  O2-  O479  1  0.90059444  0.82242957  0.86509050  1
  O2-  O480  1  0.16694280  0.07815288  0.31642758  1
  O2-  O481  1  0.17002246  0.08403785  0.64440118  1
  O2-  O482  1  0.15966597  0.07409608  0.96955365  1
  O2-  O483  1  0.16584004  0.31106555  0.32146434  1
  O2-  O484  1  0.16809081  0.32703257  0.64450634  1
  O2-  O485  1  0.15246038  0.32895857  0.98392567  1
  O2-  O486  1  0.19267160  0.65569540  0.30156407  1
  O2-  O487  1  0.18123379  0.59273595  0.62699159  1
  O2-  O488  1  0.15601033  0.57825853  0.97510011  1
  O2-  O489  1  0.17173857  0.85247507  0.30957533  1
  O2-  O490  1  0.18484833  0.84165575  0.64436950  1
  O2-  O491  1  0.15659300  0.82229599  0.99705712  1
  O2-  O492  1  0.41156597  0.09025405  0.31898498  1
  O2-  O493  1  0.41557757  0.08610214  0.63834022  1
  O2-  O494  1  0.38544265  0.05126577  0.95850614  1
  O2-  O495  1  0.41613424  0.33267949  0.30815215  1
  O2-  O496  1  0.42116744  0.33429713  0.64300389  1
  O2-  O497  1  0.44110250  0.37615225  0.96877180  1
  O2-  O498  1  0.41258248  0.57627249  0.31039797  1
  O2-  O499  1  0.39976543  0.55767126  0.64244055  1
  O2-  O500  1  0.41605880  0.57028617  0.97748386  1
  O2-  O501  1  0.42338546  0.84045715  0.32033119  1
  O2-  O502  1  0.41782234  0.83740807  0.63692486  1
  O2-  O503  1  0.33612263  0.79690133  0.94985457  1
  O2-  O504  1  0.67344923  0.09764043  0.32281135  1
  O2-  O505  1  0.67325503  0.08645739  0.66042948  1
  O2-  O506  1  0.67524791  0.04779962  0.95948231  1
  O2-  O507  1  0.66172828  0.34229327  0.32271961  1
  O2-  O508  1  0.67068473  0.34474948  0.68955180  1
  O2-  O509  1  0.71171105  0.35933635  0.96953782  1
  O2-  O510  1  0.66520079  0.58470788  0.30829299  1
  O2-  O511  1  0.68340698  0.60207655  0.66724628  1
  O2-  O512  1  0.67508312  0.57126512  0.99099779  1
  O2-  O513  1  0.66356877  0.81247842  0.38015341  1
  O2-  O514  1  0.68586000  0.85087909  0.65442504  1
  O2-  O515  1  0.67210487  0.82572740  0.99085896  1
  O2-  O516  1  0.89811341  0.08102698  0.31661031  1
  O2-  O517  1  0.91661226  0.10301005  0.64356271  1
  O2-  O518  1  0.91637965  0.07395560  0.97704465  1
  O2-  O519  1  0.91068104  0.33190585  0.30263459  1
  O2-  O520  1  0.93169452  0.35665734  0.64570995  1
  O2-  O521  1  0.88966097  0.31781519  0.98673057  1
  O2-  O522  1  0.91561232  0.57624021  0.30983502  1
  O2-  O523  1  0.91843502  0.59382550  0.65941845  1
  O2-  O524  1  0.90980094  0.57652512  0.98756413  1
  O2-  O525  1  0.92301310  0.83446730  0.31213073  1
  O2-  O526  1  0.91154259  0.83185217  0.64970890  1
  O2-  O527  1  0.91771380  0.82962916  0.98834628  1
  O2-  O528  1  0.08158199  0.15815504  0.01679883  1
  O2-  O529  1  0.07243813  0.14792060  0.35550300  1
  O2-  O530  1  0.08769510  0.16199428  0.68732918  1
  O2-  O531  1  0.06553871  0.41289521  0.01834900  1
  O2-  O532  1  0.04093776  0.32375751  0.38342164  1
  O2-  O533  1  0.09255603  0.42813498  0.66739633  1
  O2-  O534  1  0.07335374  0.65933637  0.03565291  1
  O2-  O535  1  0.07930256  0.69821076  0.36327846  1
  O2-  O536  1  0.10224064  0.66975268  0.67167972  1
  O2-  O537  1  0.08267902  0.91361260  0.03387512  1
  O2-  O538  1  0.08500790  0.91783534  0.35844148  1
  O2-  O539  1  0.13353666  0.94116803  0.70247822  1
  O2-  O540  1  0.36545274  0.11645131  -0.02095114  1
  O2-  O541  1  0.33346306  0.17217899  0.35770900  1
  O2-  O542  1  0.33660313  0.17011350  0.68049822  1
  O2-  O543  1  0.31967437  0.40682096  0.02627091  1
  O2-  O544  1  0.33134848  0.40956201  0.35356654  1
  O2-  O545  1  0.32956468  0.40423366  0.68636275  1
  O2-  O546  1  0.32786202  0.64433495  0.01145899  1
  O2-  O547  1  0.33934978  0.66866040  0.35448198  1
  O2-  O548  1  0.34174918  0.66947856  0.68036336  1
  O2-  O549  1  0.32331293  0.90754462  0.02339694  1
  O2-  O550  1  0.33571927  0.91671577  0.35311729  1
  O2-  O551  1  0.35205297  0.92181246  0.68116699  1
  O2-  O552  1  0.49831600  0.20111698  0.04986582  1
  O2-  O553  1  0.57983431  0.17247780  0.35516509  1
  O2-  O554  1  0.57797813  0.16723642  0.68169794  1
  O2-  O555  1  0.59232705  0.38785447  0.01999886  1
  O2-  O556  1  0.57535012  0.41797505  0.34888744  1
  O2-  O557  1  0.58183086  0.42764744  0.69130882  1
  O2-  O558  1  0.58586077  0.65517326  0.02011543  1
  O2-  O559  1  0.56793268  0.64404109  0.36209581  1
  O2-  O560  1  0.59884448  0.69628498  0.69625613  1
  O2-  O561  1  0.59639318  0.91588669  0.01679317  1
  O2-  O562  1  0.58597167  0.91925227  0.35244156  1
  O2-  O563  1  0.61108274  0.98515323  0.73935131  1
  O2-  O564  1  0.82524099  0.14977571  0.00993218  1
  O2-  O565  1  0.83874764  0.18054306  0.35286842  1
  O2-  O566  1  0.88723116  0.21549527  0.69690014  1
  O2-  O567  1  0.73060849  0.30433453  0.00781549  1
  O2-  O568  1  0.83030564  0.41354419  0.34845729  1
  O2-  O569  1  0.84209119  0.42605473  0.69386155  1
  O2-  O570  1  0.83504949  0.66382033  0.03168081  1
  O2-  O571  1  0.83360703  0.66297675  0.34296556  1
  O2-  O572  1  0.84054886  0.67033474  0.70241354  1
  O2-  O573  1  0.83933362  0.91507598  0.02849092  1
  O2-  O574  1  0.83706864  0.90646179  0.36228636  1
  O2-  O575  1  0.83134775  0.90336165  0.69000789  1
