# generated using pymatgen
data_H2O
_symmetry_space_group_name_H-M   'P 1'
_cell_length_a   17.98295555
_cell_length_b   17.98082971
_cell_length_c   21.99926291
_cell_angle_alpha   89.95643342
_cell_angle_beta   89.98222776
_cell_angle_gamma   120.03149545
_symmetry_Int_Tables_number   1
_chemical_formula_structural   H2O
_chemical_formula_sum   'H384 O192'
_cell_volume   6158.44940220
_cell_formula_units_Z   192
loop_
 _symmetry_equiv_pos_site_id
 _symmetry_equiv_pos_as_xyz
  1  'x, y, z'
loop_
 _atom_type_symbol
 _atom_type_oxidation_number
  H+  1.0
  O2-  -2.0
loop_
 _atom_site_type_symbol
 _atom_site_label
 _atom_site_symmetry_multiplicity
 _atom_site_fract_x
 _atom_site_fract_y
 _atom_site_fract_z
 _atom_site_occupancy
  H+  H0  1  0.35534024  0.72491269  0.34032072  1
  H+  H1  1  0.87867613  0.88103738  0.17509331  1
  H+  H2  1  0.13388985  0.51385765  0.50138061  1
  H+  H3  1  0.53477789  0.87132886  0.84500921  1
  H+  H4  1  0.35876286  1.01791935  -0.00187953  1
  H+  H5  1  0.46434315  0.85809710  0.17269350  1
  H+  H6  1  0.34547515  0.96240704  0.48666099  1
  H+  H7  1  0.14527166  0.03771211  0.32625470  1
  H+  H8  1  0.85413903  0.23230576  0.33888232  1
  H+  H9  1  0.48024574  0.10362637  0.17606878  1
  H+  H10  1  0.12024739  0.38203045  0.49343366  1
  H+  H11  1  0.36935229  0.22898118  0.49189543  1
  H+  H12  1  0.61844264  0.48760550  0.49326979  1
  H+  H13  1  0.97608050  0.35134214  0.50001359  1
  H+  H14  1  0.85092688  0.85816751  0.98267775  1
  H+  H15  1  0.62481331  0.23274311  1.01421246  1
  H+  H16  1  0.10411284  0.88483478  0.82123145  1
  H+  H17  1  0.76924445  0.63271612  0.67408617  1
  H+  H18  1  0.71274023  0.11247987  0.33158213  1
  H+  H19  1  0.88640023  0.86052764  0.50977264  1
  H+  H20  1  0.97313883  0.85930627  0.66409247  1
  H+  H21  1  0.81993758  0.98217888  0.14560464  1
  H+  H22  1  0.71095217  0.36739974  0.82507039  1
  H+  H23  1  0.38257524  0.03712775  0.84215582  1
  H+  H24  1  0.32141611  0.92890614  0.06282244  1
  H+  H25  1  0.72634850  0.97229539  0.94461298  1
  H+  H26  1  0.88901446  0.26296375  0.50088200  1
  H+  H27  1  0.13766188  0.28006592  0.97930827  1
  H+  H28  1  0.85073806  0.73601380  0.16662564  1
  H+  H29  1  0.60897593  0.67742577  0.43124433  1
  H+  H30  1  0.63173899  0.60376488  0.84373648  1
  H+  H31  1  0.39730931  0.28477982  0.98438388  1
  H+  H32  1  0.87417580  0.60095964  0.67177074  1
  H+  H33  1  0.87398888  0.14143655  0.66834809  1
  H+  H34  1  0.65929051  0.50301973  0.17894145  1
  H+  H35  1  0.41342321  0.84660076  0.84809323  1
  H+  H36  1  0.62107283  1.01358724  0.17984481  1
  H+  H37  1  0.76949588  0.12026466  0.49266726  1
  H+  H38  1  0.57042837  -0.08417201  0.40549593  1
  H+  H39  1  0.11556017  0.63909649  0.15926464  1
  H+  H40  1  0.62371424  0.14628957  0.67776845  1
  H+  H41  1  0.58382757  0.31357677  0.55210444  1
  H+  H42  1  0.78041998  0.91558651  1.00201662  1
  H+  H43  1  0.60210503  0.88635729  0.16477126  1
  H+  H44  1  0.85594662  0.39088249  0.35141325  1
  H+  H45  1  0.47648741  0.35916759  0.65867358  1
  H+  H46  1  0.86127715  0.88437689  0.67011738  1
  H+  H47  1  0.85767696  0.73200178  1.00496726  1
  H+  H48  1  -0.02912114  0.35770706  -0.01171972  1
  H+  H49  1  0.22759240  0.86915869  0.16425827  1
  H+  H50  1  0.77056667  0.13143897  0.01103285  1
  H+  H51  1  1.02986546  0.13266314  0.49583409  1
  H+  H52  1  0.87517146  0.98851647  0.00256759  1
  H+  H53  1  0.87399242  0.65828653  0.15614117  1
  H+  H54  1  0.35606131  0.63389503  0.00733835  1
  H+  H55  1  0.63431972  0.64254883  0.49885294  1
  H+  H56  1  0.66416682  0.08900538  0.94629863  1
  H+  H57  1  0.61623401  0.97350019  0.63077904  1
  H+  H58  1  0.75071584  0.07588830  0.15426076  1
  H+  H59  1  0.21270833  0.84934051  0.51240844  1
  H+  H60  1  0.37873363  0.52259275  0.21844447  1
  H+  H61  1  0.75798257  0.13142653  0.66617109  1
  H+  H62  1  0.36644027  0.47350357  0.82665795  1
  H+  H63  1  0.36536630  0.24377727  0.14749101  1
  H+  H64  1  0.97788047  0.35823601  0.65412035  1
  H+  H65  1  0.50359513  0.71290417  0.11112892  1
  H+  H66  1  0.12066226  0.38731975  0.67373403  1
  H+  H67  1  0.38104698  0.52447718  0.51040246  1
  H+  H68  1  0.77544848  0.39888047  0.15980386  1
  H+  H69  1  0.35187346  0.88170705  0.15346602  1
  H+  H70  1  0.73167100  0.85823894  0.65390068  1
  H+  H71  1  0.37809950  0.15346503  0.82448435  1
  H+  H72  1  0.71569207  0.86481145  0.17343294  1
  H+  H73  1  0.64889677  0.28763085  0.32517844  1
  H+  H74  1  0.52270948  0.63318167  0.67704731  1
  H+  H75  1  0.88150883  0.29581296  0.16605049  1
  H+  H76  1  0.23544020  0.85263443  0.33674943  1
  H+  H77  1  0.36766396  0.22422098  0.66552071  1
  H+  H78  1  0.13936145  0.04443546  0.17359610  1
  H+  H79  1  0.63238698  0.85748561  0.50431010  1
  H+  H80  1  0.67590699  0.34102850  0.23246967  1
  H+  H81  1  0.41745755  0.07896304  0.59565190  1
  H+  H82  1  0.11437770  0.39596915  0.00008020  1
  H+  H83  1  0.89857336  0.79441031  0.33336327  1
  H+  H84  1  0.86633719  0.12713232  0.19507826  1
  H+  H85  1  0.90498125  1.03909025  0.34110502  1
  H+  H86  1  0.72192954  0.59855556  0.33849587  1
  H+  H87  1  0.53581925  0.39126151  1.00724664  1
  H+  H88  1  0.09499587  0.85614034  0.14813235  1
  H+  H89  1  0.64046712  0.12295418  0.00758803  1
  H+  H90  1  0.14229131  0.11501641  0.66527759  1
  H+  H91  1  1.02670341  0.39267594  0.15525030  1
  H+  H92  1  0.92926997  0.14114214  0.25263329  1
  H+  H93  1  0.14317988  0.12683010  0.50925149  1
  H+  H94  1  0.42932811  0.43851762  0.36660539  1
  H+  H95  1  0.08441892  0.91935848  0.73131643  1
  H+  H96  1  0.46330633  0.86251193  0.33041766  1
  H+  H97  1  0.64854626  0.42525994  0.46808434  1
  H+  H98  1  0.62017570  0.13797070  0.16856819  1
  H+  H99  1  0.14568328  0.82179051  0.59706186  1
  H+  H100  1  0.48475244  0.36461162  0.50158285  1
  H+  H101  1  0.38495254  0.24417326  0.81711885  1
  H+  H102  1  0.85806118  0.63176902  0.51030790  1
  H+  H103  1  0.63167053  0.02418416  0.85694952  1
  H+  H104  1  0.28238009  0.14051015  0.33721812  1
  H+  H105  1  0.02019843  0.89326708  0.81894125  1
  H+  H106  1  0.97904326  0.60446239  0.33152174  1
  H+  H107  1  0.89198697  0.02328741  0.65674476  1
  H+  H108  1  0.61843237  0.35671698  0.83831719  1
  H+  H109  1  0.96000152  0.86652325  0.17101403  1
  H+  H110  1  0.83822577  0.15750642  0.29687455  1
  H+  H111  1  0.24091150  0.12867309  0.50871763  1
  H+  H112  1  1.02588785  0.13126698  0.67979205  1
  H+  H113  1  0.36923382  0.71494725  0.83017108  1
  H+  H114  1  0.01842107  0.87301327  0.49227479  1
  H+  H115  1  0.62151189  0.52739940  0.33292645  1
  H+  H116  1  0.38758684  0.86171872  0.65555803  1
  H+  H117  1  0.08011646  0.66642466  0.76384587  1
  H+  H118  1  0.54408047  0.17245786  0.35882836  1
  H+  H119  1  0.77014394  0.63222720  0.82488384  1
  H+  H120  1  0.13957126  0.36393994  0.27576871  1
  H+  H121  1  0.07753160  0.15485808  0.74223548  1
  H+  H122  1  0.26050691  0.89962294  0.00249121  1
  H+  H123  1  0.10475206  0.75663524  0.66049544  1
  H+  H124  1  0.62150342  0.38328430  1.00762625  1
  H+  H125  1  0.64927796  0.79338997  0.33445030  1
  H+  H126  1  0.39847700  0.57675267  0.93093555  1
  H+  H127  1  0.81691837  0.10986881  0.09831844  1
  H+  H128  1  0.62266655  0.78009015  0.17951778  1
  H+  H129  1  0.11136535  0.47549750  0.82753681  1
  H+  H130  1  0.42574657  0.38757141  0.82809843  1
  H+  H131  1  0.64311620  0.36443326  0.17115021  1
  H+  H132  1  0.89107163  0.55050811  0.15684922  1
  H+  H133  1  0.11777594  0.71265786  0.34371983  1
  H+  H134  1  0.59599415  0.63267687  0.21507858  1
  H+  H135  1  0.88698692  0.11372785  0.98799338  1
  H+  H136  1  0.41608831  0.25160427  0.31572332  1
  H+  H137  1  0.77633671  0.88805301  0.49297817  1
  H+  H138  1  0.14245923  0.77389223  0.16344294  1
  H+  H139  1  0.00012812  0.62458402  0.67526636  1
  H+  H140  1  0.39875669  0.37790424  0.17321299  1
  H+  H141  1  0.13538905  0.59660906  0.33006138  1
  H+  H142  1  0.04335504  0.15621100  0.35051422  1
  H+  H143  1  0.14237603  0.03309728  0.99244202  1
  H+  H144  1  0.98079158  0.63157217  0.84095812  1
  H+  H145  1  0.27299387  0.15986776  0.14923638  1
  H+  H146  1  0.75419296  0.60569443  0.18181313  1
  H+  H147  1  0.86856849  0.90276047  0.34089098  1
  H+  H148  1  0.32893357  0.66461543  0.06815079  1
  H+  H149  1  0.87989489  0.90556113  0.81592471  1
  H+  H150  1  0.63070960  0.73869019  0.49418644  1
  H+  H151  1  0.63145482  0.51792934  0.66277219  1
  H+  H152  1  0.34641115  -0.01587593  0.32518066  1
  H+  H153  1  0.27614894  0.15207152  -0.00209425  1
  H+  H154  1  0.09758869  0.17279807  0.43932902  1
  H+  H155  1  0.34813702  0.63347722  0.17093796  1
  H+  H156  1  0.93031083  0.26393748  0.20676672  1
  H+  H157  1  0.45320655  0.61035679  0.18820151  1
  H+  H158  1  0.09818179  0.70989434  0.49895623  1
  H+  H159  1  0.51406940  0.87947393  0.49612168  1
  H+  H160  1  0.13724332  0.29360657  0.17264888  1
  H+  H161  1  0.87040565  0.48188990  1.00213408  1
  H+  H162  1  0.23283168  0.11601125  0.66115088  1
  H+  H163  1  0.94905025  0.73112363  0.38817059  1
  H+  H164  1  0.64179262  0.85514993  0.64410756  1
  H+  H165  1  0.83421234  0.92255689  0.72612102  1
  H+  H166  1  0.39806183  0.99782773  0.67460265  1
  H+  H167  1  0.11931151  0.73438347  1.00293987  1
  H+  H168  1  0.89340028  0.10841367  0.50253619  1
  H+  H169  1  0.14113859  0.27162430  0.51354796  1
  H+  H170  1  0.11413553  0.15737662  0.16150171  1
  H+  H171  1  0.86584698  0.64594838  0.82887765  1
  H+  H172  1  0.22183420  0.61521007  0.17339984  1
  H+  H173  1  0.22691657  0.61847095  0.99190878  1
  H+  H174  1  0.13855064  0.27157434  0.66997008  1
  H+  H175  1  0.16416984  0.57562177  0.26649622  1
  H+  H176  1  0.39517916  0.36455933  0.50530642  1
  H+  H177  1  0.17902251  0.08428209  0.92907136  1
  H+  H178  1  0.56263920  0.58636266  0.21057855  1
  H+  H179  1  0.45801267  0.59660688  0.98729512  1
  H+  H180  1  0.53377934  0.39999975  0.15829691  1
  H+  H181  1  0.13614058  0.36234755  0.83547354  1
  H+  H182  1  0.11733992  0.85980462  0.66113535  1
  H+  H183  1  0.44322224  0.05141105  0.32807860  1
  H+  H184  1  0.34554409  0.87375470  0.48520423  1
  H+  H185  1  0.15764080  0.83438837  0.92714904  1
  H+  H186  1  0.63184939  0.60729069  0.66454704  1
  H+  H187  1  0.86215945  0.48184954  0.34250897  1
  H+  H188  1  0.38909540  0.51971646  0.66288001  1
  H+  H189  1  0.48122587  0.86307011  0.99579968  1
  H+  H190  1  0.12830078  0.77191235  0.83283625  1
  H+  H191  1  0.60713877  0.98861633  0.01577337  1
  H+  H192  1  0.27170130  0.62980385  0.33862584  1
  H+  H193  1  0.89773104  0.61567479  0.33493811  1
  H+  H194  1  0.12545195  0.86387045  0.98506303  1
  H+  H195  1  0.12227327  0.64582442  1.00218707  1
  H+  H196  1  0.15205325  0.13043603  0.32962168  1
  H+  H197  1  0.14930050  0.82255973  0.24967545  1
  H+  H198  1  0.61686075  0.90754725  0.00856702  1
  H+  H199  1  0.54257231  0.65838178  0.34985383  1
  H+  H200  1  -0.03655402  0.37151119  0.83030244  1
  H+  H201  1  0.61129134  0.38518629  0.68662514  1
  H+  H202  1  0.89792180  0.56242946  0.57955114  1
  H+  H203  1  0.36826182  0.85106804  0.32753764  1
  H+  H204  1  0.47090496  0.09827543  0.50476751  1
  H+  H205  1  0.11518917  0.63991373  0.82296584  1
  H+  H206  1  0.60950621  0.22658009  0.83130299  1
  H+  H207  1  0.57791962  0.46263042  0.83669792  1
  H+  H208  1  0.44165182  0.35067084  0.92881603  1
  H+  H209  1  0.73035521  0.37805685  0.32182313  1
  H+  H210  1  0.46501378  0.85056472  0.63491294  1
  H+  H211  1  0.09641975  0.63841975  0.66435811  1
  H+  H212  1  0.73459808  0.36964759  -0.01104299  1
  H+  H213  1  0.67160190  0.06689114  0.69976115  1
  H+  H214  1  0.88140883  0.77551443  0.82734162  1
  H+  H215  1  0.39238091  0.77062312  -0.00389012  1
  H+  H216  1  0.86127903  0.21776039  1.01198447  1
  H+  H217  1  0.47732736  0.61180693  0.84066841  1
  H+  H218  1  0.38537425  0.10570282  0.50292564  1
  H+  H219  1  0.35561730  0.72602774  0.16362526  1
  H+  H220  1  0.62958254  0.65396645  0.33968070  1
  H+  H221  1  0.87687996  0.23428301  0.66617941  1
  H+  H222  1  0.69448313  0.87764539  0.92382902  1
  H+  H223  1  0.74817247  0.87143149  0.83534880  1
  H+  H224  1  0.89977677  0.62242996  1.00009429  1
  H+  H225  1  0.36211183  0.72146804  0.67098906  1
  H+  H226  1  0.22699060  0.37984455  0.17207599  1
  H+  H227  1  0.61591058  0.14511360  0.34981012  1
  H+  H228  1  0.79473354  0.47405357  0.49116141  1
  H+  H229  1  0.35712696  0.47122539  0.00075533  1
  H+  H230  1  0.40062012  0.63272407  0.34856037  1
  H+  H231  1  0.53627931  0.56354790  -0.05714621  1
  H+  H232  1  0.16974349  0.59998900  0.58609825  1
  H+  H233  1  0.62391172  0.72499103  0.83122180  1
  H+  H234  1  0.08172852  0.16765162  -0.07984235  1
  H+  H235  1  0.84713243  0.39696751  0.80223756  1
  H+  H236  1  0.88241499  0.35557301  0.99172024  1
  H+  H237  1  0.47815526  0.11957258  0.84675424  1
  H+  H238  1  0.33435030  0.89787253  0.83224747  1
  H+  H239  1  0.38512695  0.60618137  0.83552494  1
  H+  H240  1  0.36909365  0.38822019  -0.00202213  1
  H+  H241  1  0.60019870  0.20522364  0.52027403  1
  H+  H242  1  0.95405699  0.58994869  0.51843725  1
  H+  H243  1  -0.01465076  0.63369630  0.15568547  1
  H+  H244  1  0.73131685  0.61928529  0.51511643  1
  H+  H245  1  0.22758955  0.36567057  -0.00843370  1
  H+  H246  1  0.11587048  -0.02310861  0.66982527  1
  H+  H247  1  0.97724434  0.11693978  0.97550342  1
  H+  H248  1  0.65618786  0.86286955  0.84121813  1
  H+  H249  1  0.12266574  0.84793093  0.50870376  1
  H+  H250  1  0.22930031  0.35880488  0.66560882  1
  H+  H251  1  0.36770851  0.48510166  0.13587845  1
  H+  H252  1  0.55783536  0.66751270  0.10597842  1
  H+  H253  1  0.20936972  0.86808281  0.83094186  1
  H+  H254  1  0.53061727  0.13864554  0.67203749  1
  H+  H255  1  0.27996799  0.38389807  0.49972484  1
  H+  H256  1  0.08035833  0.21839948  0.83867690  1
  H+  H257  1  0.23898387  0.11614064  0.83722339  1
  H+  H258  1  0.13601584  0.53037045  0.98917709  1
  H+  H259  1  0.01812703  0.89920041  -0.00383654  1
  H+  H260  1  0.35544821  0.63144817  0.49646915  1
  H+  H261  1  0.36211842  -0.02456172  0.15715816  1
  H+  H262  1  0.12463836  0.24946506  0.35120777  1
  H+  H263  1  0.13203266  0.52686772  0.17025712  1
  H+  H264  1  0.37495673  0.76486515  0.49645143  1
  H+  H265  1  0.61392314  0.72001491  0.67309948  1
  H+  H266  1  0.22113801  0.60631970  0.49893248  1
  H+  H267  1  0.37144235  0.12457206  -0.00568311  1
  H+  H268  1  0.60861870  0.60018442  -0.01057436  1
  H+  H269  1  0.90688515  0.12734338  0.34881978  1
  H+  H270  1  0.60437875  0.89369343  0.34536995  1
  H+  H271  1  0.10060448  0.62233901  0.49438741  1
  H+  H272  1  0.40469266  0.82952517  0.23201942  1
  H+  H273  1  0.87164814  0.41781398  0.16224345  1
  H+  H274  1  0.21618124  0.68982825  0.61712279  1
  H+  H275  1  0.35695608  0.11737573  0.34236061  1
  H+  H276  1  1.03147505  0.90386227  0.33550027  1
  H+  H277  1  0.36510888  0.38204090  0.67066011  1
  H+  H278  1  0.62136570  0.22819609  0.16920419  1
  H+  H279  1  0.87230242  0.51186006  0.68673454  1
  H+  H280  1  0.39121827  0.11343837  0.65545787  1
  H+  H281  1  0.51776263  0.39502378  0.33856783  1
  H+  H282  1  0.63201348  0.11332781  0.85035813  1
  H+  H283  1  0.22465286  0.61174790  0.83740762  1
  H+  H284  1  0.76648789  0.10751039  0.82938397  1
  H+  H285  1  0.11898283  0.14152377  -0.02500678  1
  H+  H286  1  0.63719018  0.10499317  0.51696742  1
  H+  H287  1  0.63675442  0.27916249  0.69007687  1
  H+  H288  1  0.28203314  0.38066698  0.82611294  1
  H+  H289  1  0.08267942  0.65689262  0.40504342  1
  H+  H290  1  0.59550604  0.17116971  0.45175944  1
  H+  H291  1  0.11579291  0.89751251  0.32995834  1
  H+  H292  1  0.91633495  0.33999892  0.27471068  1
  H+  H293  1  0.60552333  0.96709436  0.50350326  1
  H+  H294  1  0.91620453  0.83295459  0.57084946  1
  H+  H295  1  0.57991828  0.16213934  0.77509454  1
  H+  H296  1  0.66924994  0.33570777  0.93247214  1
  H+  H297  1  0.57762857  0.91635143  0.68677204  1
  H+  H298  1  0.06767914  0.76921871  0.29062856  1
  H+  H299  1  0.59642233  0.17630163  0.07548728  1
  H+  H300  1  0.08248276  0.18478421  0.10359310  1
  H+  H301  1  0.33864550  0.41172781  0.73180988  1
  H+  H302  1  0.59765042  0.91972018  0.78944097  1
  H+  H303  1  0.86403685  0.72556272  0.50815430  1
  H+  H304  1  0.57342054  0.91643107  0.10406352  1
  H+  H305  1  0.16499112  0.58785673  0.89617810  1
  H+  H306  1  0.66919034  0.64403366  0.09924897  1
  H+  H307  1  0.89518730  0.02104704  0.50564634  1
  H+  H308  1  0.85965366  0.68485170  0.41880025  1
  H+  H309  1  0.29406768  0.88764221  0.39759678  1
  H+  H310  1  0.65967965  0.07497011  0.23799934  1
  H+  H311  1  0.42139679  0.33103373  0.59686299  1
  H+  H312  1  0.17049767  0.10017835  0.23391446  1
  H+  H313  1  0.83888483  0.68183696  0.06931248  1
  H+  H314  1  0.45000930  0.97007579  0.71706497  1
  H+  H315  1  0.79355067  0.77439693  0.94463508  1
  H+  H316  1  0.72774544  0.37161822  0.69642931  1
  H+  H317  1  0.12567997  0.46414520  0.33005822  1
  H+  H318  1  0.90383404  0.83422835  0.88555873  1
  H+  H319  1  0.88418004  0.99742662  0.81377618  1
  H+  H320  1  0.94085934  0.11376468  0.87855674  1
  H+  H321  1  0.34263566  0.16942110  0.72670797  1
  H+  H322  1  0.59690372  0.42601169  0.09948333  1
  H+  H323  1  0.67942830  0.08583486  0.57386601  1
  H+  H324  1  0.65895319  0.51583596  -0.00567007  1
  H+  H325  1  0.82821897  0.13449343  0.77336877  1
  H+  H326  1  0.67109165  0.68062631  0.08130281  1
  H+  H327  1  0.50617502  0.28847357  0.28266151  1
  H+  H328  1  0.43207135  0.60691096  0.29064619  1
  H+  H329  1  0.88376815  0.76879179  0.66476576  1
  H+  H330  1  0.66874172  0.84955020  0.27466330  1
  H+  H331  1  0.56021654  0.43871314  0.40330487  1
  H+  H332  1  0.33320749  0.66187945  0.76756976  1
  H+  H333  1  0.98713631  0.62009152  0.99690507  1
  H+  H334  1  0.11809107  0.47453905  0.67125290  1
  H+  H335  1  0.33363420  0.16565475  0.43393321  1
  H+  H336  1  0.06479209  0.90341870  0.05805737  1
  H+  H337  1  0.83888008  0.92075620  0.43543402  1
  H+  H338  1  0.41000795  0.58540071  0.56773270  1
  H+  H339  1  0.00744081  0.79534293  0.11687091  1
  H+  H340  1  0.39027461  0.49768006  0.35852752  1
  H+  H341  1  0.66906793  0.57178609  0.89902136  1
  H+  H342  1  0.82155674  0.92094777  0.09630542  1
  H+  H343  1  0.14902499  0.02714009  0.83674448  1
  H+  H344  1  0.08415967  0.41683997  0.76838224  1
  H+  H345  1  0.74756346  0.60787410  -0.00638746  1
  H+  H346  1  0.33299842  0.40931710  0.09104894  1
  H+  H347  1  0.39740843  0.82500511  0.55430898  1
  H+  H348  1  0.11878414  0.40274336  0.15319494  1
  H+  H349  1  0.69036135  0.56419750  0.24614790  1
  H+  H350  1  0.08224885  0.42605736  0.05784812  1
  H+  H351  1  0.83527105  0.42318699  0.06089755  1
  H+  H352  1  0.56374947  0.41334097  0.73534343  1
  H+  H353  1  0.77383949  0.42691683  0.42816885  1
  H+  H354  1  0.16857617  0.33830366  0.89509827  1
  H+  H355  1  0.92576463  0.60493909  0.90231943  1
  H+  H356  1  0.92945497  0.08538890  0.59924965  1
  H+  H357  1  0.92031845  0.32410477  0.59383961  1
  H+  H358  1  0.82127374  0.14728120  0.43025226  1
  H+  H359  1  0.89918146  0.33901694  0.88472878  1
  H+  H360  1  0.17848303  0.09812630  0.57404734  1
  H+  H361  1  0.58787198  0.66612347  0.77189140  1
  H+  H362  1  0.62174383  0.02381568  0.33686260  1
  H+  H363  1  0.64441218  0.30967170  0.60222402  1
  H+  H364  1  0.82790617  0.66375389  0.73401575  1
  H+  H365  1  0.16836916  0.33124259  0.57245049  1
  H+  H366  1  0.09431408  0.67209513  0.09602217  1
  H+  H367  1  0.33481298  0.18621795  0.05808766  1
  H+  H368  1  0.09402739  0.40612660  0.43021240  1
  H+  H369  1  0.32686063  0.66069114  0.43455378  1
  H+  H370  1  0.43227077  0.33545423  0.22481054  1
  H+  H371  1  0.91498272  0.84699525  0.27014141  1
  H+  H372  1  0.34586352  0.42088376  0.44208072  1
  H+  H373  1  0.43232599  0.81632944  0.91352526  1
  H+  H374  1  0.33734375  0.93335246  0.76623025  1
  H+  H375  1  0.40288899  0.08790135  0.93504998  1
  H+  H376  1  0.27454522  0.63528684  0.67151766  1
  H+  H377  1  0.41184890  0.06558663  0.23013689  1
  H+  H378  1  0.08145748  0.90445421  0.43427534  1
  H+  H379  1  0.66418660  0.58656199  0.57219115  1
  H+  H380  1  0.38741749  0.60790450  0.66543064  1
  H+  H381  1  0.78097101  0.90702777  0.34208757  1
  H+  H382  1  0.67014147  0.82837393  0.56109001  1
  H+  H383  1  0.97730532  0.36025590  0.33071686  1
  O2-  O384  1  0.08660274  0.19058745  0.14765686  1
  O2-  O385  1  0.09302015  0.16460082  0.48479761  1
  O2-  O386  1  0.05371967  0.15377976  0.83990931  1
  O2-  O387  1  0.08478880  0.42953702  0.13766801  1
  O2-  O388  1  0.09089495  0.41133097  0.47471822  1
  O2-  O389  1  0.08291536  0.41464410  0.81355820  1
  O2-  O390  1  0.09145132  0.67430524  0.14168670  1
  O2-  O391  1  0.06775413  0.65115210  0.48125386  1
  O2-  O392  1  0.08679843  0.67269624  0.80866089  1
  O2-  O393  1  0.04343172  0.85560368  0.12845462  1
  O2-  O394  1  0.07861066  0.89481374  0.47857305  1
  O2-  O395  1  0.08099758  0.92115433  0.80429234  1
  O2-  O396  1  0.32918168  0.18684593  0.12858713  1
  O2-  O397  1  0.33300407  0.16684487  0.47945836  1
  O2-  O398  1  0.35048422  0.18344971  0.80437877  1
  O2-  O399  1  0.33831198  0.42247268  0.13630296  1
  O2-  O400  1  0.34168529  0.41506572  0.48790189  1
  O2-  O401  1  0.34259010  0.41318734  0.81157053  1
  O2-  O402  1  0.32567025  0.66496484  0.14767675  1
  O2-  O403  1  0.32469165  0.66233741  0.47994861  1
  O2-  O404  1  0.33185160  0.65643311  0.81278817  1
  O2-  O405  1  0.32463850  0.91516373  0.13946068  1
  O2-  O406  1  0.31070030  0.90120917  0.47342940  1
  O2-  O407  1  0.31709453  0.93276883  0.80893657  1
  O2-  O408  1  0.58856411  0.16743078  0.15508009  1
  O2-  O409  1  0.58150352  0.15189861  0.49465761  1
  O2-  O410  1  0.57855023  0.16387537  0.82040715  1
  O2-  O411  1  0.59585685  0.42691306  0.14550551  1
  O2-  O412  1  0.59568843  0.43112531  0.47258638  1
  O2-  O413  1  0.54450173  0.40242790  0.81841717  1
  O2-  O414  1  0.52906077  0.68571249  0.13522197  1
  O2-  O415  1  0.60723632  0.67663093  0.47785691  1
  O2-  O416  1  0.58706595  0.66459616  0.81745402  1
  O2-  O417  1  0.56766051  0.91208627  0.14969331  1
  O2-  O418  1  0.57643800  0.90865316  0.48479314  1
  O2-  O419  1  0.59708354  0.91292652  0.83329405  1
  O2-  O420  1  0.80310641  0.07734847  0.13754938  1
  O2-  O421  1  0.82816813  0.14671063  0.47444069  1
  O2-  O422  1  0.80899305  0.09682349  0.80915168  1
  O2-  O423  1  0.83506452  0.43571927  0.14193696  1
  O2-  O424  1  0.74691333  0.43657227  0.46425353  1
  O2-  O425  1  0.80997346  0.42072168  0.78838041  1
  O2-  O426  1  0.82926491  0.67798793  0.14864567  1
  O2-  O427  1  0.83200798  0.66503467  0.49180331  1
  O2-  O428  1  0.82946248  0.66951702  0.80999842  1
  O2-  O429  1  0.81531232  0.92504979  0.14132037  1
  O2-  O430  1  0.83799734  0.91650703  0.48093180  1
  O2-  O431  1  0.84868931  0.93592836  0.80283947  1
  O2-  O432  1  0.16705931  0.10336854  0.18835296  1
  O2-  O433  1  0.18001433  0.10127918  0.52713190  1
  O2-  O434  1  0.18330939  0.08258381  0.85812083  1
  O2-  O435  1  0.16728416  0.35503804  0.18680176  1
  O2-  O436  1  0.17111931  0.33252107  0.52701215  1
  O2-  O437  1  0.16288213  0.32806649  0.85026139  1
  O2-  O438  1  0.16170360  0.58548061  0.18965976  1
  O2-  O439  1  0.16013151  0.57539327  0.51470161  1
  O2-  O440  1  0.16361929  0.58540199  0.85065030  1
  O2-  O441  1  0.16539927  0.83472484  0.17889104  1
  O2-  O442  1  0.15297232  0.81907645  0.52946203  1
  O2-  O443  1  0.15162441  0.83232831  0.84901878  1
  O2-  O444  1  0.41798098  0.06753407  0.18574277  1
  O2-  O445  1  0.40874852  0.06893873  0.51712713  1
  O2-  O446  1  0.41652607  0.09501282  0.86047557  1
  O2-  O447  1  0.43190751  0.34830951  0.18090756  1
  O2-  O448  1  0.42508669  0.33152965  0.51726351  1
  O2-  O449  1  0.45718447  0.35903368  0.84550888  1
  O2-  O450  1  0.39985730  0.58393936  0.21308459  1
  O2-  O451  1  0.40392064  0.58519867  0.52297562  1
  O2-  O452  1  0.41592598  0.57785296  0.85376043  1
  O2-  O453  1  0.40288553  0.82644693  0.18668176  1
  O2-  O454  1  0.40362072  0.82747147  0.50934720  1
  O2-  O455  1  0.43711153  0.81225137  0.86380484  1
  O2-  O456  1  0.66319444  0.07361913  0.19288754  1
  O2-  O457  1  0.66824056  0.07382945  0.53013545  1
  O2-  O458  1  0.66227564  0.08521715  0.86911289  1
  O2-  O459  1  0.67733202  0.33875385  0.18610720  1
  O2-  O460  1  0.61677594  0.28577518  0.56191433  1
  O2-  O461  1  0.65634612  0.33374362  0.84909821  1
  O2-  O462  1  0.70851800  0.55162493  0.20524655  1
  O2-  O463  1  0.66844852  0.59233584  0.52621425  1
  O2-  O464  1  0.65418445  0.56461669  0.85472837  1
  O2-  O465  1  0.65871489  0.83904214  0.19484923  1
  O2-  O466  1  0.66752411  0.83003416  0.51528635  1
  O2-  O467  1  0.69039255  0.83614347  0.85493735  1
  O2-  O468  1  0.89777172  0.16484278  0.23097791  1
  O2-  O469  1  0.92766553  0.08280987  0.51856750  1
  O2-  O470  1  0.95958370  0.11846635  0.83548492  1
  O2-  O471  1  0.93060416  0.31790842  0.19352954  1
  O2-  O472  1  0.91718742  0.32211467  0.51666861  1
  O2-  O473  1  0.90301782  0.35170089  0.84098517  1
  O2-  O474  1  0.92362983  0.61304157  0.16481393  1
  O2-  O475  1  0.89557754  0.56881350  0.53465985  1
  O2-  O476  1  0.92352084  0.61406915  0.85807296  1
  O2-  O477  1  0.90424817  0.84720475  0.19160528  1
  O2-  O478  1  0.91574930  0.82957463  0.52534028  1
  O2-  O479  1  0.91426212  0.83731690  0.84117273  1
  O2-  O480  1  0.17817104  0.09830686  0.31092937  1
  O2-  O481  1  0.17206650  0.08691609  0.64507817  1
  O2-  O482  1  0.17508358  0.09148441  0.97495275  1
  O2-  O483  1  0.13965525  0.35984941  0.32087894  1
  O2-  O484  1  0.16783262  0.33017105  0.65192085  1
  O2-  O485  1  0.16848587  0.34406466  0.97543012  1
  O2-  O486  1  0.16667128  0.56925329  0.31177877  1
  O2-  O487  1  0.18246076  0.62898412  0.62769623  1
  O2-  O488  1  0.16771461  0.59159767  0.97448182  1
  O2-  O489  1  0.12922830  0.80992618  0.29419294  1
  O2-  O490  1  0.13933710  0.81969526  0.64456689  1
  O2-  O491  1  0.15935927  0.83661195  0.97268565  1
  O2-  O492  1  0.38899991  0.04586599  0.31478585  1
  O2-  O493  1  0.42322493  0.08408412  0.64107111  1
  O2-  O494  1  0.39486146  0.08493024  0.98059170  1
  O2-  O495  1  0.46236093  0.30306434  0.29350974  1
  O2-  O496  1  0.41628707  0.32771788  0.64215115  1
  O2-  O497  1  0.43258749  0.34745247  0.97332645  1
  O2-  O498  1  0.43969379  0.61064933  0.33528234  1
  O2-  O499  1  0.42068670  0.58137549  0.64987756  1
  O2-  O500  1  0.39694890  0.57571085  0.97661737  1
  O2-  O501  1  0.40477169  0.82805422  0.31211665  1
  O2-  O502  1  0.40139177  0.82125650  0.63417728  1
  O2-  O503  1  0.42521947  0.82683338  0.97448422  1
  O2-  O504  1  0.65085410  0.08363315  0.31963266  1
  O2-  O505  1  0.68771558  0.09477718  0.65998351  1
  O2-  O506  1  0.66605385  0.08645948  0.99170820  1
  O2-  O507  1  0.67065590  0.34346027  0.30451627  1
  O2-  O508  1  0.66581356  0.33957165  0.67606336  1
  O2-  O509  1  0.67212804  0.33757796  0.97754079  1
  O2-  O510  1  0.67077798  0.58315974  0.31424473  1
  O2-  O511  1  0.66228905  0.57838823  0.64688031  1
  O2-  O512  1  0.68878760  0.57476441  0.97584257  1
  O2-  O513  1  0.67274664  0.85362429  0.31987123  1
  O2-  O514  1  0.67188596  0.82298892  0.63611300  1
  O2-  O515  1  0.70134233  0.91392980  0.96076706  1
  O2-  O516  1  0.94041355  0.10230718  0.33226316  1
  O2-  O517  1  0.92803035  0.08486478  0.64459527  1
  O2-  O518  1  0.91396534  0.08270626  0.96810615  1
  O2-  O519  1  0.91629033  0.33827235  0.31965272  1
  O2-  O520  1  0.91862953  0.32253747  0.63940511  1
  O2-  O521  1  0.90911556  0.32180120  0.97750490  1
  O2-  O522  1  0.91916849  0.57997772  0.31687265  1
  O2-  O523  1  0.90280541  0.56696617  0.66141902  1
  O2-  O524  1  0.92594981  0.58983307  0.98288907  1
  O2-  O525  1  0.92352504  0.85266476  0.31519077  1
  O2-  O526  1  0.91292641  0.82959693  0.64907932  1
  O2-  O527  1  0.85229406  0.80962670  0.95953281  1
  O2-  O528  1  0.08620030  0.17202590  -0.03473305  1
  O2-  O529  1  0.10546040  0.18950428  0.36326015  1
  O2-  O530  1  0.08532957  0.16015747  0.69780901  1
  O2-  O531  1  0.08243230  0.42578297  0.01250183  1
  O2-  O532  1  0.09131699  0.40144764  0.34328490  1
  O2-  O533  1  0.08875667  0.41673303  0.68808040  1
  O2-  O534  1  0.09240845  0.67525081  0.02053289  1
  O2-  O535  1  0.08767472  0.65362642  0.35954235  1
  O2-  O536  1  0.06499954  0.66472942  0.68336555  1
  O2-  O537  1  0.07476739  0.92038783  0.01411837  1
  O2-  O538  1  0.09236309  0.93075718  0.34983413  1
  O2-  O539  1  0.08454348  0.91634425  0.68492014  1
  O2-  O540  1  0.33785351  0.18384239  0.01155537  1
  O2-  O541  1  0.34149197  0.16149740  0.35402778  1
  O2-  O542  1  0.33780720  0.16337000  0.68131604  1
  O2-  O543  1  0.33339071  0.41106485  0.01622531  1
  O2-  O544  1  0.37445508  0.43814247  0.36950049  1
  O2-  O545  1  0.33543945  0.41259656  0.68647709  1
  O2-  O546  1  0.33013481  0.66821074  0.02291633  1
  O2-  O547  1  0.32980587  0.66540952  0.35729034  1
  O2-  O548  1  0.33320559  0.66254794  0.68881204  1
  O2-  O549  1  0.32032771  0.93683700  0.01776499  1
  O2-  O550  1  0.29478555  0.88475418  0.35177198  1
  O2-  O551  1  0.39242068  0.94704175  0.70001846  1
  O2-  O552  1  0.59785166  0.17350417  0.03039281  1
  O2-  O553  1  0.60220021  0.18736518  0.37023753  1
  O2-  O554  1  0.58463047  0.16415537  0.69613343  1
  O2-  O555  1  0.59486239  0.41705124  0.02463565  1
  O2-  O556  1  0.54177699  0.44929071  0.36241482  1
  O2-  O557  1  0.57523146  0.41452426  0.69135890  1
  O2-  O558  1  0.55374948  0.59857268  -0.02042371  1
  O2-  O559  1  0.60594147  0.68674262  0.36043689  1
  O2-  O560  1  0.58353094  0.66235025  0.69258651  1
  O2-  O561  1  0.57887399  0.92557505  0.02829191  1
  O2-  O562  1  0.56871813  0.91832260  0.36008143  1
  O2-  O563  1  0.58026681  0.91244140  0.64271571  1
  O2-  O564  1  0.83186556  0.15599584  0.02487520  1
  O2-  O565  1  0.82384479  0.16775298  0.33892677  1
  O2-  O566  1  0.84387877  0.17157958  0.68319488  1
  O2-  O567  1  0.83691211  0.42055906  0.01588033  1
  O2-  O568  1  0.82397268  0.42152105  0.35812753  1
  O2-  O569  1  0.81437972  0.41889728  0.72189576  1
  O2-  O570  1  0.84669168  0.67770392  0.02483786  1
  O2-  O571  1  0.88829848  0.70397779  0.37747570  1
  O2-  O572  1  0.83017649  0.66411801  0.68822945  1
  O2-  O573  1  0.83744413  0.92793645  0.01884942  1
  O2-  O574  1  0.84096265  0.93433529  0.35831920  1
  O2-  O575  1  0.83042450  0.91611092  0.68071047  1
