# generated using pymatgen
data_H2O
_symmetry_space_group_name_H-M   'P 1'
_cell_length_a   18.00122416
_cell_length_b   18.00096197
_cell_length_c   22.01284808
_cell_angle_alpha   90.00886947
_cell_angle_beta   89.99662131
_cell_angle_gamma   119.96442911
_symmetry_Int_Tables_number   1
_chemical_formula_structural   H2O
_chemical_formula_sum   'H384 O192'
_cell_volume   6179.59726477
_cell_formula_units_Z   192
loop_
 _symmetry_equiv_pos_site_id
 _symmetry_equiv_pos_as_xyz
  1  'x, y, z'
loop_
 _atom_type_symbol
 _atom_type_oxidation_number
  H+  1.0
  O2-  -2.0
loop_
 _atom_site_type_symbol
 _atom_site_label
 _atom_site_symmetry_multiplicity
 _atom_site_fract_x
 _atom_site_fract_y
 _atom_site_fract_z
 _atom_site_occupancy
  H+  H0  1  1.01330899  0.68440104  1.02993553  1
  H+  H1  1  0.63875215  0.60787255  0.32641951  1
  H+  H2  1  0.38356191  0.02285808  1.00543215  1
  H+  H3  1  -0.03199300  0.36410343  0.32348975  1
  H+  H4  1  0.14202433  0.28027884  0.32369628  1
  H+  H5  1  0.86351104  0.48235730  0.67796992  1
  H+  H6  1  0.38191499  0.26522209  0.17106733  1
  H+  H7  1  0.37096899  0.21827626  0.33628951  1
  H+  H8  1  0.61404581  0.59554785  0.51571990  1
  H+  H9  1  0.35611088  0.94958589  0.85187879  1
  H+  H10  1  0.58634544  0.66124154  0.43407258  1
  H+  H11  1  0.51509500  0.38033946  0.16130419  1
  H+  H12  1  0.12331704  0.35549217  0.15683471  1
  H+  H13  1  0.14252109  1.03434703  0.17373455  1
  H+  H14  1  0.59929328  0.13259160  1.02002863  1
  H+  H15  1  0.14660271  0.62289384  0.81891584  1
  H+  H16  1  -0.03903931  0.85226775  0.63401213  1
  H+  H17  1  0.62656793  0.51122641  0.51521844  1
  H+  H18  1  0.10758572  0.73031477  0.68243873  1
  H+  H19  1  0.61829428  0.88067024  0.33267738  1
  H+  H20  1  0.88391642  0.01762771  0.50539156  1
  H+  H21  1  0.33245653  0.43697633  0.36493366  1
  H+  H22  1  0.22430316  0.84937272  0.86482265  1
  H+  H23  1  0.79657700  0.25856270  0.40630828  1
  H+  H24  1  0.87826554  0.34987285  0.16696364  1
  H+  H25  1  0.52796882  0.64174773  0.83257519  1
  H+  H26  1  0.61893591  0.72454772  0.15835677  1
  H+  H27  1  0.89064500  0.16507229  0.81008032  1
  H+  H28  1  0.27106864  0.36789158  0.00454739  1
  H+  H29  1  0.65404327  0.57403157  0.59343101  1
  H+  H30  1  0.56459348  0.37024044  0.48872485  1
  H+  H31  1  0.86901388  -0.04818174  0.32770671  1
  H+  H32  1  0.63675722  0.86657590  0.65231496  1
  H+  H33  1  0.90899535  0.17346283  0.00434549  1
  H+  H34  1  0.94903595  0.58589846  0.17703939  1
  H+  H35  1  0.21417474  0.55856245  0.30343047  1
  H+  H36  1  0.65057743  0.52482530  0.66269080  1
  H+  H37  1  0.96763807  0.35307765  0.68127576  1
  H+  H38  1  1.03174826  0.39306584  0.84032951  1
  H+  H39  1  0.37062727  0.74455977  0.67976786  1
  H+  H40  1  0.84909206  0.88325868  0.48937020  1
  H+  H41  1  0.62142173  0.73677923  0.67059870  1
  H+  H42  1  0.84486875  0.42765544  0.76960214  1
  H+  H43  1  0.12138474  0.88560967  0.84115258  1
  H+  H44  1  0.88321964  0.43471337  0.47855913  1
  H+  H45  1  0.11686759  0.26391144  0.51682357  1
  H+  H46  1  0.14702480  0.35872262  -0.00889546  1
  H+  H47  1  0.85139567  0.46720632  0.00345696  1
  H+  H48  1  0.84781042  0.10030511  0.31012234  1
  H+  H49  1  0.63825393  0.11106441  0.17426765  1
  H+  H50  1  0.86170468  0.12678105  0.50669627  1
  H+  H51  1  0.73639265  0.63048150  -0.01063325  1
  H+  H52  1  0.15731989  0.16362088  0.34237866  1
  H+  H53  1  -0.02317782  0.86266763  0.84550800  1
  H+  H54  1  0.32629401  0.08253992  0.83399663  1
  H+  H55  1  0.78226430  0.24595845  0.95930257  1
  H+  H56  1  0.10693373  0.98142555  0.67867614  1
  H+  H57  1  0.37471125  0.25872006  -0.00594061  1
  H+  H58  1  0.26350357  0.12988325  -0.00286665  1
  H+  H59  1  0.47256641  0.35091794  0.83669096  1
  H+  H60  1  0.41143440  0.32249567  0.23164953  1
  H+  H61  1  0.38466795  0.01439953  0.32127266  1
  H+  H62  1  0.13157311  0.02656652  0.98183905  1
  H+  H63  1  0.36830581  0.15285079  0.49373375  1
  H+  H64  1  0.26542192  0.37987850  0.15576908  1
  H+  H65  1  0.59139045  0.36798525  0.00519072  1
  H+  H66  1  0.41145775  0.32119262  0.65505590  1
  H+  H67  1  0.52190376  0.63381442  0.49116765  1
  H+  H68  1  0.09609841  0.62333078  0.16841917  1
  H+  H69  1  0.38382864  0.73360460  0.83624999  1
  H+  H70  1  -0.02611506  0.60587102  0.34650221  1
  H+  H71  1  0.12011551  0.85862186  0.66048550  1
  H+  H72  1  0.71180424  0.35911995  -0.00339132  1
  H+  H73  1  0.47048028  0.11333911  0.99917665  1
  H+  H74  1  0.84918961  0.87088193  0.66367847  1
  H+  H75  1  0.66253811  0.32733915  0.93433449  1
  H+  H76  1  0.42283235  0.47216089  0.39378674  1
  H+  H77  1  0.77408645  0.87618404  0.82077153  1
  H+  H78  1  0.57831543  0.13736790  0.84104901  1
  H+  H79  1  0.09664842  0.45886497  0.69005165  1
  H+  H80  1  0.13514016  0.11597720  0.98038691  1
  H+  H81  1  0.37828778  0.52586806  0.51952207  1
  H+  H82  1  0.75928749  0.61382110  0.16322248  1
  H+  H83  1  0.37434318  0.39318375  0.82845238  1
  H+  H84  1  0.52224619  0.87987953  1.02079859  1
  H+  H85  1  0.59987303  0.22186806  0.01153130  1
  H+  H86  1  0.86186764  0.87455596  0.81971986  1
  H+  H87  1  0.71434356  1.09623047  0.66194001  1
  H+  H88  1  0.40183290  0.63239158  0.99840145  1
  H+  H89  1  0.57726692  0.15963047  0.11024514  1
  H+  H90  1  0.77191130  0.12759020  0.15477129  1
  H+  H91  1  0.62271062  0.02956526  0.86367718  1
  H+  H92  1  0.45126105  0.38006857  0.48806855  1
  H+  H93  1  0.15231947  0.36729818  0.84648044  1
  H+  H94  1  0.81805012  0.64152612  0.50988024  1
  H+  H95  1  0.35406151  0.95490329  0.11544608  1
  H+  H96  1  0.61547259  0.37044453  0.82462612  1
  H+  H97  1  0.11855060  0.14435261  0.50323567  1
  H+  H98  1  0.97473329  0.58070336  0.98355079  1
  H+  H99  1  0.85097830  0.37945379  0.32647832  1
  H+  H100  1  0.65655750  0.64404774  -0.01874377  1
  H+  H101  1  0.19979953  0.35648564  0.52756519  1
  H+  H102  1  0.91283524  0.32549909  0.22611446  1
  H+  H103  1  0.65001812  0.27114704  0.50386055  1
  H+  H104  1  0.22990100  0.12271806  0.17079363  1
  H+  H105  1  0.71961998  0.11803383  0.51707537  1
  H+  H106  1  -0.02612268  0.10575511  0.50830673  1
  H+  H107  1  0.10781723  0.25265141  0.67151398  1
  H+  H108  1  0.86669183  0.88138404  0.15698752  1
  H+  H109  1  0.36920159  0.35557247  0.00305246  1
  H+  H110  1  0.09365151  0.38184407  0.49713880  1
  H+  H111  1  0.10271168  0.85579375  0.32917001  1
  H+  H112  1  0.20988852  0.61250344  0.55386799  1
  H+  H113  1  0.93533256  0.84567138  0.49855422  1
  H+  H114  1  0.95974128  0.83175030  0.32769078  1
  H+  H115  1  0.11561155  0.62105550  0.33236557  1
  H+  H116  1  0.83430060  0.37013232  0.00129896  1
  H+  H117  1  0.64287121  0.27610275  0.66233239  1
  H+  H118  1  0.27718257  0.89670660  0.02473399  1
  H+  H119  1  0.39742912  0.87326786  0.32874321  1
  H+  H120  1  0.52529345  0.14559367  0.67082313  1
  H+  H121  1  0.67677528  0.37009632  0.50335922  1
  H+  H122  1  0.86699551  0.64560614  0.81722784  1
  H+  H123  1  0.65273138  0.08816741  0.57034430  1
  H+  H124  1  0.35373705  0.89350602  0.65792371  1
  H+  H125  1  0.42495278  0.61025552  0.60192887  1
  H+  H126  1  0.87283851  0.85709911  1.05912301  1
  H+  H127  1  0.17665491  0.80941655  0.14966221  1
  H+  H128  1  0.79314797  0.35691493  0.49893145  1
  H+  H129  1  0.61259424  0.14126811  0.49284779  1
  H+  H130  1  0.13984310  0.11418561  0.67320917  1
  H+  H131  1  0.72773688  0.86044550  0.32495839  1
  H+  H132  1  0.59991113  0.97849322  0.66515955  1
  H+  H133  1  0.12079362  0.47984967  0.82490624  1
  H+  H134  1  0.37222626  0.74375890  0.32899227  1
  H+  H135  1  0.82856129  0.73219790  0.49419435  1
  H+  H136  1  0.63069159  1.02505921  0.01826563  1
  H+  H137  1  0.11704844  0.22494016  0.99622487  1
  H+  H138  1  0.62376959  0.72896006  0.34015606  1
  H+  H139  1  0.55067021  0.40729008  0.66586050  1
  H+  H140  1  0.76147195  0.37135058  0.15883407  1
  H+  H141  1  0.39750295  0.52345788  0.84472748  1
  H+  H142  1  0.17728679  0.10030680  0.57877800  1
  H+  H143  1  0.40219454  0.85425814  0.86163326  1
  H+  H144  1  0.36509843  0.89274263  0.02397663  1
  H+  H145  1  0.36951710  0.90226513  0.49512087  1
  H+  H146  1  0.72667928  0.86559575  0.65502850  1
  H+  H147  1  0.39097291  0.42778252  0.67317536  1
  H+  H148  1  0.13535087  0.61635288  0.51527619  1
  H+  H149  1  0.21352387  0.61002402  0.16838157  1
  H+  H150  1  0.21238647  0.86681981  0.65623093  1
  H+  H151  1  0.07426459  0.93956074  0.45853478  1
  H+  H152  1  0.14756368  0.86886308  0.50379157  1
  H+  H153  1  0.11875029  0.49635293  0.32374308  1
  H+  H154  1  0.90055268  0.32587563  0.89700250  1
  H+  H155  1  0.35350468  0.12311348  0.15131534  1
  H+  H156  1  0.38292908  0.77660400  1.00938164  1
  H+  H157  1  0.98059337  0.62176336  0.84657542  1
  H+  H158  1  0.10445319  0.21909435  0.14478601  1
  H+  H159  1  0.11475141  0.72769551  0.84641895  1
  H+  H160  1  0.77675524  0.39055100  0.67657565  1
  H+  H161  1  0.91978735  0.55925965  0.43013833  1
  H+  H162  1  0.48142333  0.87064252  0.17684614  1
  H+  H163  1  0.75468031  0.37907418  0.84296497  1
  H+  H164  1  0.39607221  0.61147186  0.84382202  1
  H+  H165  1  0.15995662  0.97060209  0.42689951  1
  H+  H166  1  0.38251037  0.52452699  0.15404071  1
  H+  H167  1  0.35274929  0.12867532  0.00276411  1
  H+  H168  1  0.80092541  0.16205195  0.80174649  1
  H+  H169  1  0.66958377  0.83058808  0.26438700  1
  H+  H170  1  0.12874645  0.56062512  0.62392439  1
  H+  H171  1  0.10820768  0.13562572  0.78390901  1
  H+  H172  1  0.63096871  0.11000323  0.66894544  1
  H+  H173  1  0.88104920  0.40170935  0.82868104  1
  H+  H174  1  0.35233565  0.21180503  0.70514933  1
  H+  H175  1  0.86061882  0.21545726  0.15918936  1
  H+  H176  1  0.63669979  0.60926388  0.16873351  1
  H+  H177  1  0.65115513  0.03782309  0.33334337  1
  H+  H178  1  0.12162906  1.02048856  0.83210385  1
  H+  H179  1  0.27556521  0.67160614  0.33358992  1
  H+  H180  1  0.69320845  0.12680667  0.87154518  1
  H+  H181  1  0.02543268  0.36505327  -0.00065374  1
  H+  H182  1  0.53613077  0.64229928  0.33519986  1
  H+  H183  1  0.37375939  0.50403111  0.67987321  1
  H+  H184  1  0.61634304  0.38130180  0.33690061  1
  H+  H185  1  0.46478433  0.86920848  0.65332399  1
  H+  H186  1  0.08787698  0.37313491  0.34195754  1
  H+  H187  1  0.86110463  0.49474017  0.16939751  1
  H+  H188  1  0.35397614  0.37850991  0.16168149  1
  H+  H189  1  0.35471159  0.72914576  0.16415041  1
  H+  H190  1  0.38674545  0.03870558  0.50295518  1
  H+  H191  1  0.38326333  0.61305874  0.50060427  1
  H+  H192  1  0.13860338  0.79433491  1.01473753  1
  H+  H193  1  0.88757211  0.00417876  0.66407016  1
  H+  H194  1  0.39115188  0.03800218  0.64556597  1
  H+  H195  1  0.61578223  0.22112762  0.16649796  1
  H+  H196  1  0.44334532  0.08094358  0.84703270  1
  H+  H197  1  0.61752204  0.64599070  0.67576457  1
  H+  H198  1  0.89261782  0.53353268  0.83994274  1
  H+  H199  1  0.10664794  0.59989470  0.68020482  1
  H+  H200  1  0.28901418  0.65057498  0.82005513  1
  H+  H201  1  0.63406087  0.76703307  0.50321262  1
  H+  H202  1  1.01570922  0.11870042  0.68856082  1
  H+  H203  1  0.22974478  0.11215969  0.32302350  1
  H+  H204  1  0.07466897  0.69440326  0.19256990  1
  H+  H205  1  0.11989660  0.90079581  0.16175371  1
  H+  H206  1  0.95331119  0.94195335  0.22949054  1
  H+  H207  1  0.76659359  0.89422938  0.48376677  1
  H+  H208  1  0.14017860  0.88282943  1.00620803  1
  H+  H209  1  0.98603625  0.13327561  0.81468049  1
  H+  H210  1  0.61529903  -0.02577574  0.16944924  1
  H+  H211  1  0.47081837  0.35046363  0.00038336  1
  H+  H212  1  0.88578847  0.36643112  0.67352554  1
  H+  H213  1  0.61549836  0.47146605  0.33703981  1
  H+  H214  1  0.63556467  0.39864176  0.66706929  1
  H+  H215  1  0.63372247  0.11621655  0.32803411  1
  H+  H216  1  0.39034046  0.12380695  0.65897089  1
  H+  H217  1  0.84678966  0.10182719  0.66647336  1
  H+  H218  1  0.88502827  0.12995819  0.32984977  1
  H+  H219  1  0.51651207  0.12849058  0.33375479  1
  H+  H220  1  0.38593473  0.65873631  0.67743706  1
  H+  H221  1  0.72801723  0.85333498  0.16591380  1
  H+  H222  1  0.38393332  0.28091843  0.50270523  1
  H+  H223  1  0.64279610  0.86111618  0.17390848  1
  H+  H224  1  0.85406687  0.95392185  0.13097612  1
  H+  H225  1  0.27406565  0.87951813  0.33714046  1
  H+  H226  1  0.52473026  0.87409026  0.47920516  1
  H+  H227  1  0.87692539  0.28105886  0.32904964  1
  H+  H228  1  0.77841906  0.64852257  0.81800613  1
  H+  H229  1  0.88178342  0.09917895  0.16131100  1
  H+  H230  1  0.58404829  0.91116685  0.11214435  1
  H+  H231  1  0.72322297  0.60058527  0.32746133  1
  H+  H232  1  0.88627899  0.24661180  0.53691765  1
  H+  H233  1  0.73783160  0.62186162  0.65482518  1
  H+  H234  1  0.16030134  0.04831818  0.51643850  1
  H+  H235  1  0.65494169  0.63230526  0.83539755  1
  H+  H236  1  0.84924441  0.70620690  0.34475059  1
  H+  H237  1  0.62687992  0.26791466  0.32238624  1
  H+  H238  1  0.27107251  0.63799735  0.00488772  1
  H+  H239  1  0.88336912  0.62156334  0.66405109  1
  H+  H240  1  0.39930302  0.88370324  0.17903318  1
  H+  H241  1  0.83402608  0.67394522  0.72691426  1
  H+  H242  1  0.38450605  0.10231417  0.31769269  1
  H+  H243  1  0.90040450  0.28957986  0.83085479  1
  H+  H244  1  0.19948142  0.37482583  0.29981508  1
  H+  H245  1  0.42762453  0.84914887  0.26588716  1
  H+  H246  1  0.24840337  0.10425790  0.82406498  1
  H+  H247  1  0.53065028  0.63898030  0.14380501  1
  H+  H248  1  0.88753386  1.04655692  -0.03512652  1
  H+  H249  1  0.67912917  0.28547910  0.83505883  1
  H+  H250  1  0.63576700  0.77637009  0.84895782  1
  H+  H251  1  0.88330024  0.60660530  0.35666693  1
  H+  H252  1  0.86673792  0.25936891  0.99282120  1
  H+  H253  1  0.28099581  0.15591452  0.49922186  1
  H+  H254  1  0.86833516  0.73188276  0.02606795  1
  H+  H255  1  0.54701853  0.20737804  0.83400412  1
  H+  H256  1  0.85986019  0.72841348  0.66178498  1
  H+  H257  1  0.49651385  0.86427029  0.85935940  1
  H+  H258  1  0.85029636  0.59720131  0.16708650  1
  H+  H259  1  0.11280006  0.13518378  0.15032583  1
  H+  H260  1  0.01528621  0.89662262  0.01821567  1
  H+  H261  1  0.99931608  0.06618406  0.28986636  1
  H+  H262  1  0.60473308  0.46875941  0.15897079  1
  H+  H263  1  0.17631148  0.58983258  0.76271032  1
  H+  H264  1  0.33983880  0.38505867  0.52224482  1
  H+  H265  1  0.49037566  0.63864784  0.66001620  1
  H+  H266  1  0.48730106  0.35694474  0.32677817  1
  H+  H267  1  0.11817333  0.72570280  0.49137657  1
  H+  H268  1  0.63071133  0.35831106  0.17081003  1
  H+  H269  1  0.14058630  0.51413197  0.98405291  1
  H+  H270  1  0.52846143  0.88719229  0.33382107  1
  H+  H271  1  0.01201076  0.37819481  0.15072032  1
  H+  H272  1  0.14638860  0.76075178  0.31531255  1
  H+  H273  1  0.07812014  0.39975496  0.74969578  1
  H+  H274  1  0.39841980  0.35375594  0.33399171  1
  H+  H275  1  0.54544197  0.66646944  0.00101556  1
  H+  H276  1  0.87394180  0.64572991  1.01120003  1
  H+  H277  1  1.03482881  0.63100392  0.48068056  1
  H+  H278  1  0.41005836  0.53399685  0.29180807  1
  H+  H279  1  0.63292253  0.89528633  0.85505470  1
  H+  H280  1  0.39352474  0.61030595  0.30927598  1
  H+  H281  1  0.10537085  0.47498764  0.49686515  1
  H+  H282  1  0.35531276  0.64062481  0.15527029  1
  H+  H283  1  0.22717045  0.10974262  0.67287941  1
  H+  H284  1  0.26519634  0.62595474  0.47184535  1
  H+  H285  1  0.81179033  0.65471279  0.40774628  1
  H+  H286  1  0.87278488  0.83682695  0.33018547  1
  H+  H287  1  1.01688585  0.64535683  0.68900941  1
  H+  H288  1  0.14998724  0.56466015  0.22416077  1
  H+  H289  1  0.15919104  0.83012158  0.56595022  1
  H+  H290  1  0.17018176  0.09734120  0.26543684  1
  H+  H291  1  0.18030858  0.33278089  0.93051227  1
  H+  H292  1  0.08083681  0.15940710  0.05264865  1
  H+  H293  1  0.24231065  0.37047186  0.84361893  1
  H+  H294  1  0.88908781  0.56279900  0.49749042  1
  H+  H295  1  0.97080834  0.10064090  0.15126572  1
  H+  H296  1  0.93584081  0.11600599  0.87856008  1
  H+  H297  1  0.89012360  0.77581473  0.83693103  1
  H+  H298  1  0.09942920  0.17688965  0.44088271  1
  H+  H299  1  0.07842001  0.40755359  0.05841378  1
  H+  H300  1  0.64189905  0.07641268  0.95837258  1
  H+  H301  1  0.42468590  0.59262984  0.20692423  1
  H+  H302  1  0.41659628  0.33419308  0.89626723  1
  H+  H303  1  0.69107152  0.60844440  0.89288757  1
  H+  H304  1  0.66196057  0.83205490  0.56035727  1
  H+  H305  1  0.58528171  0.68021161  0.77227240  1
  H+  H306  1  0.08448931  0.93433725  0.06991451  1
  H+  H307  1  0.52664551  0.14801559  0.48959401  1
  H+  H308  1  0.12908474  0.31232768  0.60583848  1
  H+  H309  1  0.39031419  0.75016554  0.50484076  1
  H+  H310  1  0.66268671  0.57747922  0.23006760  1
  H+  H311  1  0.84733559  0.46219472  0.34654355  1
  H+  H312  1  0.68002248  0.33067034  0.60061563  1
  H+  H313  1  0.56410296  0.39794123  0.06601957  1
  H+  H314  1  0.82312041  0.89689262  0.72840861  1
  H+  H315  1  0.71911824  0.35565052  0.32306877  1
  H+  H316  1  0.31864480  0.12924769  0.74575810  1
  H+  H317  1  0.92381131  0.84572952  0.23925792  1
  H+  H318  1  0.83785427  0.16540789  0.71084463  1
  H+  H319  1  0.33280383  0.94039801  0.71046301  1
  H+  H320  1  0.17791357  0.82698158  0.25831185  1
  H+  H321  1  0.21262661  0.24599780  0.38349612  1
  H+  H322  1  0.40105656  0.82167856  0.59913993  1
  H+  H323  1  0.32684223  0.16025658  0.09474796  1
  H+  H324  1  0.14142414  0.31786096  0.21644595  1
  H+  H325  1  0.58469623  0.90408715  0.40664158  1
  H+  H326  1  0.02024381  0.91454018  0.71142564  1
  H+  H327  1  0.16295996  0.83456189  0.92076316  1
  H+  H328  1  0.18865714  0.56773528  0.92687322  1
  H+  H329  1  0.34691093  0.43041817  0.77095975  1
  H+  H330  1  0.35732397  0.68724501  0.74724040  1
  H+  H331  1  0.33223123  0.66852570  0.41802586  1
  H+  H332  1  0.88960542  0.82305096  0.57863151  1
  H+  H333  1  0.83234004  0.17641475  0.45808375  1
  H+  H334  1  0.87398741  0.19010280  0.06739133  1
  H+  H335  1  0.82951255  0.64844551  0.10529576  1
  H+  H336  1  0.07127390  0.41428630  0.40319701  1
  H+  H337  1  0.10309758  0.66372408  0.39235760  1
  H+  H338  1  0.10062188  0.46863983  0.14889185  1
  H+  H339  1  0.27533338  0.88896839  0.49900964  1
  H+  H340  1  0.62960697  0.94871308  0.80003310  1
  H+  H341  1  0.58512388  0.39748991  0.76568250  1
  H+  H342  1  0.32986567  0.39740572  0.06669212  1
  H+  H343  1  0.33668233  0.16312322  0.39629427  1
  H+  H344  1  0.92436909  0.06819430  0.60689368  1
  H+  H345  1  0.82014137  0.40237521  0.09831577  1
  H+  H346  1  0.32539878  0.87665322  0.79954016  1
  H+  H347  1  0.98429547  0.12183811  0.97536288  1
  H+  H348  1  0.08350006  0.68003926  0.78148737  1
  H+  H349  1  0.83103565  0.91216556  0.39488565  1
  H+  H350  1  0.15031637  0.09092706  0.88248628  1
  H+  H351  1  0.09600495  0.90844325  0.77706862  1
  H+  H352  1  0.10625565  0.34839598  0.67417856  1
  H+  H353  1  0.92691005  0.59342646  0.61233409  1
  H+  H354  1  0.61460499  0.87413091  0.48160505  1
  H+  H355  1  0.31390723  0.41278939  0.46419236  1
  H+  H356  1  0.93042293  0.04459445  0.23659899  1
  H+  H357  1  0.39958439  0.05077762  0.22128953  1
  H+  H358  1  0.89583336  0.34097380  0.52660926  1
  H+  H359  1  0.57542867  0.16342028  0.39462880  1
  H+  H360  1  0.41975425  0.10151461  0.56065231  1
  H+  H361  1  0.67503134  0.08673960  0.23260104  1
  H+  H362  1  0.57149542  0.16873251  0.73499877  1
  H+  H363  1  0.60782152  0.42042260  0.42812928  1
  H+  H364  1  0.04993957  0.82961849  0.38854119  1
  H+  H365  1  0.66250528  0.33336125  0.23165589  1
  H+  H366  1  0.44043957  0.36653373  0.59246906  1
  H+  H367  1  0.33013498  0.91553146  0.39854733  1
  H+  H368  1  0.43061725  0.59689777  0.94281762  1
  H+  H369  1  0.87295976  0.85508077  0.98886354  1
  H+  H370  1  0.24829783  0.89718294  0.17508518  1
  H+  H371  1  0.03498505  0.90956103  0.17009190  1
  H+  H372  1  0.91505177  0.57908895  0.93013545  1
  H+  H373  1  0.42432153  0.83662164  0.95272497  1
  H+  H374  1  0.61056964  0.69193534  0.05464596  1
  H+  H375  1  0.61445995  0.88609123  0.01737813  1
  H+  H376  1  0.39802071  0.05744352  0.91313382  1
  H+  H377  1  0.46891854  0.77379723  0.54668471  1
  H+  H378  1  0.68486586  0.83696129  0.90694464  1
  H+  H379  1  0.55974651  0.90555241  0.71698430  1
  H+  H380  1  0.06683921  0.68072379  0.08465385  1
  H+  H381  1  0.32068276  0.66839779  0.06856726  1
  H+  H382  1  0.91334743  0.31609051  0.60029934  1
  H+  H383  1  0.75904730  0.17223483  0.36690375  1
  O2-  O384  1  0.07830185  0.15844869  0.13073752  1
  O2-  O385  1  0.08480953  0.16920559  0.48478376  1
  O2-  O386  1  0.08166007  0.16873495  0.76686510  1
  O2-  O387  1  0.07234946  0.40838285  0.13407911  1
  O2-  O388  1  0.07957452  0.42047694  0.47435985  1
  O2-  O389  1  0.09006804  0.41643679  0.82180750  1
  O2-  O390  1  0.05980730  0.65129657  0.16095572  1
  O2-  O391  1  0.09842269  0.66724367  0.47469019  1
  O2-  O392  1  0.08695933  0.67009197  0.82584076  1
  O2-  O393  1  0.09133732  0.93277914  0.14826136  1
  O2-  O394  1  0.13401743  0.95728248  0.46744615  1
  O2-  O395  1  0.09261241  0.91453226  0.82118106  1
  O2-  O396  1  0.33107684  0.16153424  0.14026456  1
  O2-  O397  1  0.33835334  0.18419121  0.47874729  1
  O2-  O398  1  0.30524430  0.11415915  0.80927037  1
  O2-  O399  1  0.32701622  0.41034565  0.14351160  1
  O2-  O400  1  0.30941206  0.41559338  0.50865764  1
  O2-  O401  1  0.34531949  0.42703149  0.81621874  1
  O2-  O402  1  0.32020923  0.66916030  0.14960411  1
  O2-  O403  1  0.32688139  0.65929353  0.46336951  1
  O2-  O404  1  0.35215955  0.67886268  0.81173456  1
  O2-  O405  1  0.35259326  0.95538481  0.16149959  1
  O2-  O406  1  0.33388068  0.92545906  0.48088112  1
  O2-  O407  1  0.33069699  0.88471753  0.84333597  1
  O2-  O408  1  0.58858162  0.15999666  0.15429408  1
  O2-  O409  1  0.58620405  0.17451795  0.47370419  1
  O2-  O410  1  0.54375472  0.15583970  0.81641767  1
  O2-  O411  1  0.57485441  0.40782768  0.14524599  1
  O2-  O412  1  0.61541407  0.42175837  0.47420587  1
  O2-  O413  1  0.56429354  0.36095369  0.80209528  1
  O2-  O414  1  0.59368042  0.66566319  0.14070889  1
  O2-  O415  1  0.58332804  0.65987282  0.47959157  1
  O2-  O416  1  0.58797195  0.68035301  0.81706083  1
  O2-  O417  1  0.58348565  0.91162173  0.15772211  1
  O2-  O418  1  0.58287702  0.90174331  0.46120701  1
  O2-  O419  1  0.60682726  0.93307507  0.84108495  1
  O2-  O420  1  0.83323612  0.15661028  0.14136854  1
  O2-  O421  1  0.83350235  0.16260995  0.50177882  1
  O2-  O422  1  0.86157360  0.19876574  0.79301741  1
  O2-  O423  1  0.82276090  0.40040416  0.14366575  1
  O2-  O424  1  0.85151736  0.37183260  0.48426533  1
  O2-  O425  1  0.84980283  0.43219917  0.81511294  1
  O2-  O426  1  0.82233100  0.63793377  0.15101709  1
  O2-  O427  1  0.79791737  0.66826785  0.48091578  1
  O2-  O428  1  0.83932565  0.67569136  0.79841083  1
  O2-  O429  1  0.82997228  0.89107337  0.12770239  1
  O2-  O430  1  0.82710917  0.92189466  0.47030371  1
  O2-  O431  1  0.82698146  0.89511174  0.79715611  1
  O2-  O432  1  0.17013652  0.09576617  0.18721019  1
  O2-  O433  1  0.18143294  0.10645020  0.53329441  1
  O2-  O434  1  0.14757140  0.08370773  0.83747186  1
  O2-  O435  1  0.15273400  0.32412527  0.17228832  1
  O2-  O436  1  0.13754266  0.32125107  0.53732305  1
  O2-  O437  1  0.18314096  0.33832031  0.86109291  1
  O2-  O438  1  0.15124099  0.57483950  0.17958348  1
  O2-  O439  1  0.15278707  0.57748817  0.53675499  1
  O2-  O440  1  0.18043331  0.59394640  0.80716320  1
  O2-  O441  1  0.18576036  0.85225358  0.18038760  1
  O2-  O442  1  0.16907429  0.83233073  0.52094078  1
  O2-  O443  1  0.16322304  0.82803337  0.87531990  1
  O2-  O444  1  0.39005042  0.04745217  0.17602183  1
  O2-  O445  1  0.41742577  0.10001115  0.51505886  1
  O2-  O446  1  0.38809678  0.04295586  0.86781390  1
  O2-  O447  1  0.40789275  0.32527364  0.18674634  1
  O2-  O448  1  0.40966800  0.34269044  0.51824056  1
  O2-  O449  1  0.41485553  0.33644668  0.85172605  1
  O2-  O450  1  0.41359145  0.58740340  0.16296459  1
  O2-  O451  1  0.41498148  0.58960860  0.52290076  1
  O2-  O452  1  0.42842630  0.58499007  0.85982792  1
  O2-  O453  1  0.42009353  0.84463305  0.19197981  1
  O2-  O454  1  0.43582304  0.79836791  0.52940025  1
  O2-  O455  1  0.43631834  0.82624101  0.87283581  1
  O2-  O456  1  0.66917272  0.07922857  0.18799015  1
  O2-  O457  1  0.65792015  0.09466238  0.52557057  1
  O2-  O458  1  0.63169261  0.08764176  0.87524934  1
  O2-  O459  1  0.66428710  0.33165942  0.18617944  1
  O2-  O460  1  0.69091765  0.32898899  0.52243239  1
  O2-  O461  1  0.69340466  0.33832966  0.85644157  1
  O2-  O462  1  0.66381020  0.57567019  0.18467760  1
  O2-  O463  1  0.61741354  0.55119211  0.54136650  1
  O2-  O464  1  0.69049032  0.60682433  0.84687881  1
  O2-  O465  1  0.67156889  0.82847446  0.18736796  1
  O2-  O466  1  0.65772119  0.82851461  0.51480212  1
  O2-  O467  1  0.66995422  0.83751072  0.86381510  1
  O2-  O468  1  0.91179371  0.06559258  0.16840564  1
  O2-  O469  1  0.91540985  0.07534520  0.52604886  1
  O2-  O470  1  0.93007468  0.11563940  0.83354751  1
  O2-  O471  1  0.91307520  0.32363649  0.18063498  1
  O2-  O472  1  0.91987658  0.30914522  0.55238948  1
  O2-  O473  1  0.92446500  0.34439767  0.85530993  1
  O2-  O474  1  0.88689782  0.55520807  0.18695577  1
  O2-  O475  1  0.92975305  0.55222724  0.47535820  1
  O2-  O476  1  0.91839178  0.59265390  0.85761811  1
  O2-  O477  1  0.94498023  0.89031565  0.20674783  1
  O2-  O478  1  0.87888418  0.82545320  0.51611217  1
  O2-  O479  1  0.91547970  0.83354445  0.85599391  1
  O2-  O480  1  0.17042014  0.09666976  0.31100299  1
  O2-  O481  1  0.16763937  0.08309018  0.65530254  1
  O2-  O482  1  0.16452652  0.08494082  0.96383749  1
  O2-  O483  1  0.14033660  0.32781492  0.30028678  1
  O2-  O484  1  0.13007548  0.31179006  0.65305330  1
  O2-  O485  1  0.17660778  0.32757243  0.97746504  1
  O2-  O486  1  0.15776536  0.55396982  0.30195029  1
  O2-  O487  1  0.12984655  0.56166045  0.66866261  1
  O2-  O488  1  0.17430059  0.57378887  0.96848513  1
  O2-  O489  1  0.17380426  0.82254765  0.30339965  1
  O2-  O490  1  0.15108546  0.83018672  0.64451039  1
  O2-  O491  1  0.17311259  0.85284547  0.99655383  1
  O2-  O492  1  0.41376633  0.07183595  0.30140453  1
  O2-  O493  1  0.42384819  0.10056135  0.63752280  1
  O2-  O494  1  0.40929492  0.07915653  0.98343762  1
  O2-  O495  1  0.42544852  0.32520543  0.31295094  1
  O2-  O496  1  0.45075803  0.37657932  0.63705318  1
  O2-  O497  1  0.40646819  0.32173272  0.98278808  1
  O2-  O498  1  0.43605819  0.59632966  0.29295342  1
  O2-  O499  1  0.42896561  0.61708772  0.64701600  1
  O2-  O500  1  0.43841664  0.60823347  0.98697973  1
  O2-  O501  1  0.42962772  0.84537865  0.31195003  1
  O2-  O502  1  0.40125717  0.83470322  0.64312885  1
  O2-  O503  1  0.41862687  0.83924895  0.99746938  1
  O2-  O504  1  0.67671687  0.09734161  0.31906863  1
  O2-  O505  1  0.65124772  0.07257922  0.65082208  1
  O2-  O506  1  0.65372210  0.08407956  1.00218873  1
  O2-  O507  1  0.65696907  0.32894925  0.30862257  1
  O2-  O508  1  0.67617583  0.33569490  0.64570394  1
  O2-  O509  1  0.65300733  0.32445047  0.97886905  1
  O2-  O510  1  0.66384382  0.57386734  0.30956892  1
  O2-  O511  1  0.67343913  0.58592985  0.64393456  1
  O2-  O512  1  0.68298149  0.60976594  0.96655669  1
  O2-  O513  1  0.66629540  0.83146713  0.31016679  1
  O2-  O514  1  0.66562333  0.83528605  0.63807356  1
  O2-  O515  1  0.73593264  0.88903483  0.97942851  1
  O2-  O516  1  0.94574938  0.02037295  0.27326957  1
  O2-  O517  1  0.92402103  0.06659223  0.65220516  1
  O2-  O518  1  0.92749994  0.10819414  0.95755449  1
  O2-  O519  1  0.91092771  0.33247979  0.30315113  1
  O2-  O520  1  0.90950219  0.32840340  0.66296881  1
  O2-  O521  1  0.84221612  0.28954827  0.96538895  1
  O2-  O522  1  0.91405282  0.57275750  0.36113866  1
  O2-  O523  1  0.91729622  0.59074381  0.65603100  1
  O2-  O524  1  0.91745258  0.57249078  0.97612706  1
  O2-  O525  1  0.89921432  0.80367065  0.31313755  1
  O2-  O526  1  0.89888020  0.82067599  0.62772603  1
  O2-  O527  1  0.89615820  0.84002457  1.02425898  1
  O2-  O528  1  0.08275696  0.16223240  0.00722102  1
  O2-  O529  1  0.15464679  0.21189752  0.36736657  1
  O2-  O530  1  0.07929002  0.15750231  0.70026292  1
  O2-  O531  1  0.08334094  0.40624163  0.01288238  1
  O2-  O532  1  0.06624447  0.41098482  0.35681414  1
  O2-  O533  1  0.07271204  0.39781360  0.70355463  1
  O2-  O534  1  0.06986202  0.69325223  0.04041850  1
  O2-  O535  1  0.09472223  0.65915631  0.34744574  1
  O2-  O536  1  0.07760734  0.67369722  0.70342875  1
  O2-  O537  1  0.07829615  0.92796344  0.02477377  1
  O2-  O538  1  0.06452711  0.86902093  0.35442075  1
  O2-  O539  1  0.07140496  0.91953744  0.69201321  1
  O2-  O540  1  0.32195402  0.15921070  0.01668709  1
  O2-  O541  1  0.33698695  0.15802225  0.35140469  1
  O2-  O542  1  0.32762846  0.15023782  0.69955600  1
  O2-  O543  1  0.33153773  0.39219465  0.02147077  1
  O2-  O544  1  0.36748691  0.41979652  0.38831111  1
  O2-  O545  1  0.35130941  0.44384123  0.69171256  1
  O2-  O546  1  0.32885484  0.67373510  0.02386004  1
  O2-  O547  1  0.33333754  0.68176732  0.34221649  1
  O2-  O548  1  0.35343107  0.68659571  0.69853833  1
  O2-  O549  1  0.33786714  0.92579011  0.03962538  1
  O2-  O550  1  0.33381716  0.91198068  0.35375400  1
  O2-  O551  1  0.32497810  0.92807860  0.66705792  1
  O2-  O552  1  0.56603653  0.16291168  0.02873183  1
  O2-  O553  1  0.57668186  0.16210515  0.34920270  1
  O2-  O554  1  0.58285582  0.17181672  0.69078999  1
  O2-  O555  1  0.55593883  0.39187976  0.02118818  1
  O2-  O556  1  0.58715051  0.41245124  0.35540396  1
  O2-  O557  1  0.60998466  0.43355272  0.68264392  1
  O2-  O558  1  0.60835004  0.69889648  0.01048914  1
  O2-  O559  1  0.59262843  0.66827818  0.35549595  1
  O2-  O560  1  0.58767221  0.67707458  0.68773353  1
  O2-  O561  1  0.58314091  0.91159555  0.03596636  1
  O2-  O562  1  0.58866295  0.91169736  0.35132581  1
  O2-  O563  1  0.56532865  0.91231765  0.67301448  1
  O2-  O564  1  0.90611954  0.21827793  0.02949598  1
  O2-  O565  1  0.81014678  0.21599104  0.39019088  1
  O2-  O566  1  0.81207920  0.12951037  0.67455655  1
  O2-  O567  1  0.81611219  0.40866030  0.02094284  1
  O2-  O568  1  0.81411366  0.39885849  0.34654152  1
  O2-  O569  1  0.83629547  0.42267700  0.69368794  1
  O2-  O570  1  0.84345055  0.66917723  0.03436568  1
  O2-  O571  1  0.81943011  0.64707596  0.36304693  1
  O2-  O572  1  0.83098189  0.66855185  0.68012333  1
  O2-  O573  1  0.81683036  0.92799618  -0.03179831  1
  O2-  O574  1  0.82769452  0.89902077  0.34992169  1
  O2-  O575  1  0.82235913  0.90282836  0.68157416  1
