# generated using pymatgen
data_H2O
_symmetry_space_group_name_H-M   'P 1'
_cell_length_a   17.98868016
_cell_length_b   17.99231511
_cell_length_c   22.00221104
_cell_angle_alpha   90.02843980
_cell_angle_beta   89.97172017
_cell_angle_gamma   120.00341976
_symmetry_Int_Tables_number   1
_chemical_formula_structural   H2O
_chemical_formula_sum   'H384 O192'
_cell_volume   6166.91934563
_cell_formula_units_Z   192
loop_
 _symmetry_equiv_pos_site_id
 _symmetry_equiv_pos_as_xyz
  1  'x, y, z'
loop_
 _atom_type_symbol
 _atom_type_oxidation_number
  H+  1.0
  O2-  -2.0
loop_
 _atom_site_type_symbol
 _atom_site_label
 _atom_site_symmetry_multiplicity
 _atom_site_fract_x
 _atom_site_fract_y
 _atom_site_fract_z
 _atom_site_occupancy
  H+  H0  1  0.61302605  0.90667032  0.67889878  1
  H+  H1  1  0.61080364  0.15082929  0.69914847  1
  H+  H2  1  0.42516665  0.31293333  0.90693104  1
  H+  H3  1  0.47048221  0.85707456  0.83801598  1
  H+  H4  1  0.86273272  0.22724619  0.65812562  1
  H+  H5  1  0.34433754  0.65524480  0.44061956  1
  H+  H6  1  0.38252997  0.86843515  0.66495598  1
  H+  H7  1  0.82584120  0.72949600  0.36132106  1
  H+  H8  1  0.33315848  0.24468589  0.81774078  1
  H+  H9  1  0.87253808  1.02233973  0.32566604  1
  H+  H10  1  1.00098802  0.34506840  0.66193525  1
  H+  H11  1  0.67096057  0.33422631  0.61036777  1
  H+  H12  1  0.27603452  0.14556876  0.15826908  1
  H+  H13  1  0.46330843  0.84691454  0.32876920  1
  H+  H14  1  0.65468417  0.41466071  0.15657135  1
  H+  H15  1  0.11735130  0.45352322  0.33250875  1
  H+  H16  1  0.38468656  0.26941260  0.51677064  1
  H+  H17  1  0.13254232  0.99374687  0.84494285  1
  H+  H18  1  0.37350235  0.88728874  0.81655431  1
  H+  H19  1  0.76996074  0.89862627  0.16431377  1
  H+  H20  1  0.11754915  0.72317497  0.49468281  1
  H+  H21  1  0.60100579  0.97746162  0.83399652  1
  H+  H22  1  0.48269232  0.87343267  0.66991228  1
  H+  H23  1  0.72938191  0.35106980  0.16429308  1
  H+  H24  1  0.82807719  0.60364649  0.28768868  1
  H+  H25  1  0.50921256  0.14601181  0.84977110  1
  H+  H26  1  0.66576195  0.60629710  0.42516830  1
  H+  H27  1  0.14940844  0.77635377  -0.00400324  1
  H+  H28  1  0.60877920  0.89207850  0.83065493  1
  H+  H29  1  0.97398636  0.35185817  0.32506337  1
  H+  H30  1  0.01893046  0.13624422  -0.00996642  1
  H+  H31  1  0.36311974  0.14157646  0.68412687  1
  H+  H32  1  0.92937948  0.15827956  0.63368578  1
  H+  H33  1  0.13181569  0.99040901  0.68150944  1
  H+  H34  1  0.87153850  0.69511721  0.68692357  1
  H+  H35  1  0.86254205  0.47591587  0.15188527  1
  H+  H36  1  0.07967325  0.68907546  0.83656045  1
  H+  H37  1  0.09759592  0.39711005  0.67061099  1
  H+  H38  1  0.50949959  0.89396328  0.99892751  1
  H+  H39  1  0.61133731  0.63900027  0.85237334  1
  H+  H40  1  0.39323941  0.03267484  0.16772697  1
  H+  H41  1  0.40151307  0.00988018  0.65374008  1
  H+  H42  1  0.37246969  0.98481902  0.01344740  1
  H+  H43  1  0.85113203  0.89252308  0.32451383  1
  H+  H44  1  0.13960319  1.03554289  0.17006820  1
  H+  H45  1  0.87775027  0.26316009  0.50298071  1
  H+  H46  1  0.51531964  0.60647123  0.47788310  1
  H+  H47  1  0.03901119  0.87821538  0.00738981  1
  H+  H48  1  0.61359726  0.38038658  0.68492160  1
  H+  H49  1  0.38767789  0.36481179  -0.01689939  1
  H+  H50  1  0.72391789  0.34390892  0.85875273  1
  H+  H51  1  0.84284695  0.60981021  0.32032568  1
  H+  H52  1  0.03021217  0.13405548  0.49129194  1
  H+  H53  1  0.36749781  0.60238660  0.99304726  1
  H+  H54  1  0.38629334  0.74218470  0.51789346  1
  H+  H55  1  0.36339352  0.47114817  0.67111775  1
  H+  H56  1  0.10161017  0.22805939  0.34613647  1
  H+  H57  1  0.47796567  0.36498098  0.99083974  1
  H+  H58  1  0.18639687  0.84404501  0.94022623  1
  H+  H59  1  0.39447222  0.52312842  0.16045508  1
  H+  H60  1  0.83770238  0.14395442  0.82135869  1
  H+  H61  1  0.11410584  0.45686514  0.82882713  1
  H+  H62  1  0.10864893  0.46585062  0.49210374  1
  H+  H63  1  0.37767438  0.51636869  0.83609708  1
  H+  H64  1  0.18434235  0.82005094  0.83639717  1
  H+  H65  1  1.02620600  0.89119577  0.48353989  1
  H+  H66  1  0.55304176  0.66065196  0.57264914  1
  H+  H67  1  0.13932783  0.57081536  0.33954640  1
  H+  H68  1  0.86811134  0.60676460  0.98717265  1
  H+  H69  1  0.98159236  0.36128719  0.99683765  1
  H+  H70  1  0.68977156  0.61420877  0.29358044  1
  H+  H71  1  0.47637895  0.36170067  0.66966136  1
  H+  H72  1  1.00028224  0.89761151  0.84801065  1
  H+  H73  1  0.53179927  0.37411805  0.83999551  1
  H+  H74  1  0.86033091  0.68913047  0.83871784  1
  H+  H75  1  0.14270746  0.35374946  0.83432324  1
  H+  H76  1  0.46554244  0.60575424  0.84893242  1
  H+  H77  1  0.62303073  0.00055678  0.50612548  1
  H+  H78  1  0.39759693  0.14014861  0.86890811  1
  H+  H79  1  0.47860097  0.38395035  0.32892068  1
  H+  H80  1  0.28773023  0.91744426  0.32162099  1
  H+  H81  1  0.84684481  0.44490815  0.84376332  1
  H+  H82  1  0.86843421  0.57499568  0.84241788  1
  H+  H83  1  0.37259173  0.82175706  0.52439918  1
  H+  H84  1  0.35916522  0.99785192  0.48338423  1
  H+  H85  1  0.72500052  0.36465574  0.31267250  1
  H+  H86  1  0.22879611  0.59918786  0.50656830  1
  H+  H87  1  0.48676730  0.05244005  0.61650354  1
  H+  H88  1  0.23549217  0.59045701  0.32955314  1
  H+  H89  1  0.89266875  0.36303753  -0.00306956  1
  H+  H90  1  0.22301339  0.60457229  0.83578132  1
  H+  H91  1  0.13738211  0.87337700  0.16081649  1
  H+  H92  1  0.61325600  0.13462254  0.50519178  1
  H+  H93  1  0.63799792  0.27065225  0.51678895  1
  H+  H94  1  0.36925405  0.91788150  0.46917275  1
  H+  H95  1  0.72384605  0.13099327  0.31764528  1
  H+  H96  1  0.85576785  0.22709825  0.00989107  1
  H+  H97  1  0.85874264  1.04082102  0.85038617  1
  H+  H98  1  0.90407005  0.80824364  0.30982606  1
  H+  H99  1  0.60858755  0.47620124  0.50823691  1
  H+  H100  1  0.33678345  0.65351829  0.73068264  1
  H+  H101  1  0.14974425  0.90025248  0.31524293  1
  H+  H102  1  0.32782745  0.44381117  0.42697279  1
  H+  H103  1  0.88748823  0.58756201  0.66913828  1
  H+  H104  1  0.66601767  0.56262706  0.59217623  1
  H+  H105  1  0.38970840  0.12097034  1.00778133  1
  H+  H106  1  0.08475540  0.66803598  0.06614155  1
  H+  H107  1  0.51222604  0.88110269  0.17248659  1
  H+  H108  1  0.63227085  0.77979609  0.85553795  1
  H+  H109  1  0.63505364  0.65337459  0.56220860  1
  H+  H110  1  0.87170454  0.14985899  0.16229283  1
  H+  H111  1  0.16216987  0.89377072  0.84798791  1
  H+  H112  1  0.61897359  0.24972057  0.85558218  1
  H+  H113  1  0.85450765  0.22559532  0.32649715  1
  H+  H114  1  0.88586664  0.33730188  0.84502470  1
  H+  H115  1  0.22945736  0.11663765  0.66599406  1
  H+  H116  1  0.11954261  0.50686976  0.16176234  1
  H+  H117  1  0.13606662  0.38298464  0.15994707  1
  H+  H118  1  0.14085743  0.11764646  0.66342670  1
  H+  H119  1  0.27451181  0.14577707  0.49694183  1
  H+  H120  1  0.72228644  0.35003141  0.00748749  1
  H+  H121  1  0.10268490  0.71807843  0.35428742  1
  H+  H122  1  0.53352264  0.63070949  0.16054049  1
  H+  H123  1  0.61042986  0.13348399  0.04689676  1
  H+  H124  1  0.37276645  0.62333383  0.50044097  1
  H+  H125  1  0.87749286  1.03435065  -0.00821370  1
  H+  H126  1  0.48257704  0.12118693  0.15799098  1
  H+  H127  1  0.63900152  0.27868861  0.67239765  1
  H+  H128  1  0.27741536  0.39821543  0.14643263  1
  H+  H129  1  0.57627415  0.42240605  0.44569442  1
  H+  H130  1  0.14788212  0.04685139  0.32504921  1
  H+  H131  1  0.26948285  0.39549006  0.48567465  1
  H+  H132  1  0.14335166  0.78106038  0.65978695  1
  H+  H133  1  0.10699792  0.23451277  0.15779440  1
  H+  H134  1  0.89840351  0.50607620  0.66764007  1
  H+  H135  1  0.88247361  0.76690692  0.50149041  1
  H+  H136  1  0.05395469  0.89324634  0.69010224  1
  H+  H137  1  0.58395832  0.66987751  0.79392917  1
  H+  H138  1  0.86961224  0.91968816  0.84118447  1
  H+  H139  1  0.62279829  0.74267468  1.00880969  1
  H+  H140  1  0.86542912  0.63259245  0.50934272  1
  H+  H141  1  0.85320309  0.13789365  0.00906890  1
  H+  H142  1  0.60514634  -0.00873249  0.17238756  1
  H+  H143  1  0.72054710  0.87097729  0.85038685  1
  H+  H144  1  0.62629164  0.39399140  0.84057829  1
  H+  H145  1  0.08028248  0.70161490  0.32392304  1
  H+  H146  1  0.10925370  0.36279598  0.33429226  1
  H+  H147  1  0.14141608  0.27456336  0.50401312  1
  H+  H148  1  0.86879924  0.88748016  0.63379001  1
  H+  H149  1  0.30918368  0.92349601  0.82000579  1
  H+  H150  1  0.02553918  0.64764067  0.00718922  1
  H+  H151  1  0.71787137  0.60488602  0.84971058  1
  H+  H152  1  0.13168072  0.60989998  0.98897613  1
  H+  H153  1  0.72146603  0.11657234  1.00363693  1
  H+  H154  1  0.94590382  0.12110092  0.83424366  1
  H+  H155  1  0.14272555  0.35623742  -0.01412952  1
  H+  H156  1  0.60237918  0.37361351  0.01583922  1
  H+  H157  1  0.85912040  0.87448624  0.66699154  1
  H+  H158  1  0.38273364  0.28209367  0.17335995  1
  H+  H159  1  1.02976809  0.63705801  0.67035685  1
  H+  H160  1  0.38572995  0.77959847  0.99182017  1
  H+  H161  1  0.11513455  0.64665057  0.16404710  1
  H+  H162  1  0.88855465  0.27472721  0.17232697  1
  H+  H163  1  0.74534091  0.12147685  0.71811296  1
  H+  H164  1  0.60751039  0.73477150  0.31898474  1
  H+  H165  1  0.86059565  0.98927764  0.16275655  1
  H+  H166  1  0.61369351  0.10220359  0.15813218  1
  H+  H167  1  0.36081783  0.61341668  0.34203412  1
  H+  H168  1  0.14076927  0.13104824  0.32637550  1
  H+  H169  1  0.13416613  0.35943533  0.50499461  1
  H+  H170  1  0.14383434  1.02727077  0.50844204  1
  H+  H171  1  0.85394791  0.36759574  0.33671650  1
  H+  H172  1  0.85416047  0.46675603  0.00775039  1
  H+  H173  1  0.89925834  0.02454304  0.49804102  1
  H+  H174  1  0.62637529  0.05904215  0.33214914  1
  H+  H175  1  0.39895169  0.04921851  0.31436233  1
  H+  H176  1  0.11167925  0.14841929  0.16186386  1
  H+  H177  1  0.12655978  0.23373629  0.67389180  1
  H+  H178  1  0.60541990  0.48375015  0.31690414  1
  H+  H179  1  0.20640240  0.13612168  0.87501819  1
  H+  H180  1  0.27685633  0.89439284  0.15733520  1
  H+  H181  1  0.77687769  0.37613516  0.68295514  1
  H+  H182  1  0.90906083  0.82782908  0.82639908  1
  H+  H183  1  0.05784906  0.11141955  0.83008813  1
  H+  H184  1  0.11255347  0.73374973  0.15708995  1
  H+  H185  1  0.97734798  0.11943475  0.17454986  1
  H+  H186  1  0.72551388  0.60379332  0.53410219  1
  H+  H187  1  0.90054657  0.06495247  0.66155066  1
  H+  H188  1  0.35625450  0.71855286  0.82473493  1
  H+  H189  1  1.03358722  0.91414784  0.32849782  1
  H+  H190  1  0.41968479  0.32962093  0.58587002  1
  H+  H191  1  0.64106924  0.59714801  0.68390885  1
  H+  H192  1  0.02781636  0.36717802  0.83091357  1
  H+  H193  1  0.23056701  0.35393822  0.98851507  1
  H+  H194  1  0.84569569  0.13159710  0.32756652  1
  H+  H195  1  0.17858641  0.32679996  0.89166496  1
  H+  H196  1  0.38351795  0.43778702  0.32894692  1
  H+  H197  1  0.42632334  0.10682907  0.25384825  1
  H+  H198  1  0.02714406  0.89976779  0.15289294  1
  H+  H199  1  0.38691156  0.51556068  0.50683017  1
  H+  H200  1  0.38706540  0.36563551  0.66546352  1
  H+  H201  1  0.17150129  0.09750380  0.22876116  1
  H+  H202  1  0.91433128  0.08802407  0.23306293  1
  H+  H203  1  0.96815520  0.34571671  0.51538144  1
  H+  H204  1  0.60784925  0.88721548  0.17333391  1
  H+  H205  1  0.77414538  0.94949200  0.69312744  1
  H+  H206  1  0.38786442  0.87062369  -0.00763167  1
  H+  H207  1  0.86838504  0.38843153  0.15955647  1
  H+  H208  1  0.77578633  0.89223248  0.48799558  1
  H+  H209  1  0.70039397  0.82626820  0.32638644  1
  H+  H210  1  0.61435919  0.16358913  0.32499184  1
  H+  H211  1  0.62784735  0.52141849  0.85497332  1
  H+  H212  1  0.66582937  0.10627428  0.62485867  1
  H+  H213  1  0.89643288  0.49354410  0.31017816  1
  H+  H214  1  0.58160327  0.40551575  0.74652173  1
  H+  H215  1  0.38190588  0.85993140  0.32651285  1
  H+  H216  1  0.66257115  0.81595393  0.66420643  1
  H+  H217  1  0.89155734  0.77249296  0.99125274  1
  H+  H218  1  0.63995814  0.86348259  0.51229986  1
  H+  H219  1  0.36959149  0.16366400  0.33789514  1
  H+  H220  1  0.61618679  0.46714984  1.01085217  1
  H+  H221  1  0.70357860  1.10753170  0.84241707  1
  H+  H222  1  0.36202754  0.22791721  0.68357726  1
  H+  H223  1  0.27851901  0.88212196  0.66829665  1
  H+  H224  1  0.51355676  0.86247547  0.49697535  1
  H+  H225  1  0.47928402  0.36284826  0.51857040  1
  H+  H226  1  0.83908874  0.89372081  0.01279785  1
  H+  H227  1  0.40857871  0.34484660  0.23087540  1
  H+  H228  1  0.11998846  0.47730880  0.99697657  1
  H+  H229  1  0.35546860  0.46937360  -0.00242479  1
  H+  H230  1  0.04334578  0.46389309  0.11504202  1
  H+  H231  1  0.77786742  0.47278666  0.44859438  1
  H+  H232  1  0.60786949  0.89868405  0.00249549  1
  H+  H233  1  0.28410753  0.63566027  0.66813225  1
  H+  H234  1  0.13234882  0.89521874  1.01302669  1
  H+  H235  1  0.62367652  0.03200017  0.67510829  1
  H+  H236  1  -0.03110984  0.61825452  0.15764948  1
  H+  H237  1  0.03922842  0.14666656  0.66628377  1
  H+  H238  1  0.11423011  0.89019090  0.48686898  1
  H+  H239  1  0.46826488  0.60125625  0.66646419  1
  H+  H240  1  0.61940343  0.40385470  0.32853152  1
  H+  H241  1  0.02094976  0.55797734  0.35669140  1
  H+  H242  1  0.61757326  0.10962435  0.85303804  1
  H+  H243  1  0.03022979  0.63425615  0.50376100  1
  H+  H244  1  0.77445222  0.61326961  0.68748865  1
  H+  H245  1  0.12270750  0.14013713  0.49188417  1
  H+  H246  1  0.26921987  0.64489577  0.00295612  1
  H+  H247  1  0.62006651  0.45128943  0.10866637  1
  H+  H248  1  0.88055805  0.78585938  0.15635283  1
  H+  H249  1  0.15465568  0.62970983  0.65628529  1
  H+  H250  1  0.51822208  0.15902688  0.32070970  1
  H+  H251  1  0.27922927  0.15967657  0.34025285  1
  H+  H252  1  0.71487916  0.88716473  1.00057099  1
  H+  H253  1  0.38681474  0.30094035  0.33359301  1
  H+  H254  1  0.14351343  0.60599242  0.50669701  1
  H+  H255  1  0.34255522  0.91506343  0.73017633  1
  H+  H256  1  0.86339174  0.37242661  0.69136208  1
  H+  H257  1  0.17741926  0.58730713  0.23765471  1
  H+  H258  1  0.59277209  0.69420571  0.45648457  1
  H+  H259  1  0.35571552  0.62907274  0.82681212  1
  H+  H260  1  0.63336827  0.50401583  0.68355368  1
  H+  H261  1  0.59404488  0.59609100  0.30065028  1
  H+  H262  1  0.25309822  0.39394300  0.31227023  1
  H+  H263  1  0.92106081  0.82653009  0.64985510  1
  H+  H264  1  0.61000230  0.93538005  0.33751808  1
  H+  H265  1  0.38613130  0.12695950  0.50439737  1
  H+  H266  1  0.63903544  0.77786821  0.17159316  1
  H+  H267  1  0.36731396  0.22656076  0.00305492  1
  H+  H268  1  0.83425212  0.63861761  0.14099252  1
  H+  H269  1  0.36615292  0.14684556  0.15709889  1
  H+  H270  1  0.38265217  0.86332403  0.17493067  1
  H+  H271  1  0.11433268  0.21614257  -0.01586339  1
  H+  H272  1  0.36255912  0.38993469  0.15442473  1
  H+  H273  1  0.86549411  0.73927713  0.37939018  1
  H+  H274  1  0.08873856  0.11059586  -0.06310219  1
  H+  H275  1  0.96327286  0.11053352  0.33216343  1
  H+  H276  1  0.22809319  0.36316186  0.65872268  1
  H+  H277  1  0.92275535  0.32004115  0.90413423  1
  H+  H278  1  0.63717002  0.26339872  0.15905655  1
  H+  H279  1  0.47630463  0.59510114  0.32105567  1
  H+  H280  1  0.22490153  0.87063394  0.50040366  1
  H+  H281  1  0.52286606  0.14612655  0.68959527  1
  H+  H282  1  0.23520557  0.62302856  0.17642185  1
  H+  H283  1  0.41256284  0.56701724  0.22508371  1
  H+  H284  1  0.12915868  0.59399297  0.83391881  1
  H+  H285  1  0.60405659  0.99232867  0.00634859  1
  H+  H286  1  0.75649856  0.39442903  0.49010148  1
  H+  H287  1  0.35846941  0.38656452  0.81716447  1
  H+  H288  1  0.61600926  0.25891029  0.31887683  1
  H+  H289  1  0.82715659  0.63762811  0.77596953  1
  H+  H290  1  0.97158575  0.78591923  0.61860455  1
  H+  H291  1  0.10156981  0.42306200  0.05711282  1
  H+  H292  1  0.08431014  0.66867683  0.73033052  1
  H+  H293  1  0.17071269  0.85090088  0.22044600  1
  H+  H294  1  0.91235613  0.57126967  0.90254986  1
  H+  H295  1  0.17275710  0.35914436  0.21773157  1
  H+  H296  1  0.85802222  0.88310395  0.47440653  1
  H+  H297  1  0.41793980  0.82035344  0.61044988  1
  H+  H298  1  0.64249847  0.08325494  0.22579553  1
  H+  H299  1  0.15697676  0.87642774  0.66451181  1
  H+  H300  1  0.65652806  0.79058232  0.54302027  1
  H+  H301  1  0.07536126  0.60398856  0.41647925  1
  H+  H302  1  0.52872468  0.14086607  0.49799903  1
  H+  H303  1  0.65820202  0.85419279  0.93886292  1
  H+  H304  1  0.57744524  0.92643668  0.74093259  1
  H+  H305  1  0.40927931  0.83044230  0.89579382  1
  H+  H306  1  0.59151521  0.84178470  0.34065953  1
  H+  H307  1  0.17128090  0.84111243  0.56242824  1
  H+  H308  1  0.36855605  0.63886634  0.15553854  1
  H+  H309  1  0.97624682  0.36844436  0.17734218  1
  H+  H310  1  0.56920440  0.88880071  0.43487032  1
  H+  H311  1  0.68448427  0.58647382  0.94826892  1
  H+  H312  1  0.33669593  0.17414492  0.06477600  1
  H+  H313  1  0.16389711  0.58104141  0.92930512  1
  H+  H314  1  0.08739765  0.93230190  0.39143041  1
  H+  H315  1  0.66706854  0.33559440  0.25019890  1
  H+  H316  1  0.77984460  0.63449146  0.04922908  1
  H+  H317  1  0.93235195  0.08448216  0.55792862  1
  H+  H318  1  0.37995127  0.60700118  0.66368951  1
  H+  H319  1  0.83711887  0.17757996  0.10451824  1
  H+  H320  1  0.88817366  0.52547166  0.50849559  1
  H+  H321  1  0.83404761  0.41132981  0.06840861  1
  H+  H322  1  0.90789729  0.84551812  0.54601407  1
  H+  H323  1  0.90778859  0.57908326  0.21284090  1
  H+  H324  1  0.67730476  0.53565738  0.39164455  1
  H+  H325  1  0.92630908  0.85877144  0.24772490  1
  H+  H326  1  0.07653429  0.40416695  0.43401622  1
  H+  H327  1  0.47690004  0.11696784  1.01942865  1
  H+  H328  1  0.05606929  0.14749310  0.76283158  1
  H+  H329  1  0.68748169  0.87628757  0.60717896  1
  H+  H330  1  0.83186221  0.94916850  0.78503616  1
  H+  H331  1  0.61257814  0.67905788  0.05955562  1
  H+  H332  1  0.33560516  0.18490407  0.43707089  1
  H+  H333  1  0.81409247  0.38782035  0.78388096  1
  H+  H334  1  0.09165518  0.92900353  0.09637624  1
  H+  H335  1  0.88261659  0.87571747  0.16051982  1
  H+  H336  1  0.66167574  0.31447955  0.92311253  1
  H+  H337  1  0.94260368  0.68905092  0.96190132  1
  H+  H338  1  0.17749509  0.58920305  0.59941411  1
  H+  H339  1  0.33140371  0.41326367  0.73157003  1
  H+  H340  1  0.62934159  0.60608062  0.20466316  1
  H+  H341  1  0.93582043  0.81524293  0.92857403  1
  H+  H342  1  0.15303786  0.81438947  0.31598733  1
  H+  H343  1  0.90817943  0.26801095  0.59247857  1
  H+  H344  1  0.39154420  0.57037992  0.93286735  1
  H+  H345  1  0.10953078  0.94170928  0.78062927  1
  H+  H346  1  0.00025380  0.59986019  0.82477062  1
  H+  H347  1  0.34322091  0.92216922  0.10242921  1
  H+  H348  1  0.41297168  0.08606775  0.56018406  1
  H+  H349  1  0.82131408  0.93133401  0.07280047  1
  H+  H350  1  0.41871053  0.57127307  0.56994988  1
  H+  H351  1  0.28451389  0.89288669  0.01151434  1
  H+  H352  1  0.36672647  0.72695268  0.15915691  1
  H+  H353  1  0.92072905  0.57125237  0.57346744  1
  H+  H354  1  0.70213340  0.05597049  0.54764291  1
  H+  H355  1  0.33917424  0.94448334  0.38334519  1
  H+  H356  1  0.58998212  0.68915863  0.70614420  1
  H+  H357  1  0.75425452  0.65356745  0.14030958  1
  H+  H358  1  0.17234000  0.08443515  0.56996870  1
  H+  H359  1  0.57122023  0.17842909  0.78678017  1
  H+  H360  1  0.65666488  0.82465525  0.23469229  1
  H+  H361  1  0.81844036  0.16875640  0.41823504  1
  H+  H362  1  0.81972257  0.40606186  0.38994009  1
  H+  H363  1  0.57415612  0.64161880  0.71167322  1
  H+  H364  1  0.81699756  0.90974951  0.38731945  1
  H+  H365  1  0.62871931  0.35502641  0.51776180  1
  H+  H366  1  0.54653617  0.62436282  0.37719779  1
  H+  H367  1  0.80974067  1.03738971  0.72923199  1
  H+  H368  1  0.90208600  0.09802968  0.93379893  1
  H+  H369  1  0.16759563  0.33294261  0.60074196  1
  H+  H370  1  0.63311778  0.26232218  1.01877455  1
  H+  H371  1  0.21382984  0.30120480  0.28567130  1
  H+  H372  1  0.42535934  0.09884934  0.92165914  1
  H+  H373  1  0.75832123  0.13645922  0.47563149  1
  H+  H374  1  0.91577722  0.33177689  0.26486784  1
  H+  H375  1  0.26659221  0.38272208  0.82313856  1
  H+  H376  1  0.32959074  0.67318602  0.06218040  1
  H+  H377  1  0.94117555  0.59400489  0.31021149  1
  H+  H378  1  0.08155356  0.16693094  0.40353219  1
  H+  H379  1  0.40528373  0.82623107  0.23486230  1
  H+  H380  1  0.33648781  0.40994863  0.05588508  1
  H+  H381  1  0.79821446  0.63629814  0.46157590  1
  H+  H382  1  0.36269432  0.70526590  0.34327804  1
  H+  H383  1  0.65704627  0.09082635  0.94643820  1
  O2-  O384  1  0.07389227  0.17203515  0.15124674  1
  O2-  O385  1  0.09213699  0.16869096  0.47518825  1
  O2-  O386  1  0.02171620  0.11894980  0.79966635  1
  O2-  O387  1  0.08010333  0.45011737  0.13954820  1
  O2-  O388  1  0.07699264  0.40445899  0.47891913  1
  O2-  O389  1  0.08817500  0.39656607  0.81605025  1
  O2-  O390  1  0.08284183  0.67179571  0.14451868  1
  O2-  O391  1  0.08916199  0.66073346  0.48643825  1
  O2-  O392  1  0.06060555  0.63923220  0.81031870  1
  O2-  O393  1  0.08919888  0.93013169  0.14276708  1
  O2-  O394  1  0.08741374  0.92355951  0.47112558  1
  O2-  O395  1  0.10252776  0.93516191  0.82576074  1
  O2-  O396  1  0.33672651  0.17829881  0.14365981  1
  O2-  O397  1  0.33622193  0.18117913  0.48267263  1
  O2-  O398  1  0.38532606  0.30111633  0.81770602  1
  O2-  O399  1  0.33813735  0.42387359  0.13359947  1
  O2-  O400  1  0.32985053  0.43140575  0.47030806  1
  O2-  O401  1  0.33027355  0.41940635  0.80560793  1
  O2-  O402  1  0.33538009  0.66703871  0.14301140  1
  O2-  O403  1  0.34340521  0.65557429  0.48632914  1
  O2-  O404  1  0.32546727  0.65845001  0.80937697  1
  O2-  O405  1  0.33963893  0.92233022  0.14810541  1
  O2-  O406  1  0.32896243  0.93860151  0.46396794  1
  O2-  O407  1  0.35631017  0.92600623  0.79554284  1
  O2-  O408  1  0.58303653  0.16294278  0.12936370  1
  O2-  O409  1  0.59155018  0.17211496  0.49145840  1
  O2-  O410  1  0.57289496  0.17577798  0.83243102  1
  O2-  O411  1  0.66109159  0.46928687  0.14241604  1
  O2-  O412  1  0.57540401  0.41677903  0.49023916  1
  O2-  O413  1  0.59070891  0.41667684  0.82405687  1
  O2-  O414  1  0.59532262  0.67137207  0.14835798  1
  O2-  O415  1  0.56793483  0.63244670  0.45149412  1
  O2-  O416  1  0.58184535  0.67108759  0.83831363  1
  O2-  O417  1  0.57502449  0.91642994  0.16033675  1
  O2-  O418  1  0.57270043  0.89574333  0.48004460  1
  O2-  O419  1  0.57663819  0.91976550  0.81387745  1
  O2-  O420  1  0.84534220  0.18458209  0.14933110  1
  O2-  O421  1  0.81832681  0.17022779  0.46327379  1
  O2-  O422  1  0.79439552  0.15566687  0.79930663  1
  O2-  O423  1  0.83592081  0.41417415  0.13988167  1
  O2-  O424  1  0.80310472  0.43931302  0.46363763  1
  O2-  O425  1  0.81112941  0.38421815  0.82909623  1
  O2-  O426  1  0.81295132  0.67530647  0.12395626  1
  O2-  O427  1  0.82921499  0.65959961  0.50072334  1
  O2-  O428  1  0.82062732  0.63276369  0.82186714  1
  O2-  O429  1  0.82827120  0.92863085  0.14557671  1
  O2-  O430  1  0.82967220  0.91644966  0.46361299  1
  O2-  O431  1  0.82502068  0.93342617  0.82921916  1
  O2-  O432  1  0.17080730  0.09685600  0.18363428  1
  O2-  O433  1  0.17605833  0.08698864  0.52434073  1
  O2-  O434  1  0.16910638  0.07851982  0.89111135  1
  O2-  O435  1  0.16745243  0.35422871  0.17293795  1
  O2-  O436  1  0.17082904  0.33503684  0.51890992  1
  O2-  O437  1  0.18105151  0.32946879  0.84659362  1
  O2-  O438  1  0.17513576  0.59666579  0.19263717  1
  O2-  O439  1  0.16809013  0.56987417  0.51998962  1
  O2-  O440  1  0.16379672  0.57241489  0.85380202  1
  O2-  O441  1  0.16722636  0.84190912  0.17571076  1
  O2-  O442  1  0.16592890  0.83800758  0.51719570  1
  O2-  O443  1  0.20034850  0.87039394  0.86149264  1
  O2-  O444  1  0.42476796  0.09472061  0.17929861  1
  O2-  O445  1  0.41282400  0.09118180  0.51533561  1
  O2-  O446  1  0.42391987  0.10478448  0.87597051  1
  O2-  O447  1  0.40737828  0.34306979  0.18619033  1
  O2-  O448  1  0.41970299  0.32867475  0.53712765  1
  O2-  O449  1  0.43851882  0.29232951  0.86476226  1
  O2-  O450  1  0.42600505  0.58102722  0.18129897  1
  O2-  O451  1  0.42694757  0.57568920  0.52453849  1
  O2-  O452  1  0.40254668  0.57566822  0.85427345  1
  O2-  O453  1  0.41132283  0.83071681  0.18960214  1
  O2-  O454  1  0.41356502  0.80391202  0.53615053  1
  O2-  O455  1  0.40884161  0.82656396  0.85044210  1
  O2-  O456  1  0.63598575  0.06770766  0.18208440  1
  O2-  O457  1  0.65519349  0.05777981  0.52681884  1
  O2-  O458  1  0.64765954  0.07834760  0.86513863  1
  O2-  O459  1  0.66958068  0.32091582  0.18031709  1
  O2-  O460  1  0.66589688  0.33237461  0.53159180  1
  O2-  O461  1  0.66190547  0.31718859  0.87618399  1
  O2-  O462  1  0.64263219  0.62620429  0.16150342  1
  O2-  O463  1  0.66436649  0.57201382  0.54753273  1
  O2-  O464  1  0.66054613  0.58235859  0.86881469  1
  O2-  O465  1  0.66202372  0.83620430  0.18999967  1
  O2-  O466  1  0.68350038  0.85325711  0.53305846  1
  O2-  O467  1  0.65917868  0.84265864  0.86392656  1
  O2-  O468  1  0.91453992  0.08706319  0.18788832  1
  O2-  O469  1  0.93618180  0.08354869  0.51275446  1
  O2-  O470  1  0.89003242  0.10396125  0.85704225  1
  O2-  O471  1  0.91564229  0.33696750  0.19023987  1
  O2-  O472  1  0.90922705  0.31187203  0.53186149  1
  O2-  O473  1  0.92361351  0.31622581  0.85924967  1
  O2-  O474  1  0.90668909  0.58547293  0.16849081  1
  O2-  O475  1  0.92198332  0.58218125  0.52860349  1
  O2-  O476  1  0.90280855  0.55017700  0.85953440  1
  O2-  O477  1  0.91392885  0.84500505  0.17309700  1
  O2-  O478  1  0.91381363  0.83178789  0.50407925  1
  O2-  O479  1  0.93763250  0.86648635  0.86035093  1
  O2-  O480  1  0.17736882  0.10771305  0.31090622  1
  O2-  O481  1  0.16995314  0.08441209  0.64885315  1
  O2-  O482  1  0.08603269  0.07522537  0.89584857  1
  O2-  O483  1  0.19751861  0.34371449  0.29659258  1
  O2-  O484  1  0.16706529  0.33172858  0.64596218  1
  O2-  O485  1  0.17024472  0.32332179  0.97215255  1
  O2-  O486  1  0.17715207  0.56008867  0.31090569  1
  O2-  O487  1  0.19486425  0.61203511  0.64118188  1
  O2-  O488  1  0.16424149  0.58162790  0.97520013  1
  O2-  O489  1  0.18255273  0.87254997  0.29877478  1
  O2-  O490  1  0.17866143  0.84134793  0.64389911  1
  O2-  O491  1  0.18350745  0.83844320  0.98521292  1
  O2-  O492  1  0.42723962  0.11027090  0.29999700  1
  O2-  O493  1  0.44521699  0.06593421  0.63442526  1
  O2-  O494  1  0.42252643  0.08908330  0.99620576  1
  O2-  O495  1  0.41771002  0.36064472  0.31744807  1
  O2-  O496  1  0.41808168  0.33355471  0.65065914  1
  O2-  O497  1  0.42015629  0.33468490  0.97028161  1
  O2-  O498  1  0.38702688  0.54834278  0.30689867  1
  O2-  O499  1  0.41273096  0.57425136  0.64595600  1
  O2-  O500  1  0.38986359  0.56572899  0.97787927  1
  O2-  O501  1  0.40328979  0.82090186  0.31393011  1
  O2-  O502  1  0.42085255  0.83867318  0.65423647  1
  O2-  O503  1  0.41747296  0.83997725  0.97506313  1
  O2-  O504  1  0.65968740  0.10813876  0.30570806  1
  O2-  O505  1  0.65607017  0.09634092  0.66862611  1
  O2-  O506  1  0.65833440  0.08768770  0.99164011  1
  O2-  O507  1  0.66492248  0.34165525  0.29665810  1
  O2-  O508  1  0.67397282  0.33810808  0.65593391  1
  O2-  O509  1  0.66085898  0.31619923  0.99412460  1
  O2-  O510  1  0.63154886  0.57505967  0.27939888  1
  O2-  O511  1  0.66969551  0.56640460  0.66918733  1
  O2-  O512  1  0.68735821  0.57140467  0.99158221  1
  O2-  O513  1  0.64034746  0.79867202  0.31078755  1
  O2-  O514  1  0.68134077  0.87529361  0.65285307  1
  O2-  O515  1  0.65486861  0.85920209  0.98425369  1
  O2-  O516  1  0.90514088  0.08378404  0.31340419  1
  O2-  O517  1  0.94144974  0.10921289  0.63309898  1
  O2-  O518  1  0.90791379  0.09538729  0.97905336  1
  O2-  O519  1  0.91327695  0.32669798  0.31065354  1
  O2-  O520  1  0.91200437  0.24026566  0.63277522  1
  O2-  O521  1  0.92003697  0.32933498  0.98438325  1
  O2-  O522  1  0.94473042  0.54670031  0.29160288  1
  O2-  O523  1  0.92255874  0.56486017  0.65040351  1
  O2-  O524  1  0.92602701  0.62786369  0.96912053  1
  O2-  O525  1  0.93119706  0.86664321  0.29348891  1
  O2-  O526  1  0.95239097  0.79566861  0.65786154  1
  O2-  O527  1  0.94171705  0.78722300  0.96602020  1
  O2-  O528  1  0.08039149  0.15214813  -0.01186580  1
  O2-  O529  1  0.07510174  0.16742548  0.35725303  1
  O2-  O530  1  0.09633507  0.17137973  0.68702429  1
  O2-  O531  1  0.09241499  0.41680131  0.01294830  1
  O2-  O532  1  0.07994076  0.39344704  0.34778197  1
  O2-  O533  1  0.04706562  0.40431209  0.66919420  1
  O2-  O534  1  0.08528238  0.66840998  0.02052837  1
  O2-  O535  1  0.06474603  0.56072585  0.38481376  1
  O2-  O536  1  0.08843476  0.67792265  0.68582277  1
  O2-  O537  1  0.09520560  0.91910129  0.02481843  1
  O2-  O538  1  0.09247302  0.94005993  0.34625374  1
  O2-  O539  1  0.11381870  0.93295868  0.70185359  1
  O2-  O540  1  0.34032833  0.16776187  0.02000007  1
  O2-  O541  1  0.33883217  0.18983668  0.35793443  1
  O2-  O542  1  0.33016130  0.16765466  0.69827835  1
  O2-  O543  1  0.33322981  0.40730686  0.01048483  1
  O2-  O544  1  0.34847057  0.46491627  0.34058602  1
  O2-  O545  1  0.33629373  0.41036607  0.68572184  1
  O2-  O546  1  0.33013159  0.67787458  0.01705699  1
  O2-  O547  1  0.33807638  0.64860828  0.36308472  1
  O2-  O548  1  0.34298302  0.65340050  0.68568333  1
  O2-  O549  1  0.34577035  0.92267824  0.02574803  1
  O2-  O550  1  0.34706643  0.94279224  0.33876024  1
  O2-  O551  1  0.34057780  0.91139403  0.68210069  1
  O2-  O552  1  0.58072658  0.16457294  0.06059445  1
  O2-  O553  1  0.58167528  0.19393819  0.33657483  1
  O2-  O554  1  0.57856023  0.18085668  0.71062125  1
  O2-  O555  1  0.57421908  0.40768370  0.02404163  1
  O2-  O556  1  0.59490391  0.43729832  0.34727906  1
  O2-  O557  1  0.57987829  0.40689786  0.70086071  1
  O2-  O558  1  0.62831321  0.69214280  0.01670834  1
  O2-  O559  1  0.54347686  0.63113890  0.33237717  1
  O2-  O560  1  0.61544607  0.69302081  0.57734837  1
  O2-  O561  1  0.57109868  0.92740884  0.01656974  1
  O2-  O562  1  0.56907036  0.88070243  0.35597362  1
  O2-  O563  1  0.57628187  0.92995556  0.69457988  1
  O2-  O564  1  0.82136177  0.16669068  0.02511092  1
  O2-  O565  1  0.81488755  0.16347493  0.33816676  1
  O2-  O566  1  0.79746510  0.12627065  0.73754362  1
  O2-  O567  1  0.82962379  0.40786397  0.02199065  1
  O2-  O568  1  0.82181007  0.39908428  0.34527201  1
  O2-  O569  1  0.83436564  0.40366518  0.70370302  1
  O2-  O570  1  0.77894869  0.61678913  0.00585487  1
  O2-  O571  1  0.70929855  0.59210260  0.41180670  1
  O2-  O572  1  0.83466102  0.63600844  0.70272622  1
  O2-  O573  1  0.81718454  0.93061742  0.02649274  1
  O2-  O574  1  0.80971752  0.90791913  0.34194508  1
  O2-  O575  1  0.82392334  0.99249762  0.71690562  1
