# generated using pymatgen
data_H2O
_symmetry_space_group_name_H-M   'P 1'
_cell_length_a   17.99009063
_cell_length_b   17.99630778
_cell_length_c   22.00018289
_cell_angle_alpha   89.98378597
_cell_angle_beta   90.00866896
_cell_angle_gamma   120.03142453
_symmetry_Int_Tables_number   1
_chemical_formula_structural   H2O
_chemical_formula_sum   'H384 O192'
_cell_volume   6166.46201139
_cell_formula_units_Z   192
loop_
 _symmetry_equiv_pos_site_id
 _symmetry_equiv_pos_as_xyz
  1  'x, y, z'
loop_
 _atom_type_symbol
 _atom_type_oxidation_number
  H+  1.0
  O2-  -2.0
loop_
 _atom_site_type_symbol
 _atom_site_label
 _atom_site_symmetry_multiplicity
 _atom_site_fract_x
 _atom_site_fract_y
 _atom_site_fract_z
 _atom_site_occupancy
  H+  H0  1  0.33691467  0.42397742  0.90010448  1
  H+  H1  1  0.35523549  0.60812917  0.67673859  1
  H+  H2  1  0.39885196  0.10689197  0.32612924  1
  H+  H3  1  0.63800758  1.01525052  0.51103255  1
  H+  H4  1  0.88726270  0.27667001  0.66608807  1
  H+  H5  1  0.19386669  0.26567191  0.01620470  1
  H+  H6  1  0.11688369  0.72811265  1.01226414  1
  H+  H7  1  0.09953912  0.72179880  0.83199458  1
  H+  H8  1  0.62518982  0.03881594  0.98262577  1
  H+  H9  1  0.36329006  0.96624334  0.01318450  1
  H+  H10  1  0.62774154  0.40423723  0.66740656  1
  H+  H11  1  0.13524702  0.77440519  0.50236317  1
  H+  H12  1  0.36437469  -0.04240719  0.16833518  1
  H+  H13  1  0.45503056  0.59208416  0.17763409  1
  H+  H14  1  0.62188173  0.84405571  0.17188957  1
  H+  H15  1  0.47297028  0.10711346  -0.00382859  1
  H+  H16  1  0.98544204  0.84317748  0.32452898  1
  H+  H17  1  0.35486219  0.13524285  0.83330162  1
  H+  H18  1  0.64666272  0.52425625  0.83351739  1
  H+  H19  1  0.16935687  0.13652190  1.00047204  1
  H+  H20  1  0.11997060  0.48367294  0.34766361  1
  H+  H21  1  0.85167887  0.27134690  0.30917694  1
  H+  H22  1  0.10660167  0.47263087  0.48999892  1
  H+  H23  1  0.88845345  0.07071093  0.35470176  1
  H+  H24  1  0.10786801  0.48524267  0.01364939  1
  H+  H25  1  0.72166688  0.88082825  0.97920134  1
  H+  H26  1  0.07024908  0.41920306  0.11363988  1
  H+  H27  1  0.08169619  0.90032835  0.40382934  1
  H+  H28  1  0.88799069  0.27477611  0.83910085  1
  H+  H29  1  0.34997423  0.17363697  0.17190260  1
  H+  H30  1  0.10591481  0.63588768  0.16414457  1
  H+  H31  1  0.22657051  0.60818010  0.65494496  1
  H+  H32  1  0.20848819  0.60810789  0.17289720  1
  H+  H33  1  0.38190821  0.36148455  0.31997178  1
  H+  H34  1  0.37097703  1.02128256  0.66034986  1
  H+  H35  1  0.61935831  0.71485914  0.01290493  1
  H+  H36  1  0.72969694  0.12256867  0.17360489  1
  H+  H37  1  0.37702185  0.70099772  0.66447794  1
  H+  H38  1  0.13339725  0.92176111  0.69451523  1
  H+  H39  1  0.22566280  0.37106488  0.84912817  1
  H+  H40  1  0.66894053  0.34276571  0.20382541  1
  H+  H41  1  0.35802827  0.51151501  0.18418660  1
  H+  H42  1  0.09187961  0.27414703  0.98452178  1
  H+  H43  1  0.65749269  0.78459897  0.83037166  1
  H+  H44  1  -0.02147562  0.61219298  0.17853084  1
  H+  H45  1  0.35440135  0.71901596  0.48412463  1
  H+  H46  1  -0.03485524  0.12537579  0.18920542  1
  H+  H47  1  0.88543282  0.88054781  0.01270568  1
  H+  H48  1  0.62098053  0.64214111  0.83104829  1
  H+  H49  1  0.87001581  0.62858340  0.68273931  1
  H+  H50  1  0.97951022  0.35689120  0.99860572  1
  H+  H51  1  0.53453173  0.39136797  0.81964865  1
  H+  H52  1  0.38677408  0.27374226  0.31152565  1
  H+  H53  1  0.90006187  0.86325861  0.52830593  1
  H+  H54  1  0.77467694  0.14623657  0.68066462  1
  H+  H55  1  0.47658387  0.61206255  0.32981236  1
  H+  H56  1  0.33712599  0.38733943  0.16679107  1
  H+  H57  1  0.28878429  0.14487022  0.33207448  1
  H+  H58  1  0.84070775  0.97548457  -0.00398462  1
  H+  H59  1  0.91004651  0.34085088  0.89305527  1
  H+  H60  1  0.13051305  0.27449864  0.66285453  1
  H+  H61  1  0.63879355  0.12474072  0.66458382  1
  H+  H62  1  0.86956276  0.46795906  0.04340357  1
  H+  H63  1  0.52712005  0.87959265  0.48596916  1
  H+  H64  1  0.64477462  0.85384832  0.50256271  1
  H+  H65  1  0.59759438  0.61078738  0.49306493  1
  H+  H66  1  0.19587194  0.09848356  0.17255379  1
  H+  H67  1  0.27890152  0.38415514  0.35158598  1
  H+  H68  1  0.10348105  0.71396381  0.67301570  1
  H+  H69  1  0.15991861  0.03807686  0.32249140  1
  H+  H70  1  0.38222569  0.85870060  0.49246846  1
  H+  H71  1  0.77362967  0.62231810  0.83288935  1
  H+  H72  1  0.79947101  0.84667765  0.04898970  1
  H+  H73  1  0.13679316  0.36627838  0.66214580  1
  H+  H74  1  0.97915604  0.85656128  0.17870820  1
  H+  H75  1  0.89019623  0.05309793  0.89426543  1
  H+  H76  1  0.58053025  0.41482681  0.09955207  1
  H+  H77  1  0.84688949  0.35569996  0.31192214  1
  H+  H78  1  0.88438542  1.02197567  0.52392292  1
  H+  H79  1  1.00435553  0.85831364  0.66859601  1
  H+  H80  1  0.72012239  0.35878439  0.65663691  1
  H+  H81  1  0.22481116  0.60727762  0.33694883  1
  H+  H82  1  0.50700420  0.40370633  0.15885112  1
  H+  H83  1  0.36804081  0.75713907  0.18429072  1
  H+  H84  1  0.11864636  0.38755619  0.34462141  1
  H+  H85  1  0.36485128  0.34792672  0.49381292  1
  H+  H86  1  0.37468964  0.02080670  0.84340609  1
  H+  H87  1  0.00274832  0.39226517  0.16615658  1
  H+  H88  1  0.51162095  0.37842841  0.32885776  1
  H+  H89  1  -0.02467187  0.60456473  0.66249999  1
  H+  H90  1  0.01013541  0.13518120  0.49605008  1
  H+  H91  1  0.52603279  0.09705745  0.33729819  1
  H+  H92  1  0.88710575  0.60344347  0.17360129  1
  H+  H93  1  0.68452366  0.11115083  0.81659113  1
  H+  H94  1  0.43285513  0.21095426  0.13184576  1
  H+  H95  1  0.88407177  0.99610369  0.29718729  1
  H+  H96  1  0.36734206  0.47179209  0.34502597  1
  H+  H97  1  0.96610159  0.37332582  0.50848732  1
  H+  H98  1  0.34202536  0.22266150  0.50104359  1
  H+  H99  1  -0.03076839  0.59772038  0.84306290  1
  H+  H100  1  0.84293401  0.37010481  0.11626537  1
  H+  H101  1  0.64475084  0.04046347  0.67361759  1
  H+  H102  1  0.63417180  0.27448349  0.84868088  1
  H+  H103  1  0.13505622  0.61685938  0.84247485  1
  H+  H104  1  0.62675646  0.86896769  0.69357034  1
  H+  H105  1  0.43268150  0.89990217  0.65685141  1
  H+  H106  1  0.53218055  0.62561284  0.01739164  1
  H+  H107  1  0.10861524  0.14435319  0.67681816  1
  H+  H108  1  0.18671222  0.28892569  0.17602611  1
  H+  H109  1  0.38303561  0.25443759  0.65389037  1
  H+  H110  1  0.90590004  0.09575008  0.24625984  1
  H+  H111  1  0.39065197  0.30313836  0.16094426  1
  H+  H112  1  0.22721205  0.86017309  -0.00315252  1
  H+  H113  1  0.47216709  0.59375611  0.67133839  1
  H+  H114  1  0.11753846  0.52196640  0.17744552  1
  H+  H115  1  0.43795143  0.91405808  0.62382345  1
  H+  H116  1  0.78542955  0.14035848  0.84600832  1
  H+  H117  1  0.13590626  0.60902819  0.33665567  1
  H+  H118  1  0.33107048  0.66696432  0.76379911  1
  H+  H119  1  0.63527530  0.93696774  0.02305022  1
  H+  H120  1  0.88620272  0.75936298  0.32601894  1
  H+  H121  1  0.42485708  0.41178087  0.97612987  1
  H+  H122  1  0.46381457  0.11144127  0.84373524  1
  H+  H123  1  0.34236489  0.26252005  0.56554593  1
  H+  H124  1  0.92664310  0.75995302  0.66689738  1
  H+  H125  1  0.76027046  0.37769254  0.11669520  1
  H+  H126  1  0.77190107  0.13159384  0.48275966  1
  H+  H127  1  0.37096074  0.63323176  -0.00360262  1
  H+  H128  1  0.84786500  0.91510179  0.46764907  1
  H+  H129  1  0.47711259  0.86873784  0.84170241  1
  H+  H130  1  0.77990265  0.64553172  0.49860173  1
  H+  H131  1  0.87760876  0.90113868  0.29705309  1
  H+  H132  1  0.59005285  0.93817144  0.75876383  1
  H+  H133  1  0.56941346  0.50395844  0.95841856  1
  H+  H134  1  0.32703323  0.89885659  0.10902083  1
  H+  H135  1  0.13158260  0.86117466  0.19337796  1
  H+  H136  1  0.23056930  0.87638792  0.67470203  1
  H+  H137  1  0.89465638  0.62022199  0.32772815  1
  H+  H138  1  0.26492718  0.37276453  0.67011081  1
  H+  H139  1  0.73289085  0.35176265  1.01323072  1
  H+  H140  1  0.85699610  0.38091804  0.81669663  1
  H+  H141  1  0.21282859  0.08244730  0.99164482  1
  H+  H142  1  0.60015221  0.71146073  0.17081142  1
  H+  H143  1  0.39109532  0.08193519  0.18749154  1
  H+  H144  1  0.77104149  0.63821882  0.34860726  1
  H+  H145  1  0.62157367  0.34815310  0.50320340  1
  H+  H146  1  0.85721080  0.47216121  0.66778043  1
  H+  H147  1  0.26575162  0.13566507  0.67699661  1
  H+  H148  1  0.86480907  0.61104656  0.83483476  1
  H+  H149  1  0.48946684  0.85152198  0.16479192  1
  H+  H150  1  0.63893298  0.61697684  0.17080331  1
  H+  H151  1  0.15190092  0.33241527  0.56403968  1
  H+  H152  1  0.97610492  0.36640781  0.66499436  1
  H+  H153  1  0.09744036  0.88719507  0.83732057  1
  H+  H154  1  0.60207905  0.72332375  0.68814725  1
  H+  H155  1  0.84792576  0.96864154  0.67372863  1
  H+  H156  1  0.48535999  0.09683319  0.17548119  1
  H+  H157  1  0.49128964  0.38304917  0.47267120  1
  H+  H158  1  0.11023188  0.13909373  0.83217958  1
  H+  H159  1  0.13609743  0.27679254  0.33328194  1
  H+  H160  1  0.59250206  0.13205137  0.83351504  1
  H+  H161  1  0.47392338  0.86377045  0.98836859  1
  H+  H162  1  0.49584141  0.38390905  0.98981055  1
  H+  H163  1  0.61464032  0.88866101  0.33475595  1
  H+  H164  1  0.62388451  0.46399903  0.01542785  1
  H+  H165  1  0.36526422  0.50065117  0.99108296  1
  H+  H166  1  0.36577143  0.62981404  0.34008081  1
  H+  H167  1  0.36015173  0.63580819  0.49698596  1
  H+  H168  1  0.46190654  0.69103713  0.56047271  1
  H+  H169  1  0.99969031  0.14880470  0.99116456  1
  H+  H170  1  0.81678889  0.04906582  -0.01296793  1
  H+  H171  1  0.63730548  0.27737742  0.15176621  1
  H+  H172  1  0.12280636  -0.01146760  0.49246914  1
  H+  H173  1  0.64560875  0.76560548  0.50421403  1
  H+  H174  1  0.55392283  0.37988604  0.42258081  1
  H+  H175  1  0.35113294  0.62997374  0.16226068  1
  H+  H176  1  0.03614411  0.89760416  0.49713277  1
  H+  H177  1  0.36140756  0.22715059  0.82835825  1
  H+  H178  1  0.13309078  0.13754435  0.17340154  1
  H+  H179  1  0.14476407  0.81948330  0.59493080  1
  H+  H180  1  0.57675253  0.65424357  0.11119285  1
  H+  H181  1  0.11890290  0.27141761  0.50606589  1
  H+  H182  1  0.88236700  0.11462726  0.66847531  1
  H+  H183  1  0.47932782  0.84989737  0.33125114  1
  H+  H184  1  -0.09024725  0.84586983  -0.07592483  1
  H+  H185  1  0.87953330  0.50671247  0.83283884  1
  H+  H186  1  0.37608639  0.22693823  0.97174118  1
  H+  H187  1  0.34718884  0.72910020  0.00780027  1
  H+  H188  1  0.60804677  0.14074187  1.00162662  1
  H+  H189  1  0.60962741  0.21430361  0.49938026  1
  H+  H190  1  0.61790531  0.64271001  0.68414939  1
  H+  H191  1  0.90351463  0.17952127  0.33231182  1
  H+  H192  1  0.62551086  0.90492277  0.83717877  1
  H+  H193  1  0.22049376  0.11443143  0.84409464  1
  H+  H194  1  0.36352733  0.96962434  0.49194276  1
  H+  H195  1  0.13257251  0.61158147  0.50210558  1
  H+  H196  1  0.86111560  0.63079487  -0.01069706  1
  H+  H197  1  0.38468031  0.50125001  0.66390497  1
  H+  H198  1  0.85857390  0.40161767  0.50258328  1
  H+  H199  1  0.10662441  0.97083664  0.02158884  1
  H+  H200  1  0.62225480  0.38988819  0.82883673  1
  H+  H201  1  0.14192222  0.86758604  0.50427989  1
  H+  H202  1  0.65694220  0.53774090  0.66988518  1
  H+  H203  1  0.41168394  0.57781374  0.27209776  1
  H+  H204  1  0.11182276  0.62954147  0.67521670  1
  H+  H205  1  0.27353756  0.88128958  0.49748525  1
  H+  H206  1  0.36957363  0.84780428  0.18567368  1
  H+  H207  1  0.10208125  0.37962049  0.49389588  1
  H+  H208  1  0.85854552  0.13062700  0.48889419  1
  H+  H209  1  0.35335778  0.88576800  0.82722898  1
  H+  H210  1  0.61130564  0.12647190  0.49939932  1
  H+  H211  1  0.11952961  0.11316409  0.50989551  1
  H+  H212  1  0.61484550  -0.00550031  0.84022955  1
  H+  H213  1  0.87871752  0.53408089  0.93300767  1
  H+  H214  1  0.35910967  0.87649318  0.01034572  1
  H+  H215  1  0.70542478  0.85806122  0.67294704  1
  H+  H216  1  0.85427557  0.14069545  0.16405052  1
  H+  H217  1  0.36905265  0.48883911  0.84655954  1
  H+  H218  1  0.13184103  0.62001599  1.00186096  1
  H+  H219  1  0.21005023  0.85857820  0.84417461  1
  H+  H220  1  0.22549903  0.61962407  0.84057505  1
  H+  H221  1  0.21916256  0.60690932  0.50164926  1
  H+  H222  1  0.60791985  0.22740704  0.01160999  1
  H+  H223  1  0.80702597  0.87940598  0.82540054  1
  H+  H224  1  0.21570691  0.85526977  0.18777051  1
  H+  H225  1  0.60393461  0.22811584  0.67438582  1
  H+  H226  1  0.61205147  0.13695815  0.15902445  1
  H+  H227  1  0.48535069  0.62710702  0.84126644  1
  H+  H228  1  0.11261806  0.47839607  0.67086525  1
  H+  H229  1  0.53049499  0.92733219  0.70212151  1
  H+  H230  1  0.48638846  0.83135739  0.62795976  1
  H+  H231  1  0.90372550  0.78248971  0.97634737  1
  H+  H232  1  0.90655533  0.50418868  0.34560852  1
  H+  H233  1  0.62994977  0.61317172  0.34625556  1
  H+  H234  1  0.03066041  0.64986127  0.33345217  1
  H+  H235  1  0.63080093  0.59244325  0.99138700  1
  H+  H236  1  0.13197741  1.03754636  0.66777438  1
  H+  H237  1  0.92368371  0.59222115  0.26479016  1
  H+  H238  1  0.39526838  0.36897622  0.83792962  1
  H+  H239  1  0.61588677  0.72897384  0.34666995  1
  H+  H240  1  0.76043777  0.13345487  0.00149637  1
  H+  H241  1  -0.02979823  0.11345535  0.66775464  1
  H+  H242  1  0.64179597  1.03369808  0.17575491  1
  H+  H243  1  0.33658566  0.07401708  0.01836691  1
  H+  H244  1  0.89334057  0.62197316  0.50948464  1
  H+  H245  1  -0.04312953  0.87721802  0.82826422  1
  H+  H246  1  0.73276525  0.87021466  0.31243755  1
  H+  H247  1  0.85873935  0.38372604  0.66937196  1
  H+  H248  1  0.52498719  0.63727181  0.50231096  1
  H+  H249  1  0.10464853  -0.01938634  0.83876992  1
  H+  H250  1  0.07045534  0.80543890  0.64069743  1
  H+  H251  1  0.63823712  0.26935553  0.30194685  1
  H+  H252  1  0.35420311  0.24479034  -0.00897810  1
  H+  H253  1  0.78955265  0.64507725  0.68748603  1
  H+  H254  1  0.38402626  0.75069033  0.33494094  1
  H+  H255  1  0.48208990  0.10220642  0.50755079  1
  H+  H256  1  0.02603025  0.39516925  0.82628796  1
  H+  H257  1  0.46835400  0.67508933  0.98038643  1
  H+  H258  1  0.60150043  0.46125354  0.34634473  1
  H+  H259  1  0.10914064  0.22765147  0.83188062  1
  H+  H260  1  0.62277381  0.83436903  0.96520642  1
  H+  H261  1  0.39219217  0.34477022  0.64464827  1
  H+  H262  1  1.02019145  0.13679675  0.33964104  1
  H+  H263  1  0.11418414  0.14541526  0.34361788  1
  H+  H264  1  0.61245925  0.48542929  0.49171447  1
  H+  H265  1  0.61464812  0.34282689  0.30877841  1
  H+  H266  1  0.58508015  0.66661756  0.77289170  1
  H+  H267  1  0.87063715  0.73514253  0.50069664  1
  H+  H268  1  0.77663126  0.87673365  0.51781509  1
  H+  H269  1  0.40677490  0.14837389  0.47828848  1
  H+  H270  1  0.87969207  0.83943402  0.18309612  1
  H+  H271  1  0.87020250  0.27722579  0.16097049  1
  H+  H272  1  0.83967784  0.91841129  0.20975610  1
  H+  H273  1  0.71354053  0.84575208  0.17650533  1
  H+  H274  1  0.85867748  0.20500991  0.00526197  1
  H+  H275  1  0.37763845  0.11140207  0.66076624  1
  H+  H276  1  0.02432464  0.63994415  0.49131811  1
  H+  H277  1  0.62718364  0.37694900  1.02256674  1
  H+  H278  1  0.11518659  0.48460411  0.82907952  1
  H+  H279  1  0.87217933  0.71731617  0.15019792  1
  H+  H280  1  0.11361789  0.39978624  0.01467685  1
  H+  H281  1  0.08993236  0.97847071  0.17581865  1
  H+  H282  1  0.88585607  0.52961367  0.50863462  1
  H+  H283  1  0.29213953  0.40491507  0.00537018  1
  H+  H284  1  0.13653570  0.37126968  0.83936057  1
  H+  H285  1  0.01718069  0.12155005  -0.02112019  1
  H+  H286  1  0.61124850  0.48772042  0.15771867  1
  H+  H287  1  0.10476386  0.72508643  0.16858891  1
  H+  H288  1  0.71843749  0.36603278  0.50354764  1
  H+  H289  1  0.54529037  0.79166291  0.63176707  1
  H+  H290  1  0.07796413  0.17098795  0.73736381  1
  H+  H291  1  0.69685831  0.83987033  0.88816417  1
  H+  H292  1  0.42105529  0.60804082  0.89734669  1
  H+  H293  1  0.18768399  0.98190878  0.05249110  1
  H+  H294  1  0.19357750  0.92012105  0.33979158  1
  H+  H295  1  0.56955198  0.16909722  0.77435676  1
  H+  H296  1  0.69509978  0.61361041  0.61856652  1
  H+  H297  1  0.57256582  0.15496366  0.09834489  1
  H+  H298  1  0.92341567  0.81415894  0.25305040  1
  H+  H299  1  0.12489548  0.73209643  0.33353288  1
  H+  H300  1  0.91841659  0.58529399  0.60171395  1
  H+  H301  1  0.18406858  0.34481602  0.27932082  1
  H+  H302  1  0.61235660  0.51657934  0.55599894  1
  H+  H303  1  0.78342041  0.63536754  0.13391517  1
  H+  H304  1  0.84913207  0.92354296  0.13422360  1
  H+  H305  1  0.32879555  0.96512891  0.34144871  1
  H+  H306  1  0.15674232  0.09031835  0.60438804  1
  H+  H307  1  0.16085880  0.58804638  0.94064188  1
  H+  H308  1  0.44234622  0.35072901  0.88883308  1
  H+  H309  1  0.08463186  0.92158144  0.11830298  1
  H+  H310  1  0.17988022  0.22019481  0.08046210  1
  H+  H311  1  0.87089554  0.13642030  0.83561201  1
  H+  H312  1  0.50911609  0.80082767  0.11678369  1
  H+  H313  1  0.81913601  0.88994756  0.39228296  1
  H+  H314  1  0.08418311  0.67165445  0.43125193  1
  H+  H315  1  0.62959393  0.08131295  0.26625818  1
  H+  H316  1  0.36559493  0.64585468  0.82375186  1
  H+  H317  1  0.16061096  0.08659465  0.90407010  1
  H+  H318  1  0.40816257  0.81707863  0.27230848  1
  H+  H319  1  0.08267206  0.41322663  0.40935724  1
  H+  H320  1  0.65855526  0.32945542  0.59847113  1
  H+  H321  1  0.15250562  0.33236518  0.93187834  1
  H+  H322  1  0.41240689  0.07690937  0.56161885  1
  H+  H323  1  0.16413071  0.58188870  0.59678298  1
  H+  H324  1  0.81202147  0.92796987  0.39527824  1
  H+  H325  1  0.59201996  0.91550425  0.43177381  1
  H+  H326  1  0.31863711  0.87903977  0.67292177  1
  H+  H327  1  0.08570681  0.66934041  0.07233056  1
  H+  H328  1  0.65652557  0.82514490  0.26799816  1
  H+  H329  1  0.57901760  0.66591909  0.40552275  1
  H+  H330  1  0.25559327  0.63806891  0.00865778  1
  H+  H331  1  0.72592831  0.35938979  0.84155593  1
  H+  H332  1  0.83512899  0.90251168  0.72512537  1
  H+  H333  1  0.33451084  0.65848005  0.40057697  1
  H+  H334  1  0.21536027  0.14333233  0.52410237  1
  H+  H335  1  0.38733786  0.40673249  0.43577419  1
  H+  H336  1  0.45901317  0.24841362  0.46095336  1
  H+  H337  1  0.84224833  0.43461233  0.44010174  1
  H+  H338  1  0.08540087  0.93471396  0.75095922  1
  H+  H339  1  0.08160247  0.20607178  0.13668473  1
  H+  H340  1  0.82368965  0.41053397  0.75819140  1
  H+  H341  1  0.42386975  0.59606847  0.57857378  1
  H+  H342  1  0.60481407  0.43388697  0.72928651  1
  H+  H343  1  0.83721736  0.67537620  0.40415233  1
  H+  H344  1  0.67092904  0.57756577  0.89494436  1
  H+  H345  1  0.31194169  0.91175905  0.77225809  1
  H+  H346  1  0.08624538  0.42367952  0.73269285  1
  H+  H347  1  0.64512789  0.56754809  0.29119560  1
  H+  H348  1  0.68657142  0.33912280  0.94729601  1
  H+  H349  1  0.86456458  0.19458041  0.39234207  1
  H+  H350  1  0.16856634  0.09923565  0.26875257  1
  H+  H351  1  0.36411317  0.17973475  0.38324061  1
  H+  H352  1  0.87078818  0.33189743  0.21657136  1
  H+  H353  1  0.28884978  0.90608454  0.39822267  1
  H+  H354  1  0.07060045  0.16574826  0.43568716  1
  H+  H355  1  0.97112579  0.10762864  0.84834704  1
  H+  H356  1  0.91421794  0.09134806  0.57545683  1
  H+  H357  1  0.66867603  0.07847394  0.56900173  1
  H+  H358  1  0.65965062  0.09600592  0.92174111  1
  H+  H359  1  0.85654177  0.67722609  0.04746615  1
  H+  H360  1  0.51696977  0.13718338  0.67451021  1
  H+  H361  1  0.38752711  0.77927930  0.83456587  1
  H+  H362  1  0.94962581  0.45419803  0.37411748  1
  H+  H363  1  0.56371148  0.91798944  0.06990391  1
  H+  H364  1  0.81952064  0.15512789  0.09935781  1
  H+  H365  1  0.32413548  0.66602232  0.10356039  1
  H+  H366  1  0.96338981  0.29122688  0.94800825  1
  H+  H367  1  0.83372633  0.17092416  0.74047283  1
  H+  H368  1  0.41238762  0.34875823  0.22696106  1
  H+  H369  1  0.31144766  0.12037745  0.07000252  1
  H+  H370  1  0.41283248  0.83251533  0.92959816  1
  H+  H371  1  0.14235249  0.86509618  1.00271195  1
  H+  H372  1  0.59124876  0.96581251  0.33394432  1
  H+  H373  1  0.94556132  0.82533768  0.57274576  1
  H+  H374  1  0.84266410  0.65528104  0.77260667  1
  H+  H375  1  0.70627586  0.60085760  0.21037458  1
  H+  H376  1  0.15413055  0.82972836  0.90434609  1
  H+  H377  1  0.41518066  0.82336001  0.54626161  1
  H+  H378  1  0.07628572  0.66219099  0.77233955  1
  H+  H379  1  0.32496192  0.16062039  0.73721835  1
  H+  H380  1  0.42387925  0.06052960  0.27575645  1
  H+  H381  1  0.91429604  0.34923462  0.57103939  1
  H+  H382  1  0.32440811  0.39156345  0.72808902  1
  H+  H383  1  0.41018827  0.07263294  0.93724105  1
  O2-  O384  1  0.13647018  0.21079387  0.14646433  1
  O2-  O385  1  0.07101106  0.16487936  0.48111409  1
  O2-  O386  1  0.07758608  0.16733906  0.81741307  1
  O2-  O387  1  0.06563721  0.41985393  0.15825113  1
  O2-  O388  1  0.07487112  0.41274481  0.47402820  1
  O2-  O389  1  0.08700395  0.42437835  0.81268701  1
  O2-  O390  1  0.07536162  0.66737302  0.14890344  1
  O2-  O391  1  0.08526779  0.67073358  0.47663148  1
  O2-  O392  1  0.07314518  0.66089622  0.81768215  1
  O2-  O393  1  0.06978482  0.91793871  0.16267432  1
  O2-  O394  1  0.09473004  0.92736556  0.47850189  1
  O2-  O395  1  0.07097112  0.92077294  0.82159071  1
  O2-  O396  1  0.37476765  0.20242938  0.13343592  1
  O2-  O397  1  0.40293795  0.19559628  0.45636046  1
  O2-  O398  1  0.32565789  0.16573279  0.81634736  1
  O2-  O399  1  0.29511740  0.40783927  0.16229191  1
  O2-  O400  1  0.41120341  0.40154006  0.47492591  1
  O2-  O401  1  0.33726135  0.42557528  0.85499972  1
  O2-  O402  1  0.32718856  0.66660972  0.14885782  1
  O2-  O403  1  0.32527833  0.65609851  0.47450176  1
  O2-  O404  1  0.33276210  0.67352994  0.80889791  1
  O2-  O405  1  0.32635792  0.89730421  0.15445435  1
  O2-  O406  1  0.33122007  0.90814022  0.47770203  1
  O2-  O407  1  0.31906505  0.91384467  0.81700200  1
  O2-  O408  1  0.57194418  0.15633669  0.14396547  1
  O2-  O409  1  0.57701808  0.15346302  0.48670857  1
  O2-  O410  1  0.56654441  0.16806875  0.81967999  1
  O2-  O411  1  0.56988549  0.42649315  0.14510444  1
  O2-  O412  1  0.54313663  0.37466193  0.46766830  1
  O2-  O413  1  0.59716861  0.42322361  0.81002376  1
  O2-  O414  1  0.57285586  0.65026015  0.15633562  1
  O2-  O415  1  0.57933174  0.65215576  0.48030248  1
  O2-  O416  1  0.59007844  0.67259563  0.81864928  1
  O2-  O417  1  0.53706461  0.85693488  0.13667161  1
  O2-  O418  1  0.58946246  0.91007172  0.47679877  1
  O2-  O419  1  0.58650949  0.92697108  0.82748664  1
  O2-  O420  1  0.82038184  0.16460218  0.14407830  1
  O2-  O421  1  0.82840351  0.15264467  0.46349396  1
  O2-  O422  1  0.83983430  0.16982454  0.82373600  1
  O2-  O423  1  0.80790609  0.38531256  0.08892316  1
  O2-  O424  1  0.82747493  0.43076441  0.48405580  1
  O2-  O425  1  0.82538216  0.41093928  0.80413194  1
  O2-  O426  1  0.84568319  0.66229298  0.12773140  1
  O2-  O427  1  0.83835358  0.67555578  0.48209860  1
  O2-  O428  1  0.83687261  0.64718726  0.81922420  1
  O2-  O429  1  0.82224431  0.88557215  0.16926337  1
  O2-  O430  1  0.84188725  0.91075466  0.51191679  1
  O2-  O431  1  0.86614105  0.90199744  0.80847745  1
  O2-  O432  1  0.14262862  0.08700315  0.19210834  1
  O2-  O433  1  0.15676081  0.09074535  0.52658935  1
  O2-  O434  1  0.15945926  0.08468132  0.85808091  1
  O2-  O435  1  0.22556854  0.34734911  0.20296010  1
  O2-  O436  1  0.14597747  0.33251953  0.51927511  1
  O2-  O437  1  0.16271446  0.33836906  0.85752559  1
  O2-  O438  1  0.14974000  0.58506770  0.18801032  1
  O2-  O439  1  0.15951667  0.57850846  0.51813491  1
  O2-  O440  1  0.16613179  0.58720350  0.85725065  1
  O2-  O441  1  0.15684962  0.82560812  0.20443740  1
  O2-  O442  1  0.16651954  0.83299296  0.52143692  1
  O2-  O443  1  0.14950810  0.82860746  0.85877607  1
  O2-  O444  1  0.42746343  0.05782040  0.19680902  1
  O2-  O445  1  0.41740898  0.07311573  0.51691471  1
  O2-  O446  1  0.40365574  0.08005657  0.86057788  1
  O2-  O447  1  0.41507656  0.35990548  0.18091526  1
  O2-  O448  1  0.30865736  0.24181355  0.52619836  1
  O2-  O449  1  0.42739735  0.33815003  0.84504859  1
  O2-  O450  1  0.39770764  0.57350840  0.19520664  1
  O2-  O451  1  0.43966528  0.63401091  0.54175115  1
  O2-  O452  1  0.42295329  0.59948161  0.85299161  1
  O2-  O453  1  0.40004204  0.81720430  0.20246213  1
  O2-  O454  1  0.41296772  0.82501780  0.50203302  1
  O2-  O455  1  0.41455549  0.83829252  0.85253918  1
  O2-  O456  1  0.66777848  0.09278180  0.18982584  1
  O2-  O457  1  0.66568972  0.07623275  0.52401326  1
  O2-  O458  1  0.64673607  0.08194140  0.85090381  1
  O2-  O459  1  0.67041325  0.33976763  0.15883540  1
  O2-  O460  1  0.65941396  0.32847996  0.52038029  1
  O2-  O461  1  0.66972235  0.33496744  0.86331611  1
  O2-  O462  1  0.67452200  0.58709259  0.17227300  1
  O2-  O463  1  0.63805114  0.53936857  0.51632424  1
  O2-  O464  1  0.67899659  0.58499684  0.84988298  1
  O2-  O465  1  0.65183569  0.81566336  0.18985191  1
  O2-  O466  1  0.67442534  0.82487603  0.52011909  1
  O2-  O467  1  0.69463200  0.84536828  0.84389706  1
  O2-  O468  1  0.90477124  0.09727149  0.20041488  1
  O2-  O469  1  0.91263855  0.08500497  0.53004286  1
  O2-  O470  1  0.90814990  0.08074094  0.85427963  1
  O2-  O471  1  0.89055872  0.33759183  0.17265208  1
  O2-  O472  1  0.91074912  0.35931033  0.52711742  1
  O2-  O473  1  0.91465948  0.33795524  0.84845750  1
  O2-  O474  1  0.91918502  0.58209444  0.19711513  1
  O2-  O475  1  0.92266041  0.59089897  0.52392212  1
  O2-  O476  1  0.90693293  0.56406535  0.85480021  1
  O2-  O477  1  0.91733003  0.81448265  0.19503593  1
  O2-  O478  1  0.93387750  0.83259872  0.52922875  1
  O2-  O479  1  0.89393307  0.84631579  0.83774140  1
  O2-  O480  1  0.18024582  0.09930177  0.31327274  1
  O2-  O481  1  0.16255623  0.09630351  0.64990971  1
  O2-  O482  1  0.16013950  0.08281784  0.97871246  1
  O2-  O483  1  0.17097319  0.34021421  0.32341654  1
  O2-  O484  1  0.16541710  0.33458585  0.64675670  1
  O2-  O485  1  0.14633662  0.32704480  0.97780262  1
  O2-  O486  1  0.16185507  0.57185788  0.33225002  1
  O2-  O487  1  0.16540565  0.58215595  0.64238600  1
  O2-  O488  1  0.16234017  0.58732153  0.98572626  1
  O2-  O489  1  0.14498268  0.93114977  0.32600729  1
  O2-  O490  1  0.12967460  0.81312382  0.63977124  1
  O2-  O491  1  0.16715220  0.83395250  0.98120018  1
  O2-  O492  1  0.41921143  0.06501828  0.32049589  1
  O2-  O493  1  0.40719045  0.08023165  0.64517019  1
  O2-  O494  1  0.41241475  0.06770851  0.98261779  1
  O2-  O495  1  0.41239941  0.33520500  0.29743444  1
  O2-  O496  1  0.40531353  0.30365619  0.62512901  1
  O2-  O497  1  0.47300973  0.40659181  0.95860654  1
  O2-  O498  1  0.41494383  0.57914755  0.31767225  1
  O2-  O499  1  0.41350302  0.56379085  0.65298941  1
  O2-  O500  1  0.41628371  0.61899234  0.97891028  1
  O2-  O501  1  0.41553398  0.81528324  0.31877214  1
  O2-  O502  1  0.48639495  0.77817764  0.61910123  1
  O2-  O503  1  0.41343520  0.83010415  0.97538491  1
  O2-  O504  1  0.58812332  0.04831169  0.29922057  1
  O2-  O505  1  0.67262625  0.09679301  0.65228431  1
  O2-  O506  1  0.66118271  0.09825364  0.96838071  1
  O2-  O507  1  0.63385877  0.31393867  0.27980587  1
  O2-  O508  1  0.65853255  0.33107598  0.64402445  1
  O2-  O509  1  0.67761042  0.33150606  0.99210362  1
  O2-  O510  1  0.65877832  0.57887078  0.33420890  1
  O2-  O511  1  0.68746817  0.60436290  0.66227462  1
  O2-  O512  1  0.63102324  0.54619972  0.96738958  1
  O2-  O513  1  0.66891684  0.83552425  0.31238221  1
  O2-  O514  1  0.64070530  0.82835878  0.67320761  1
  O2-  O515  1  0.66913994  0.82310130  0.97490411  1
  O2-  O516  1  0.92368995  0.08097895  0.31854272  1
  O2-  O517  1  0.90996053  0.08263240  0.65211393  1
  O2-  O518  1  0.81200120  -0.00320129  0.96796281  1
  O2-  O519  1  0.83188179  0.30594723  0.28571937  1
  O2-  O520  1  0.91521742  0.33702239  0.65070640  1
  O2-  O521  1  0.93188027  0.31093033  0.97299329  1
  O2-  O522  1  0.93057660  0.59742889  0.31205615  1
  O2-  O523  1  0.91501504  0.57941048  0.64723165  1
  O2-  O524  1  0.84844876  0.52017700  0.97283964  1
  O2-  O525  1  0.92571628  0.81765913  0.30529768  1
  O2-  O526  1  0.97394874  0.80609593  0.64242562  1
  O2-  O527  1  0.92668167  0.84454632  0.96644582  1
  O2-  O528  1  0.20719042  0.22682046  0.03880134  1
  O2-  O529  1  0.08177721  0.17396423  0.35619487  1
  O2-  O530  1  0.07654674  0.17297809  0.69200668  1
  O2-  O531  1  0.07803504  0.42419577  0.02838895  1
  O2-  O532  1  0.08759975  0.41778482  0.36089327  1
  O2-  O533  1  0.08310643  0.41865570  0.68749725  1
  O2-  O534  1  0.09153769  0.66838365  0.02706207  1
  O2-  O535  1  0.09050613  0.67520938  0.35143905  1
  O2-  O536  1  0.07863020  0.65604229  0.69200787  1
  O2-  O537  1  0.12544353  0.93855372  0.04768868  1
  O2-  O538  1  0.07100173  0.87139526  0.36271984  1
  O2-  O539  1  0.09258963  0.94062184  0.70471240  1
  O2-  O540  1  0.28709763  0.07292958  0.04071086  1
  O2-  O541  1  0.35247825  0.17447098  0.33842540  1
  O2-  O542  1  0.32583993  0.15785599  0.69187211  1
  O2-  O543  1  0.34568308  0.43970897  -0.01692210  1
  O2-  O544  1  0.34190625  0.41120733  0.35890256  1
  O2-  O545  1  0.32678184  0.39763871  0.68405162  1
  O2-  O546  1  0.31830334  0.66947697  0.02429351  1
  O2-  O547  1  0.33776029  0.66344235  0.35470920  1
  O2-  O548  1  0.33276050  0.64855901  0.68462341  1
  O2-  O549  1  0.33063476  0.90615525  0.02915369  1
  O2-  O550  1  0.27596088  0.91267822  0.35555359  1
  O2-  O551  1  0.29046298  0.90822631  0.69071606  1
  O2-  O552  1  0.57479385  0.16495968  0.02218882  1
  O2-  O553  1  0.58874313  0.11547160  0.33783831  1
  O2-  O554  1  0.57617080  0.16846025  0.69157906  1
  O2-  O555  1  0.59492265  0.40687704  0.03606187  1
  O2-  O556  1  0.56870583  0.39800634  0.34885427  1
  O2-  O557  1  0.61064637  0.44481966  0.68481235  1
  O2-  O558  1  0.59148589  0.65728312  0.03226200  1
  O2-  O559  1  0.58241257  0.66776612  0.35969416  1
  O2-  O560  1  0.57676031  0.66080293  0.69851328  1
  O2-  O561  1  0.57976604  0.93393052  0.02640783  1
  O2-  O562  1  0.57505807  0.90790145  0.35111011  1
  O2-  O563  1  0.58918952  0.94184057  0.71172385  1
  O2-  O564  1  0.81677309  0.14606259  0.01926377  1
  O2-  O565  1  0.89101678  0.22072633  0.35233737  1
  O2-  O566  1  0.83551140  0.17365289  0.69543842  1
  O2-  O567  1  0.90911043  0.50982456  0.01161538  1
  O2-  O568  1  0.89419437  0.45047599  0.36814531  1
  O2-  O569  1  0.82481258  0.41163720  0.68273928  1
  O2-  O570  1  0.85401667  0.67914588  0.00258137  1
  O2-  O571  1  0.83337811  0.67179772  0.35860504  1
  O2-  O572  1  0.84931075  0.66541660  0.70296633  1
  O2-  O573  1  0.85287043  0.89998100  0.04131351  1
  O2-  O574  1  0.84804069  0.93000376  0.28093448  1
  O2-  O575  1  0.81403009  0.90690657  0.68468801  1
