# generated using pymatgen
data_H2O
_symmetry_space_group_name_H-M   'P 1'
_cell_length_a   17.99676473
_cell_length_b   17.99222965
_cell_length_c   21.99845934
_cell_angle_alpha   90.00277385
_cell_angle_beta   90.00125805
_cell_angle_gamma   120.01336217
_symmetry_Int_Tables_number   1
_chemical_formula_structural   H2O
_chemical_formula_sum   'H384 O192'
_cell_volume   6167.99239757
_cell_formula_units_Z   192
loop_
 _symmetry_equiv_pos_site_id
 _symmetry_equiv_pos_as_xyz
  1  'x, y, z'
loop_
 _atom_type_symbol
 _atom_type_oxidation_number
  H+  1.0
  O2-  -2.0
loop_
 _atom_site_type_symbol
 _atom_site_label
 _atom_site_symmetry_multiplicity
 _atom_site_fract_x
 _atom_site_fract_y
 _atom_site_fract_z
 _atom_site_occupancy
  H+  H0  1  0.53568773  0.64621508  0.33985037  1
  H+  H1  1  0.10429882  0.12357022  0.34080596  1
  H+  H2  1  0.37091363  0.22933419  0.48789534  1
  H+  H3  1  0.37810979  0.73891263  0.49730449  1
  H+  H4  1  0.35794969  -0.00191096  0.50133466  1
  H+  H5  1  0.39814059  0.86884125  0.20044051  1
  H+  H6  1  0.34173375  0.68870378  0.09723251  1
  H+  H7  1  0.60051631  0.64221638  0.16326533  1
  H+  H8  1  0.89883454  0.78646947  0.17273710  1
  H+  H9  1  0.87939721  0.22376642  0.00538377  1
  H+  H10  1  0.13049930  0.33886562  0.50935315  1
  H+  H11  1  0.63269400  0.77997410  0.17164126  1
  H+  H12  1  0.18985901  0.84449387  0.67783595  1
  H+  H13  1  0.62910236  0.60539338  0.33103579  1
  H+  H14  1  0.75941187  0.11871818  0.67534294  1
  H+  H15  1  0.91212865  0.58064457  0.89604795  1
  H+  H16  1  0.85818705  0.21311029  0.82757276  1
  H+  H17  1  -0.02943475  0.34764829  0.32215637  1
  H+  H18  1  0.27506474  0.38580258  0.83141647  1
  H+  H19  1  1.01551178  0.12623906  0.34124970  1
  H+  H20  1  0.38392745  0.61904406  0.16544051  1
  H+  H21  1  0.88561579  0.10259489  0.99677801  1
  H+  H22  1  0.39745024  0.50533448  0.84411065  1
  H+  H23  1  0.49158535  0.60262737  0.83887845  1
  H+  H24  1  0.27948656  0.44804533  0.45507197  1
  H+  H25  1  0.87264995  0.39400663  0.15412387  1
  H+  H26  1  0.13668228  0.78852719  0.33444929  1
  H+  H27  1  0.62010530  0.63647156  0.82624243  1
  H+  H28  1  0.10950581  0.65319779  0.49595737  1
  H+  H29  1  0.22207522  0.34504643  0.51545498  1
  H+  H30  1  0.81324083  0.36320715  0.01197489  1
  H+  H31  1  0.37606546  0.65526860  0.33470644  1
  H+  H32  1  0.89568713  0.62909225  0.33003853  1
  H+  H33  1  0.34972163  0.36350762  0.82488586  1
  H+  H34  1  0.41256338  0.13005339  0.83313688  1
  H+  H35  1  0.14023119  0.86001532  0.98703791  1
  H+  H36  1  0.23886665  0.37444102  0.16301141  1
  H+  H37  1  0.50840556  0.15549110  0.31689111  1
  H+  H38  1  0.13117681  0.11156816  0.84198570  1
  H+  H39  1  0.27587260  0.88765146  0.01726862  1
  H+  H40  1  0.85663586  0.13361500  0.16432106  1
  H+  H41  1  0.40970898  0.38221756  0.31825344  1
  H+  H42  1  0.71821658  0.36140230  0.49974869  1
  H+  H43  1  0.62321515  0.27638202  1.00718221  1
  H+  H44  1  0.87888678  0.51169766  -0.02136126  1
  H+  H45  1  0.48724150  0.37188497  0.16504568  1
  H+  H46  1  0.13772768  0.27831662  0.84537277  1
  H+  H47  1  0.10764503  0.37984944  0.48049671  1
  H+  H48  1  0.38809621  0.36090168  0.50581023  1
  H+  H49  1  0.15036802  0.25534393  0.32254192  1
  H+  H50  1  0.28974418  0.40296304  1.00152928  1
  H+  H51  1  0.39795412  0.54409422  0.32038426  1
  H+  H52  1  0.11041567  0.97813809  0.82952958  1
  H+  H53  1  0.73511377  0.61744379  0.83722236  1
  H+  H54  1  0.84547061  0.10105406  0.68165717  1
  H+  H55  1  0.17726389  0.83772449  0.15268062  1
  H+  H56  1  0.14037799  0.77154516  -0.01488771  1
  H+  H57  1  0.62564882  0.24683972  0.83911397  1
  H+  H58  1  0.13024944  0.49816552  1.00524784  1
  H+  H59  1  0.27177029  0.89060541  0.34187738  1
  H+  H60  1  0.61373561  0.38602281  0.67097619  1
  H+  H61  1  0.38030961  0.88635136  0.67452897  1
  H+  H62  1  0.22521642  0.26601578  0.28227637  1
  H+  H63  1  0.47888644  0.36629206  0.50574147  1
  H+  H64  1  0.85043714  0.88716670  0.16147059  1
  H+  H65  1  0.21591744  0.60888315  0.83694897  1
  H+  H66  1  0.13606497  0.11503601  0.48947372  1
  H+  H67  1  0.14872630  1.01209660  -0.00892283  1
  H+  H68  1  0.82127103  0.66241271  0.40029552  1
  H+  H69  1  0.38892065  0.51774389  0.66378625  1
  H+  H70  1  0.86648240  0.73324244  0.82539932  1
  H+  H71  1  0.38830132  0.53130213  0.16780359  1
  H+  H72  1  0.48437107  0.87331245  0.50195628  1
  H+  H73  1  0.58628198  0.66697365  0.76847823  1
  H+  H74  1  0.53362452  0.13934130  0.65909698  1
  H+  H75  1  0.02308350  0.88296067  -0.00254790  1
  H+  H76  1  0.85858885  -0.00774232  0.67279929  1
  H+  H77  1  0.11818261  0.63651370  -0.00772461  1
  H+  H78  1  -0.02396089  0.86321661  0.83941105  1
  H+  H79  1  0.14230174  1.02170355  0.49759658  1
  H+  H80  1  0.12133346  0.65565963  0.34823268  1
  H+  H81  1  0.52500914  0.88801731  0.17810528  1
  H+  H82  1  0.11494411  0.39027879  0.82584926  1
  H+  H83  1  0.64685961  0.52802331  0.83630025  1
  H+  H84  1  0.47336143  0.30793578  0.83945529  1
  H+  H85  1  0.36640426  -0.02740493  1.01652531  1
  H+  H86  1  0.72610936  0.86476374  0.64367187  1
  H+  H87  1  0.86045727  0.64304664  0.49533549  1
  H+  H88  1  0.61583060  0.72945750  0.49157231  1
  H+  H89  1  0.12928178  0.77933376  0.51448743  1
  H+  H90  1  0.61316258  0.89000014  0.16703327  1
  H+  H91  1  0.31020317  0.03027312  0.54237152  1
  H+  H92  1  0.08889666  0.87533062  0.68073228  1
  H+  H93  1  0.23956253  0.63146089  0.98720065  1
  H+  H94  1  0.39596586  0.61816385  0.51141247  1
  H+  H95  1  0.88889801  0.86088968  -0.00670867  1
  H+  H96  1  0.63854254  0.61532779  0.51121738  1
  H+  H97  1  0.88611376  0.86297687  0.84054130  1
  H+  H98  1  0.13448859  0.02154614  0.33022990  1
  H+  H99  1  0.37561945  0.23375316  0.15168066  1
  H+  H100  1  0.73408564  0.10151514  0.33272339  1
  H+  H101  1  0.52984060  0.63801909  0.49621374  1
  H+  H102  1  0.17892834  0.00632580  0.68393606  1
  H+  H103  1  0.88415889  0.86573398  0.51124884  1
  H+  H104  1  0.58091418  0.30041846  0.22312731  1
  H+  H105  1  0.84717758  0.34130585  0.52446461  1
  H+  H106  1  0.13965300  0.09515699  -0.00606779  1
  H+  H107  1  0.61892449  0.24625328  0.32837472  1
  H+  H108  1  0.88218208  0.63050540  0.65858013  1
  H+  H109  1  0.95916210  0.10462076  0.17656399  1
  H+  H110  1  0.86378292  0.21126334  0.34820893  1
  H+  H111  1  0.52211263  0.89555989  0.32853581  1
  H+  H112  1  0.88578733  0.01784628  0.84323509  1
  H+  H113  1  0.88455649  0.27184471  0.16958807  1
  H+  H114  1  0.84676400  0.72081658  0.34143013  1
  H+  H115  1  0.62136263  0.13749864  0.16666016  1
  H+  H116  1  0.20217108  0.17159464  0.64020593  1
  H+  H117  1  0.14694583  0.62622008  0.19248962  1
  H+  H118  1  0.67250320  0.08569261  0.91595062  1
  H+  H119  1  0.24503364  0.06407963  0.63418527  1
  H+  H120  1  0.61731459  0.63870980  0.67442127  1
  H+  H121  1  0.82286817  0.40281318  0.79270323  1
  H+  H122  1  0.64054166  0.27892608  0.65588223  1
  H+  H123  1  0.17832830  0.59070781  0.28229250  1
  H+  H124  1  0.39937699  0.03121357  0.16945737  1
  H+  H125  1  0.33373397  0.66109980  0.59303382  1
  H+  H126  1  0.70661514  0.37113395  0.00780444  1
  H+  H127  1  0.96641196  0.86688878  0.66725649  1
  H+  H128  1  0.76723691  0.85087502  0.70855263  1
  H+  H129  1  0.63516169  0.02521930  0.17745828  1
  H+  H130  1  0.14319876  0.54740951  0.50157819  1
  H+  H131  1  0.67714147  0.08306932  0.27258101  1
  H+  H132  1  0.48888793  0.61891794  0.98922421  1
  H+  H133  1  0.61476249  0.98120935  0.33593854  1
  H+  H134  1  0.07800902  0.86460310  0.16133339  1
  H+  H135  1  0.11170140  0.88838879  0.82938421  1
  H+  H136  1  0.97227229  0.59747222  0.97462402  1
  H+  H137  1  0.64940847  0.12375188  1.00482777  1
  H+  H138  1  0.48348620  0.86455869  0.64126303  1
  H+  H139  1  0.46775941  0.35180663  -0.00415421  1
  H+  H140  1  0.64564164  0.11776124  0.65580452  1
  H+  H141  1  0.61429172  0.72573424  0.66934179  1
  H+  H142  1  0.37824735  0.73512970  0.98583284  1
  H+  H143  1  0.42620514  0.10752859  0.25177761  1
  H+  H144  1  0.82693351  0.64374118  0.16333170  1
  H+  H145  1  0.12712128  0.60899551  0.84099970  1
  H+  H146  1  0.10583795  0.16082104  0.16054003  1
  H+  H147  1  0.11013632  0.89114269  0.50395694  1
  H+  H148  1  0.22260603  0.86096691  0.51406196  1
  H+  H149  1  0.96062313  0.37175906  0.67633572  1
  H+  H150  1  0.16459575  0.14012664  0.62117396  1
  H+  H151  1  0.63333943  0.87247599  0.31867057  1
  H+  H152  1  0.36658003  0.97763691  0.82819403  1
  H+  H153  1  0.63022642  0.52510062  0.99252210  1
  H+  H154  1  0.15942347  0.31278296  1.00875123  1
  H+  H155  1  0.87296871  0.86141109  0.67087396  1
  H+  H156  1  0.85274702  0.97017195  0.50147729  1
  H+  H157  1  0.53061128  0.13953564  0.01112223  1
  H+  H158  1  0.57627883  0.41452117  0.75804140  1
  H+  H159  1  0.72399364  0.86496818  0.49872434  1
  H+  H160  1  0.60424572  0.22785864  0.47625805  1
  H+  H161  1  0.61297389  0.97543236  0.63697029  1
  H+  H162  1  0.64826880  0.03279584  1.00734862  1
  H+  H163  1  0.11580224  0.26935643  0.67325786  1
  H+  H164  1  0.47851334  0.84409720  0.90793493  1
  H+  H165  1  0.86757114  0.10037546  0.51322978  1
  H+  H166  1  0.09886411  0.88757774  0.34718675  1
  H+  H167  1  0.53499835  0.38629979  0.33871185  1
  H+  H168  1  0.36695693  0.85107375  0.86898359  1
  H+  H169  1  0.49389398  0.12012237  0.83094712  1
  H+  H170  1  0.97407916  0.62071274  0.50698868  1
  H+  H171  1  0.30279844  0.89443970  0.17642271  1
  H+  H172  1  0.31060197  0.14033012  0.71592447  1
  H+  H173  1  0.03189982  0.39219783  0.44049952  1
  H+  H174  1  0.37614948  0.23786809  0.69832559  1
  H+  H175  1  0.64036610  0.77117920  0.84920664  1
  H+  H176  1  0.29634337  0.39211606  0.33182204  1
  H+  H177  1  0.86398923  0.73027317  0.00822882  1
  H+  H178  1  0.17154951  0.76784827  0.19593269  1
  H+  H179  1  -0.02970963  0.61544184  0.66117752  1
  H+  H180  1  0.07629181  0.66317230  0.76966890  1
  H+  H181  1  0.38919298  0.77925139  0.30151741  1
  H+  H182  1  0.04802473  0.40190747  0.00223466  1
  H+  H183  1  0.33928258  0.71707485  0.83987405  1
  H+  H184  1  0.28479053  0.65397159  0.49513421  1
  H+  H185  1  0.59566632  0.95648674  0.86788570  1
  H+  H186  1  0.39532577  0.14062554  0.31182842  1
  H+  H187  1  0.71927044  0.60578151  0.32586490  1
  H+  H188  1  0.74237170  0.37058476  0.34855274  1
  H+  H189  1  0.16698387  0.08194317  0.26986086  1
  H+  H190  1  0.76569536  0.39879400  0.69546435  1
  H+  H191  1  0.09371090  0.18138700  -0.00230977  1
  H+  H192  1  0.09320366  0.71198187  0.67546001  1
  H+  H193  1  0.68895821  0.15738326  0.51697670  1
  H+  H194  1  0.03262690  0.65827945  0.34406678  1
  H+  H195  1  0.61204092  0.47998152  0.49672126  1
  H+  H196  1  0.88588976  0.48855180  0.15577098  1
  H+  H197  1  0.15982325  0.94971086  0.14716476  1
  H+  H198  1  0.88664901  0.10654271  0.33577454  1
  H+  H199  1  0.21711559  0.61020950  0.65049855  1
  H+  H200  1  0.34727501  0.23510847  0.79040723  1
  H+  H201  1  0.92269050  0.36898234  0.98160641  1
  H+  H202  1  0.58571427  0.13183759  0.46974132  1
  H+  H203  1  0.92790586  0.33896664  0.54534116  1
  H+  H204  1  0.62056632  0.89945334  1.01488374  1
  H+  H205  1  0.86087642  0.73194727  0.49678407  1
  H+  H206  1  0.10344575  0.39045326  0.67456679  1
  H+  H207  1  0.51538934  0.64654651  0.15578659  1
  H+  H208  1  -0.03116806  0.88530477  0.18160085  1
  H+  H209  1  0.36556828  0.73454209  0.16340528  1
  H+  H210  1  0.09651496  0.62470832  0.67375725  1
  H+  H211  1  0.01951496  0.14020750  0.83985264  1
  H+  H212  1  -0.02556434  0.35969472  0.17393569  1
  H+  H213  1  0.35907041  0.87748525  0.49266409  1
  H+  H214  1  0.35997451  0.48703541  0.49678829  1
  H+  H215  1  0.64061761  0.52530554  0.66299929  1
  H+  H216  1  0.39478740  0.10945085  0.98734484  1
  H+  H217  1  0.00439342  0.09735146  0.00111699  1
  H+  H218  1  -0.02519880  0.34960497  0.83383262  1
  H+  H219  1  0.10428349  0.39527683  0.28918704  1
  H+  H220  1  0.61204200  0.88538597  0.63381974  1
  H+  H221  1  0.26691362  0.38271157  0.67924598  1
  H+  H222  1  0.02172314  0.89448552  0.50573893  1
  H+  H223  1  0.31254604  0.91391271  0.65913826  1
  H+  H224  1  0.37299115  0.14217584  0.15111889  1
  H+  H225  1  0.52460723  0.43313024  0.80841888  1
  H+  H226  1  0.62009722  0.22715442  0.16810228  1
  H+  H227  1  0.61887982  0.47817525  0.34050552  1
  H+  H228  1  0.98167894  0.62651993  0.83535725  1
  H+  H229  1  0.63019484  0.37209076  0.85287466  1
  H+  H230  1  0.23764034  0.11831966  0.48773024  1
  H+  H231  1  0.26652925  0.12679781  1.00473844  1
  H+  H232  1  0.61675994  0.63849725  0.00656779  1
  H+  H233  1  0.15244219  0.51420655  0.18403421  1
  H+  H234  1  0.10964469  0.20532589  0.49191712  1
  H+  H235  1  0.60051323  0.87157979  0.86169236  1
  H+  H236  1  0.76976959  0.37068679  0.85365154  1
  H+  H237  1  0.85829610  -0.03516553  1.00555524  1
  H+  H238  1  0.74876227  0.11468050  0.50452611  1
  H+  H239  1  0.87944871  0.10383862  0.84384704  1
  H+  H240  1  0.88581483  0.52938718  0.50918131  1
  H+  H241  1  0.01011836  0.61827524  0.18608439  1
  H+  H242  1  0.78429638  0.14120742  0.00884384  1
  H+  H243  1  0.63035772  0.36200886  0.50255165  1
  H+  H244  1  0.36294466  0.22871818  0.00270285  1
  H+  H245  1  0.72657184  0.61448354  0.51033606  1
  H+  H246  1  0.35603811  0.88469876  0.33137199  1
  H+  H247  1  0.47963350  0.60808071  0.66425802  1
  H+  H248  1  0.63855018  0.10795824  0.85553077  1
  H+  H249  1  0.93357483  0.63504459  0.16933310  1
  H+  H250  1  -0.00923103  0.12090159  0.68433573  1
  H+  H251  1  0.85688512  0.20007338  0.49869256  1
  H+  H252  1  0.61553502  -0.01392151  0.48546615  1
  H+  H253  1  0.08117358  0.68373561  0.43646223  1
  H+  H254  1  0.88844359  0.05659409  0.61237963  1
  H+  H255  1  0.88772274  0.62744878  0.83413483  1
  H+  H256  1  0.41309190  1.03064536  0.65940800  1
  H+  H257  1  0.10659288  0.47473985  0.82856418  1
  H+  H258  1  0.39476598  0.28664936  0.31822521  1
  H+  H259  1  0.85754534  -0.02569915  0.34533071  1
  H+  H260  1  0.42346390  0.58099363  0.56904798  1
  H+  H261  1  0.70982182  0.63743686  0.18494000  1
  H+  H262  1  0.68345313  0.09583446  0.59545874  1
  H+  H263  1  0.18027298  0.33165273  0.22038166  1
  H+  H264  1  0.11295825  0.72969158  0.82661691  1
  H+  H265  1  0.76152567  0.88718516  0.15769517  1
  H+  H266  1  0.95664088  0.09493236  0.52236639  1
  H+  H267  1  0.35303491  0.43195692  0.39111737  1
  H+  H268  1  0.17210127  0.08282000  0.89417973  1
  H+  H269  1  0.61957007  0.49290283  0.16112623  1
  H+  H270  1  0.13977023  0.05656878  0.16767412  1
  H+  H271  1  0.37157044  0.64636635  -0.00041402  1
  H+  H272  1  0.15865767  0.39811655  0.99723437  1
  H+  H273  1  0.76639293  0.12503577  0.83533990  1
  H+  H274  1  0.11270898  0.47946334  0.47695158  1
  H+  H275  1  0.77672427  0.88592858  0.83456373  1
  H+  H276  1  0.27434297  0.14469037  0.33364858  1
  H+  H277  1  0.63378816  0.77391608  0.00005786  1
  H+  H278  1  0.72612883  0.11330502  0.17275048  1
  H+  H279  1  0.22530769  0.86343659  0.83671845  1
  H+  H280  1  0.64781748  0.34042292  0.91738087  1
  H+  H281  1  -0.03945580  0.85845742  0.33403736  1
  H+  H282  1  0.37701219  0.39658162  0.15501055  1
  H+  H283  1  0.38375054  0.36201906  0.66155216  1
  H+  H284  1  0.12135947  0.38904775  0.16005395  1
  H+  H285  1  0.59529847  0.38838410  0.01085800  1
  H+  H286  1  0.65930690  0.38057141  0.33924886  1
  H+  H287  1  0.23765986  0.12888475  0.17166919  1
  H+  H288  1  0.87887867  0.32463882  0.63402088  1
  H+  H289  1  0.32370380  0.89969855  0.43196765  1
  H+  H290  1  0.06972409  0.91863873  0.40584924  1
  H+  H291  1  0.16012031  0.59309821  0.56812735  1
  H+  H292  1  0.33427901  0.16689671  0.06779516  1
  H+  H293  1  0.16843172  0.83254423  0.89641672  1
  H+  H294  1  0.36259315  0.62748710  0.64827007  1
  H+  H295  1  0.58033301  0.92508633  0.42655245  1
  H+  H296  1  0.91174337  0.83701470  0.57240483  1
  H+  H297  1  0.41357853  0.32871557  0.60417269  1
  H+  H298  1  0.35142516  0.91851708  0.11303125  1
  H+  H299  1  0.88189445  0.34180538  0.84603449  1
  H+  H300  1  0.42325285  0.84115662  0.56181784  1
  H+  H301  1  0.60932793  0.91336953  0.74629358  1
  H+  H302  1  0.67231761  0.82934712  0.90989733  1
  H+  H303  1  0.42290848  0.07546683  0.59516960  1
  H+  H304  1  0.86374814  0.73609804  0.67182862  1
  H+  H305  1  0.08292585  0.90892027  0.05671314  1
  H+  H306  1  0.66757872  0.84267195  0.23162504  1
  H+  H307  1  0.07382806  0.91625380  0.74065000  1
  H+  H308  1  0.17376358  0.59148610  0.92983723  1
  H+  H309  1  0.82840058  0.91543077  0.43834565  1
  H+  H310  1  0.58769873  0.17084632  0.07263999  1
  H+  H311  1  0.82999691  0.90853854  0.06620390  1
  H+  H312  1  0.36302077  0.13545991  0.48411734  1
  H+  H313  1  0.33962231  0.91282875  0.77351737  1
  H+  H314  1  0.91703225  0.83175029  0.93203991  1
  H+  H315  1  0.67028528  0.33959720  0.59828591  1
  H+  H316  1  0.34951400  0.42733298  0.09547272  1
  H+  H317  1  0.83647281  0.91603133  0.77363741  1
  H+  H318  1  0.83032200  0.42326858  0.07041496  1
  H+  H319  1  0.83748880  0.67333286  0.76472657  1
  H+  H320  1  0.52421589  0.38733463  0.67138146  1
  H+  H321  1  0.58371439  0.42200372  0.43587125  1
  H+  H322  1  0.42456521  0.60252443  0.26154859  1
  H+  H323  1  0.35616687  0.69308017  0.39403116  1
  H+  H324  1  0.66949796  0.58517514  0.60377327  1
  H+  H325  1  0.57468005  0.17599146  0.38270327  1
  H+  H326  1  0.90264929  0.31249539  0.27052229  1
  H+  H327  1  0.43209378  0.08387024  0.93133005  1
  H+  H328  1  0.16538106  0.84844872  0.27556615  1
  H+  H329  1  0.65338766  0.58486671  0.24195888  1
  H+  H330  1  0.41600821  0.30450716  0.93400134  1
  H+  H331  1  0.83460379  0.16393216  0.10161409  1
  H+  H332  1  0.90158188  0.83056660  0.27468929  1
  H+  H333  1  0.91056884  0.07567946  0.27336052  1
  H+  H334  1  0.63497244  0.86742908  0.49655203  1
  H+  H335  1  0.90730142  0.06951693  0.93446913  1
  H+  H336  1  0.15471007  0.82725431  0.60853724  1
  H+  H337  1  0.40077473  0.52757459  0.98926249  1
  H+  H338  1  0.36920508  0.38642484  -0.00108479  1
  H+  H339  1  0.08354553  0.13268396  0.68287832  1
  H+  H340  1  0.05962614  0.13768262  0.09665407  1
  H+  H341  1  0.93804697  0.32461208  0.92512992  1
  H+  H342  1  0.48777601  0.12131061  0.16667583  1
  H+  H343  1  0.83427585  0.14909439  0.40860268  1
  H+  H344  1  0.62181839  0.40464920  0.16043348  1
  H+  H345  1  0.77474209  0.64248786  0.01510273  1
  H+  H346  1  0.24356496  0.60460271  0.18238928  1
  H+  H347  1  0.43184124  0.57574536  0.90692117  1
  H+  H348  1  0.39157092  0.77327062  0.64913802  1
  H+  H349  1  0.07130055  0.16979352  0.77860770  1
  H+  H350  1  0.77560370  0.64191864  0.67225372  1
  H+  H351  1  0.72164649  0.87206026  0.32327348  1
  H+  H352  1  0.85233725  0.39973541  0.70150388  1
  H+  H353  1  0.67582016  0.34610205  0.24137930  1
  H+  H354  1  0.08139132  0.42526788  0.73405794  1
  H+  H355  1  0.32647584  0.68115454  0.77292828  1
  H+  H356  1  0.56995467  0.42668283  0.06621010  1
  H+  H357  1  0.12702012  0.52196068  0.65862780  1
  H+  H358  1  0.07816596  0.14939027  0.42921678  1
  H+  H359  1  0.72559045  0.85935779  0.99974008  1
  H+  H360  1  0.58857872  0.92787429  0.07314697  1
  H+  H361  1  0.85751713  0.68319746  0.09646857  1
  H+  H362  1  0.42740649  0.33964684  0.22382511  1
  H+  H363  1  0.11580534  0.47290845  0.32821967  1
  H+  H364  1  0.93525278  0.60546790  0.27280566  1
  H+  H365  1  0.34015006  0.17932756  0.38905837  1
  H+  H366  1  0.33049664  0.41239819  0.73600571  1
  H+  H367  1  0.84877025  0.88154453  0.34620402  1
  H+  H368  1  0.66965857  0.21407111  0.79436049  1
  H+  H369  1  0.06808893  0.65709333  0.04359551  1
  H+  H370  1  0.13355406  0.66661848  0.13387325  1
  H+  H371  1  0.15314080  0.31959591  0.61183496  1
  H+  H372  1  0.09386662  0.42975955  0.10608465  1
  H+  H373  1  0.23290889  0.62333839  0.34102461  1
  H+  H374  1  0.58507846  0.16986240  0.72149196  1
  H+  H375  1  0.58791681  0.66059041  0.40184483  1
  H+  H376  1  0.86947060  0.01831575  0.17697855  1
  H+  H377  1  0.56180346  0.89607541  0.74516359  1
  H+  H378  1  0.66538133  0.82712128  0.58514240  1
  H+  H379  1  0.17349136  0.34580585  0.90057049  1
  H+  H380  1  0.91412596  0.59505565  0.59432489  1
  H+  H381  1  0.58119689  0.66602108  0.06558082  1
  H+  H382  1  0.81720084  0.14249580  0.74308438  1
  H+  H383  1  0.66982546  0.58572158  0.93437911  1
  O2-  O384  1  0.05320000  0.14916732  0.13962837  1
  O2-  O385  1  0.08299078  0.14604934  0.47552212  1
  O2-  O386  1  0.07941602  0.17341562  0.82340522  1
  O2-  O387  1  0.09099901  0.42250821  0.15085006  1
  O2-  O388  1  0.09346790  0.42093223  0.45335533  1
  O2-  O389  1  0.08017891  0.41555625  0.81067009  1
  O2-  O390  1  0.12298673  0.66461749  0.17746525  1
  O2-  O391  1  0.07625140  0.68066418  0.48248375  1
  O2-  O392  1  0.07779831  0.66700238  0.81495742  1
  O2-  O393  1  0.09758209  0.92000590  0.14153581  1
  O2-  O394  1  0.08215724  0.92353645  0.48863250  1
  O2-  O395  1  0.07858756  0.91603934  0.81524883  1
  O2-  O396  1  0.34165700  0.17260041  0.13671264  1
  O2-  O397  1  0.33860325  0.17105747  0.46842847  1
  O2-  O398  1  0.35109609  0.26818436  0.83052724  1
  O2-  O399  1  0.34750715  0.42787859  0.14072462  1
  O2-  O400  1  0.31646821  0.43089082  0.47588514  1
  O2-  O401  1  0.33606787  0.41022118  0.81669318  1
  O2-  O402  1  0.33621296  0.67877265  0.14192249  1
  O2-  O403  1  0.34632156  0.67498084  0.48786557  1
  O2-  O404  1  0.31637279  0.66314530  0.81522500  1
  O2-  O405  1  0.36122614  0.92454527  0.15865317  1
  O2-  O406  1  0.32139853  0.90019035  0.47806431  1
  O2-  O407  1  0.33435974  0.91568582  0.81814867  1
  O2-  O408  1  0.59105095  0.16879652  0.15041919  1
  O2-  O409  1  0.56919000  0.17226494  0.45423038  1
  O2-  O410  1  0.61514659  0.19386598  0.81557107  1
  O2-  O411  1  0.59225342  0.43390934  0.14325336  1
  O2-  O412  1  0.57923422  0.41936653  0.48131455  1
  O2-  O413  1  0.56831976  0.41645413  0.80441468  1
  O2-  O414  1  0.57698681  0.67483445  0.14217209  1
  O2-  O415  1  0.58988685  0.66686791  0.48134155  1
  O2-  O416  1  0.58332282  0.66130050  0.81396669  1
  O2-  O417  1  0.57988359  0.91980333  0.15610613  1
  O2-  O418  1  0.58358597  0.92549582  0.47239395  1
  O2-  O419  1  0.55984133  0.89351283  0.86518627  1
  O2-  O420  1  0.82928394  0.16566977  0.14661312  1
  O2-  O421  1  0.82918474  0.14089481  0.48380997  1
  O2-  O422  1  0.82353362  0.15139114  0.81396475  1
  O2-  O423  1  0.85041120  0.43091006  0.13755494  1
  O2-  O424  1  0.83316880  0.42086075  0.48074387  1
  O2-  O425  1  0.82605489  0.38681527  0.83608912  1
  O2-  O426  1  0.87598200  0.69003013  0.14237575  1
  O2-  O427  1  0.82888696  0.67185914  0.48082951  1
  O2-  O428  1  0.83705847  0.67156121  0.81026666  1
  O2-  O429  1  0.82332839  0.91776059  0.14261886  1
  O2-  O430  1  0.82671962  0.91048382  0.48401282  1
  O2-  O431  1  0.83775817  0.91763309  0.81997538  1
  O2-  O432  1  0.18032396  0.10665723  0.19117470  1
  O2-  O433  1  0.17586717  0.08751769  0.50352973  1
  O2-  O434  1  0.16031190  0.07815412  0.85030686  1
  O2-  O435  1  0.17820309  0.34409602  0.17710566  1
  O2-  O436  1  0.16030704  0.30927713  0.52709876  1
  O2-  O437  1  0.17238431  0.34122603  0.85562890  1
  O2-  O438  1  0.18824495  0.57214119  0.20464652  1
  O2-  O439  1  0.16890375  0.60408614  0.52213926  1
  O2-  O440  1  0.15645174  0.57771483  0.85541845  1
  O2-  O441  1  0.19178322  0.83117756  0.19435647  1
  O2-  O442  1  0.16421823  0.83841098  0.53262359  1
  O2-  O443  1  0.16429839  0.83185042  0.85077688  1
  O2-  O444  1  0.42501927  0.09431082  0.17795637  1
  O2-  O445  1  0.36573220  0.05196126  0.52253406  1
  O2-  O446  1  0.43472734  0.09293756  0.84655460  1
  O2-  O447  1  0.42584273  0.33663976  0.17826374  1
  O2-  O448  1  0.41707402  0.33048948  0.51998183  1
  O2-  O449  1  0.42223980  0.26752557  0.86351137  1
  O2-  O450  1  0.41572617  0.59190235  0.18282641  1
  O2-  O451  1  0.42120134  0.58177490  0.52338637  1
  O2-  O452  1  0.43151219  0.56754369  0.85851012  1
  O2-  O453  1  0.41724580  0.82883504  0.21747495  1
  O2-  O454  1  0.42295893  0.83857405  0.51635887  1
  O2-  O455  1  0.35450962  0.79610490  0.88846013  1
  O2-  O456  1  0.66699969  0.08689968  0.19053892  1
  O2-  O457  1  0.68476748  0.10162403  0.52244384  1
  O2-  O458  1  0.66843288  0.07817990  0.87014491  1
  O2-  O459  1  0.63802309  0.32742027  0.20495389  1
  O2-  O460  1  0.65819201  0.32805814  0.51467367  1
  O2-  O461  1  0.65354337  0.33881858  0.87194787  1
  O2-  O462  1  0.65263097  0.59097550  0.19515154  1
  O2-  O463  1  0.66658806  0.58275070  0.52678416  1
  O2-  O464  1  0.67447136  0.58693741  0.85290293  1
  O2-  O465  1  0.66604908  0.84112226  0.18456986  1
  O2-  O466  1  0.66160590  0.83375161  0.51159865  1
  O2-  O467  1  0.67366454  0.83099675  0.86395470  1
  O2-  O468  1  0.90047954  0.07717838  0.19513732  1
  O2-  O469  1  0.89671747  0.06632708  0.53569136  1
  O2-  O470  1  0.91351001  0.07824603  0.86010865  1
  O2-  O471  1  0.91309194  0.33211615  0.18531713  1
  O2-  O472  1  0.86565817  0.30507456  0.54669187  1
  O2-  O473  1  0.91796819  0.31342556  0.85422589  1
  O2-  O474  1  0.94738269  0.59485813  0.19041037  1
  O2-  O475  1  0.91448161  0.58972301  0.52473506  1
  O2-  O476  1  0.91838293  0.59530574  0.84809932  1
  O2-  O477  1  0.91076653  0.84149510  0.19307625  1
  O2-  O478  1  0.91746103  0.83841911  0.52696449  1
  O2-  O479  1  0.91486452  0.82984233  0.85396710  1
  O2-  O480  1  0.16699071  0.08230842  0.31516836  1
  O2-  O481  1  0.24145356  0.04508596  0.67600777  1
  O2-  O482  1  0.18052585  0.07553940  0.98101695  1
  O2-  O483  1  0.20173456  0.29983993  0.29971527  1
  O2-  O484  1  0.15304422  0.32788456  0.65618841  1
  O2-  O485  1  0.18589894  0.36302766  0.98244535  1
  O2-  O486  1  0.17197345  0.59161144  0.32709175  1
  O2-  O487  1  0.15460385  0.58264881  0.64162094  1
  O2-  O488  1  0.17734188  0.59719875  0.97562084  1
  O2-  O489  1  0.16169330  0.84980114  0.32009471  1
  O2-  O490  1  0.13819408  0.81487113  0.65302364  1
  O2-  O491  1  0.17429691  0.83315591  0.97351439  1
  O2-  O492  1  0.43194733  0.11689979  0.29718382  1
  O2-  O493  1  0.43908201  0.08670084  0.63852227  1
  O2-  O494  1  0.42932350  0.08304142  0.97642987  1
  O2-  O495  1  0.43294583  0.34597385  0.30226416  1
  O2-  O496  1  0.41711725  0.33387861  0.64909639  1
  O2-  O497  1  0.40804814  0.31357986  0.97809660  1
  O2-  O498  1  0.42540918  0.60469548  0.30697722  1
  O2-  O499  1  0.42048294  0.57706392  0.64636948  1
  O2-  O500  1  0.42889791  0.58660772  0.97076319  1
  O2-  O501  1  0.41471467  0.83906268  0.28427795  1
  O2-  O502  1  0.41736942  0.83523656  0.64020948  1
  O2-  O503  1  0.42295616  0.81866352  0.93336746  1
  O2-  O504  1  0.67404258  0.07524698  0.31721637  1
  O2-  O505  1  0.67739801  0.08832502  0.64168902  1
  O2-  O506  1  0.68028828  0.09420161  0.99019372  1
  O2-  O507  1  0.69080707  0.35138128  0.32335427  1
  O2-  O508  1  0.66674272  0.34027796  0.64334109  1
  O2-  O509  1  0.64596536  0.33754424  0.99308117  1
  O2-  O510  1  0.65809868  0.57402585  0.31116014  1
  O2-  O511  1  0.67114579  0.58662582  0.64959380  1
  O2-  O512  1  0.66668847  0.58600885  0.97954070  1
  O2-  O513  1  0.66676712  0.84758323  0.30056519  1
  O2-  O514  1  0.66583281  0.82679270  0.63133869  1
  O2-  O515  1  0.66502053  0.83437453  0.98509229  1
  O2-  O516  1  0.91726978  0.07609298  0.31858832  1
  O2-  O517  1  0.88775657  0.05523395  0.65837943  1
  O2-  O518  1  0.90964324  0.06679788  0.98030253  1
  O2-  O519  1  0.90844661  0.31022695  0.31508775  1
  O2-  O520  1  0.89727326  0.34187429  0.67622731  1
  O2-  O521  1  0.94650873  0.33240632  0.97137640  1
  O2-  O522  1  0.93935197  0.61389801  0.31731332  1
  O2-  O523  1  0.91222689  0.59764506  0.64133306  1
  O2-  O524  1  0.91276042  0.56835303  0.95854143  1
  O2-  O525  1  0.89977951  0.82670409  0.31970763  1
  O2-  O526  1  0.90658300  0.83326924  0.65154373  1
  O2-  O527  1  0.92188813  0.83333572  0.97751524  1
  O2-  O528  1  0.06705434  0.12413699  0.01526905  1
  O2-  O529  1  0.07717123  0.15630532  0.35717471  1
  O2-  O530  1  0.05168315  0.15961768  0.69816529  1
  O2-  O531  1  0.10488648  0.43825416  0.02211633  1
  O2-  O532  1  0.08709878  0.40928781  0.32757584  1
  O2-  O533  1  0.07863701  0.42606026  0.68838722  1
  O2-  O534  1  0.07856207  0.66101764  0.00001612  1
  O2-  O535  1  0.09363369  0.68885794  0.36161186  1
  O2-  O536  1  0.06300210  0.65115311  0.69029533  1
  O2-  O537  1  0.08502050  0.91108292  0.01193223  1
  O2-  O538  1  0.06842053  0.91876128  0.36069004  1
  O2-  O539  1  0.07403428  0.91853252  0.69465576  1
  O2-  O540  1  0.33120830  0.16442493  0.02042515  1
  O2-  O541  1  0.33664188  0.18150442  0.34389255  1
  O2-  O542  1  0.35695151  0.19600572  0.73216957  1
  O2-  O543  1  0.35052897  0.42595479  0.01511325  1
  O2-  O544  1  0.35520206  0.43377229  0.34630546  1
  O2-  O545  1  0.32868965  0.41309183  0.69064070  1
  O2-  O546  1  0.34648776  0.68219619  0.01137789  1
  O2-  O547  1  0.34668880  0.68711689  0.34976737  1
  O2-  O548  1  0.33033216  0.65807280  0.63754522  1
  O2-  O549  1  0.32950626  0.92103027  0.04078550  1
  O2-  O550  1  0.32982832  0.90909280  0.35806459  1
  O2-  O551  1  0.35313524  0.92054189  0.69083938  1
  O2-  O552  1  0.59012093  0.17550718  0.02714012  1
  O2-  O553  1  0.57685586  0.18383112  0.33650126  1
  O2-  O554  1  0.59410796  0.17172651  0.67746785  1
  O2-  O555  1  0.56303087  0.41924711  0.02117956  1
  O2-  O556  1  0.59301078  0.41790800  0.35764832  1
  O2-  O557  1  0.58436133  0.41733354  0.68748109  1
  O2-  O558  1  0.58289562  0.66617505  0.01991124  1
  O2-  O559  1  0.59085195  0.65683624  0.35692501  1
  O2-  O560  1  0.58580380  0.66805353  0.68935425  1
  O2-  O561  1  0.59750739  0.93635999  0.02875973  1
  O2-  O562  1  0.57693634  0.91866596  0.35043845  1
  O2-  O563  1  0.57802218  0.91396965  0.62592956  1
  O2-  O564  1  0.84579038  0.16491964  0.02206589  1
  O2-  O565  1  0.83635427  0.15017131  0.36252461  1
  O2-  O566  1  0.81839276  0.13802617  0.69652719  1
  O2-  O567  1  0.81412977  0.41567602  0.02417358  1
  O2-  O568  1  0.85074415  0.41808293  0.42275188  1
  O2-  O569  1  0.81952599  0.42612889  0.71887930  1
  O2-  O570  1  0.83411962  0.67494884  0.03088566  1
  O2-  O571  1  0.81949004  0.65966420  0.35499067  1
  O2-  O572  1  0.83739160  0.67322765  0.68584751  1
  O2-  O573  1  0.83099812  0.90428944  0.02069389  1
  O2-  O574  1  0.82220652  0.91470552  0.36210299  1
  O2-  O575  1  0.82336763  0.89976376  0.69895590  1
