# generated using pymatgen
data_H2O
_symmetry_space_group_name_H-M   'P 1'
_cell_length_a   17.99858991
_cell_length_b   18.00052546
_cell_length_c   21.99715654
_cell_angle_alpha   89.98778153
_cell_angle_beta   89.99773439
_cell_angle_gamma   119.99262946
_symmetry_Int_Tables_number   1
_chemical_formula_structural   H2O
_chemical_formula_sum   'H384 O192'
_cell_volume   6172.38598335
_cell_formula_units_Z   192
loop_
 _symmetry_equiv_pos_site_id
 _symmetry_equiv_pos_as_xyz
  1  'x, y, z'
loop_
 _atom_type_symbol
 _atom_type_oxidation_number
  H+  1.0
  O2-  -2.0
loop_
 _atom_site_type_symbol
 _atom_site_label
 _atom_site_symmetry_multiplicity
 _atom_site_fract_x
 _atom_site_fract_y
 _atom_site_fract_z
 _atom_site_occupancy
  H+  H0  1  0.11606916  0.01777512  0.82586191  1
  H+  H1  1  0.87373948  0.23956074  0.52167758  1
  H+  H2  1  0.58684012  0.16381717  0.79496624  1
  H+  H3  1  0.13733154  0.10710935  0.34057361  1
  H+  H4  1  0.52070142  0.13843990  0.33425365  1
  H+  H5  1  0.85058288  0.65114808  0.15668437  1
  H+  H6  1  0.57935937  0.36227354  0.00827602  1
  H+  H7  1  0.21593307  0.11201507  0.97153885  1
  H+  H8  1  0.20597171  0.09598024  0.65034730  1
  H+  H9  1  0.76798559  0.87868302  0.34888613  1
  H+  H10  1  0.37189489  0.35638154  0.00110832  1
  H+  H11  1  0.39136243  1.00333714  0.00582965  1
  H+  H12  1  0.35146902  0.22150108  0.49085723  1
  H+  H13  1  0.92302933  0.87674788  0.18973342  1
  H+  H14  1  0.64960536  0.94446287  0.95604702  1
  H+  H15  1  0.02854118  0.88439659  0.49229017  1
  H+  H16  1  0.38000942  0.60262406  1.00480493  1
  H+  H17  1  0.68137996  0.41564018  0.18654413  1
  H+  H18  1  0.59497057  0.61796663  0.17993817  1
  H+  H19  1  0.36214345  0.22412285  0.98582357  1
  H+  H20  1  0.89881518  0.87661894  0.99486236  1
  H+  H21  1  0.73060700  0.11502063  0.34066889  1
  H+  H22  1  0.52915480  0.22969605  -0.05292669  1
  H+  H23  1  0.80477221  0.41617167  0.17722989  1
  H+  H24  1  0.91304738  0.54911550  1.00033582  1
  H+  H25  1  0.33965049  0.15737650  0.93398388  1
  H+  H26  1  0.87251710  0.54875714  0.18704571  1
  H+  H27  1  0.13169074  0.63144674  0.49868000  1
  H+  H28  1  0.32721065  0.38025254  0.67379507  1
  H+  H29  1  0.13620953  0.61325532  0.99044156  1
  H+  H30  1  0.35460798  0.72151626  0.34083624  1
  H+  H31  1  0.00807021  0.61752392  0.39655126  1
  H+  H32  1  0.65655158  0.41523362  0.43586938  1
  H+  H33  1  0.58493355  0.70126651  0.17144682  1
  H+  H34  1  0.68086768  0.52978015  0.34675872  1
  H+  H35  1  0.66034155  0.28749341  0.84580085  1
  H+  H36  1  0.20386396  0.86350803  0.83171982  1
  H+  H37  1  0.86438605  0.13029592  0.35378881  1
  H+  H38  1  0.55935682  0.40921473  0.68163438  1
  H+  H39  1  0.15080533  0.03812536  0.17448918  1
  H+  H40  1  0.70449464  0.18342840  0.20611351  1
  H+  H41  1  0.99059569  0.11938329  0.18855167  1
  H+  H42  1  0.60905891  0.72500147  -0.01728702  1
  H+  H43  1  0.85261459  0.19480466  0.79478200  1
  H+  H44  1  0.78125278  0.64652968  0.81682534  1
  H+  H45  1  0.08059260  0.67817352  0.05927941  1
  H+  H46  1  0.35634751  0.51034949  0.33203561  1
  H+  H47  1  0.26367164  0.62763391  0.81956897  1
  H+  H48  1  0.13099376  0.26913399  0.34915949  1
  H+  H49  1  0.38576917  0.35863264  0.18261588  1
  H+  H50  1  0.80020336  0.38796748  0.82737925  1
  H+  H51  1  0.86223737  -0.02675918  0.82767473  1
  H+  H52  1  0.61149875  1.00676298  0.65114615  1
  H+  H53  1  0.02285008  0.38707065  0.03763877  1
  H+  H54  1  0.88180717  0.33433499  0.16813797  1
  H+  H55  1  0.63310017  0.77619090  0.50625955  1
  H+  H56  1  0.49782887  0.08238042  0.15010904  1
  H+  H57  1  0.89101777  0.01880329  0.34180598  1
  H+  H58  1  0.27463952  0.63614661  1.00323460  1
  H+  H59  1  0.33585718  0.97372457  0.83177832  1
  H+  H60  1  0.01797538  0.14018539  0.01887461  1
  H+  H61  1  0.02413103  0.88148581  0.34617935  1
  H+  H62  1  0.32886292  0.66479245  0.72641103  1
  H+  H63  1  1.02665043  0.12877122  0.36152237  1
  H+  H64  1  0.62604255  0.25666505  0.15603165  1
  H+  H65  1  0.99869078  0.87270188  0.67256269  1
  H+  H66  1  0.64524135  0.29401271  0.49493911  1
  H+  H67  1  0.74843250  0.62775588  0.50447878  1
  H+  H68  1  0.51892181  0.88707405  0.50118109  1
  H+  H69  1  0.88497879  0.65323841  0.46593475  1
  H+  H70  1  0.67113788  0.54014304  0.66985363  1
  H+  H71  1  0.38508015  0.36769158  0.33636792  1
  H+  H72  1  0.12483704  0.52444436  0.34336914  1
  H+  H73  1  0.63458090  0.98247835  0.80802390  1
  H+  H74  1  0.82409180  0.90082817  0.18091810  1
  H+  H75  1  0.14842980  0.51481571  0.65252756  1
  H+  H76  1  0.13845572  0.35428975  0.19307197  1
  H+  H77  1  0.88179515  0.73955382  0.48576777  1
  H+  H78  1  0.16304986  0.08328783  0.27618436  1
  H+  H79  1  0.13700394  0.86203884  0.32564139  1
  H+  H80  1  0.87227344  0.50270555  0.33278192  1
  H+  H81  1  0.14677595  0.86259137  0.51269133  1
  H+  H82  1  0.59883561  0.79630646  0.32933398  1
  H+  H83  1  0.49068873  0.38123747  0.66745615  1
  H+  H84  1  0.92770027  0.08200621  0.28514377  1
  H+  H85  1  0.61782022  0.84888352  0.18291043  1
  H+  H86  1  0.65674628  0.36610943  0.34356878  1
  H+  H87  1  0.27188447  0.62091815  0.48262122  1
  H+  H88  1  0.36654299  0.63215685  0.48853197  1
  H+  H89  1  0.37480927  0.87908657  0.65409362  1
  H+  H90  1  0.26829243  0.41020945  0.51662278  1
  H+  H91  1  0.64969534  1.04299064  0.49580656  1
  H+  H92  1  0.86548190  0.84982238  0.66394845  1
  H+  H93  1  0.59783110  0.24464230  0.18365226  1
  H+  H94  1  0.62623740  0.91168245  0.35362218  1
  H+  H95  1  0.39459115  0.86527630  -0.01163030  1
  H+  H96  1  0.61150313  0.14039707  0.34035523  1
  H+  H97  1  0.89668859  0.02035058  0.99394645  1
  H+  H98  1  0.89862119  0.11364354  0.53483134  1
  H+  H99  1  0.62814144  0.51055269  0.00068471  1
  H+  H100  1  -0.01543180  0.37254602  0.47976261  1
  H+  H101  1  0.13365180  0.58714979  0.24112383  1
  H+  H102  1  0.89813213  0.10696124  0.66790029  1
  H+  H103  1  0.37503908  0.52214258  0.66265677  1
  H+  H104  1  0.37555152  0.39235911  0.82947623  1
  H+  H105  1  0.09083940  0.87871989  0.81674062  1
  H+  H106  1  0.36460413  0.72235802  -0.00214512  1
  H+  H107  1  0.89027302  0.39749460  0.65830014  1
  H+  H108  1  0.39224908  1.02797028  0.49506301  1
  H+  H109  1  0.78479199  0.62839747  0.71512337  1
  H+  H110  1  0.78152463  0.15133253  0.51695391  1
  H+  H111  1  0.61440800  0.63018215  0.68001182  1
  H+  H112  1  0.85217726  0.73735198  0.16336187  1
  H+  H113  1  0.21876731  0.87250923  -0.03515195  1
  H+  H114  1  0.87795854  0.09961252  0.83391464  1
  H+  H115  1  0.14821857  0.86825374  0.16800680  1
  H+  H116  1  0.71825013  0.61831990  0.17773357  1
  H+  H117  1  0.92542072  0.69422218  0.31562207  1
  H+  H118  1  0.28179662  0.89187423  0.49420691  1
  H+  H119  1  1.02794076  0.40084278  0.35432787  1
  H+  H120  1  0.36081294  0.50255422  1.00582506  1
  H+  H121  1  0.83985171  0.51698661  0.33011049  1
  H+  H122  1  0.13014294  0.50537262  0.46904375  1
  H+  H123  1  0.38501445  0.11390310  0.49527688  1
  H+  H124  1  0.89192973  0.02347482  0.52575419  1
  H+  H125  1  0.14663726  0.82855867  0.91470595  1
  H+  H126  1  0.26553657  0.13131161  0.48624830  1
  H+  H127  1  0.36225114  0.13775057  0.17529860  1
  H+  H128  1  0.08303460  0.61741931  0.35108603  1
  H+  H129  1  0.82881404  0.15188350  0.41224967  1
  H+  H130  1  0.34037838  0.11482518  0.81889479  1
  H+  H131  1  0.62672860  0.10557536  0.17438492  1
  H+  H132  1  0.98373257  0.87394801  0.83276461  1
  H+  H133  1  0.39665861  0.53197292  0.83470767  1
  H+  H134  1  0.19493049  0.30868701  0.62516771  1
  H+  H135  1  0.26211733  0.38442711  0.35125818  1
  H+  H136  1  1.00428845  0.66598189  0.31989916  1
  H+  H137  1  0.96631783  0.62627798  0.16397761  1
  H+  H138  1  0.11667155  0.68432478  0.44891779  1
  H+  H139  1  0.09747811  0.72698640  0.15209928  1
  H+  H140  1  0.57334922  0.92745843  0.13036923  1
  H+  H141  1  0.76688751  0.94571736  0.94203703  1
  H+  H142  1  0.75711332  0.33174445  0.34963145  1
  H+  H143  1  0.38172041  0.85541988  0.49688072  1
  H+  H144  1  0.59064216  0.97307592  -0.00750185  1
  H+  H145  1  0.11672228  0.22556195  0.17547095  1
  H+  H146  1  0.65210493  0.13150387  0.48652070  1
  H+  H147  1  0.53189920  0.64047093  0.82893008  1
  H+  H148  1  0.08698931  0.42589468  0.22623956  1
  H+  H149  1  0.38009661  0.76423459  0.49620454  1
  H+  H150  1  0.90277159  0.99429198  0.17706794  1
  H+  H151  1  0.15236842  0.08626586  0.55065850  1
  H+  H152  1  0.14683120  0.36212031  0.83014855  1
  H+  H153  1  0.27446819  0.87849144  0.15892223  1
  H+  H154  1  0.34572754  0.12128204  0.65931634  1
  H+  H155  1  0.65506441  0.62822936  0.84202696  1
  H+  H156  1  0.47560073  0.85876841  0.96215425  1
  H+  H157  1  0.89860055  0.34219373  0.80216867  1
  H+  H158  1  0.76844164  0.88632344  0.50217359  1
  H+  H159  1  0.87934431  -0.01949030  0.67794390  1
  H+  H160  1  0.90470384  0.61589999  0.68836358  1
  H+  H161  1  0.08758346  0.63496056  0.15587059  1
  H+  H162  1  0.37116100  0.01718481  0.17538549  1
  H+  H163  1  0.72591851  0.16705543  0.91836873  1
  H+  H164  1  0.86624712  0.20832583  1.02536162  1
  H+  H165  1  0.13407289  0.52464422  -0.00028695  1
  H+  H166  1  0.57965316  0.16102417  0.69783468  1
  H+  H167  1  0.60660826  0.74131419  1.01365755  1
  H+  H168  1  0.12568814  0.10774686  0.65751524  1
  H+  H169  1  0.11823184  0.73915390  -0.00217389  1
  H+  H170  1  0.89551575  0.36143043  0.32672705  1
  H+  H171  1  0.14135631  0.77648055  0.32929673  1
  H+  H172  1  0.64633129  0.40066856  0.67475068  1
  H+  H173  1  0.47226925  0.86170815  0.33581918  1
  H+  H174  1  0.86830391  0.54227172  0.84396835  1
  H+  H175  1  0.47959022  0.61384339  0.50874436  1
  H+  H176  1  0.27619161  0.13931979  0.33962357  1
  H+  H177  1  0.89389577  0.10468996  0.18774412  1
  H+  H178  1  0.51609193  0.38517069  0.37481969  1
  H+  H179  1  0.93586531  0.29801567  0.63757754  1
  H+  H180  1  0.25355903  0.37089572  1.01157126  1
  H+  H181  1  0.15633934  0.77884653  0.51897622  1
  H+  H182  1  0.20760231  0.61587545  0.33429040  1
  H+  H183  1  0.58877178  0.65854028  0.44019267  1
  H+  H184  1  0.90200557  0.45407123  0.83028858  1
  H+  H185  1  0.13013599  0.02438645  0.97864172  1
  H+  H186  1  0.58857523  0.94159386  0.86900949  1
  H+  H187  1  0.37036753  0.60255447  0.17434241  1
  H+  H188  1  0.64512353  0.40924332  0.83262005  1
  H+  H189  1  0.38452705  0.09213033  0.99748624  1
  H+  H190  1  0.02787794  0.13971584  0.71068172  1
  H+  H191  1  0.92425726  0.84249743  0.56283543  1
  H+  H192  1  0.01714566  0.36794880  0.17986095  1
  H+  H193  1  0.66207195  0.06733870  -0.08438128  1
  H+  H194  1  0.70051462  0.08532737  0.63223425  1
  H+  H195  1  0.20549354  0.98405301  0.11720467  1
  H+  H196  1  0.12217457  0.53569193  0.18029714  1
  H+  H197  1  0.52109958  0.12102107  0.00721181  1
  H+  H198  1  0.16043761  0.78031502  0.66761182  1
  H+  H199  1  0.34556942  0.72102269  0.81704028  1
  H+  H200  1  0.77252619  0.88119146  0.82383969  1
  H+  H201  1  0.37025444  0.23979556  0.18265089  1
  H+  H202  1  0.82331830  0.30013579  1.00864055  1
  H+  H203  1  0.46498385  0.10796018  0.85154860  1
  H+  H204  1  0.65250909  0.27981761  0.64165866  1
  H+  H205  1  0.38150883  0.85877184  0.18331727  1
  H+  H206  1  0.62258272  0.61527669  0.35206603  1
  H+  H207  1  0.05633590  0.90916394  0.75661158  1
  H+  H208  1  0.03719204  0.64254273  0.67396215  1
  H+  H209  1  0.74452431  0.36560529  0.64713392  1
  H+  H210  1  0.41122474  0.08059292  0.23302520  1
  H+  H211  1  0.10397705  0.12954323  0.80836429  1
  H+  H212  1  0.44725216  0.86068216  0.82460764  1
  H+  H213  1  0.12004465  0.76788373  0.83076059  1
  H+  H214  1  0.42024473  0.33980153  0.65389322  1
  H+  H215  1  0.83054369  0.16325862  0.60815051  1
  H+  H216  1  1.00223337  0.64323850  0.98934474  1
  H+  H217  1  0.88792779  0.86851165  0.50616619  1
  H+  H218  1  1.01947879  0.63273330  0.82513959  1
  H+  H219  1  0.73528970  0.88189677  0.65850455  1
  H+  H220  1  0.90517597  0.45170093  0.18931759  1
  H+  H221  1  0.47718368  0.90808194  1.05864200  1
  H+  H222  1  0.62010742  0.14932446  0.85714161  1
  H+  H223  1  0.11143228  0.89013664  -0.00303619  1
  H+  H224  1  0.06478611  0.40912088  0.64911083  1
  H+  H225  1  0.38717964  0.11711930  0.32576213  1
  H+  H226  1  0.46973272  0.85842138  0.19095979  1
  H+  H227  1  0.94390853  0.08480336  0.61731060  1
  H+  H228  1  0.90657882  0.53718262  0.65990337  1
  H+  H229  1  0.98952100  0.61697455  0.48519001  1
  H+  H230  1  0.13778967  0.27058143  0.83308095  1
  H+  H231  1  0.33842082  0.38358616  0.50220880  1
  H+  H232  1  0.38557593  0.27893494  0.33428044  1
  H+  H233  1  0.47444879  0.11406091  0.63962943  1
  H+  H234  1  0.78837065  0.89347732  0.02756814  1
  H+  H235  1  0.28504361  0.88990096  0.66925845  1
  H+  H236  1  0.11260741  0.13428699  0.45531904  1
  H+  H237  1  0.53249996  0.38431760  0.17142236  1
  H+  H238  1  -0.00983317  0.84444910  0.19801390  1
  H+  H239  1  0.26925926  0.37145554  0.17366702  1
  H+  H240  1  0.58883407  0.66293099  0.76872121  1
  H+  H241  1  0.45432555  0.59306793  0.18564070  1
  H+  H242  1  0.87003285  0.65831444  0.00863666  1
  H+  H243  1  0.31144455  0.14032580  0.72177142  1
  H+  H244  1  0.72719713  0.33107639  1.00200633  1
  H+  H245  1  0.89507033  0.78611776  -0.00844508  1
  H+  H246  1  0.52154152  0.62328887  0.67887844  1
  H+  H247  1  0.73786124  0.37477681  -0.00974670  1
  H+  H248  1  0.88339758  0.24463824  0.17174148  1
  H+  H249  1  0.14375534  0.61812386  0.66078951  1
  H+  H250  1  0.78461534  0.40225820  0.49090495  1
  H+  H251  1  0.36206465  0.63542017  0.66763035  1
  H+  H252  1  0.39493794  0.61839077  0.82864539  1
  H+  H253  1  0.35449490  0.60613735  0.32664021  1
  H+  H254  1  0.62189217  0.64523390  0.50392104  1
  H+  H255  1  0.88482242  0.87104604  0.83996694  1
  H+  H256  1  0.68980447  0.82845742  0.16363244  1
  H+  H257  1  0.13985693  0.12198198  0.17967046  1
  H+  H258  1  0.41838640  0.33646915  0.24547874  1
  H+  H259  1  0.33597696  0.24281833  0.65432337  1
  H+  H260  1  0.77005699  0.12799398  0.83005794  1
  H+  H261  1  0.61249986  0.47812331  0.16610655  1
  H+  H262  1  0.77383294  0.12204536  0.16822801  1
  H+  H263  1  0.86260917  0.71103614  0.39400259  1
  H+  H264  1  0.53004794  0.15213019  0.48948276  1
  H+  H265  1  0.33082000  0.88442539  0.82112292  1
  H+  H266  1  0.13337621  1.02048869  0.49735071  1
  H+  H267  1  0.27534998  0.89067013  0.33597943  1
  H+  H268  1  0.27053082  0.14443801  0.17969828  1
  H+  H269  1  0.25425534  0.11875997  0.81296864  1
  H+  H270  1  0.46887559  0.57669711  1.02370257  1
  H+  H271  1  0.90546038  0.43125555  0.02470264  1
  H+  H272  1  0.50212106  0.39147261  0.84943907  1
  H+  H273  1  0.86436239  0.12124320  0.01205688  1
  H+  H274  1  0.61262142  0.99055148  0.34823412  1
  H+  H275  1  0.90195675  0.53216580  0.46592466  1
  H+  H276  1  0.36359754  0.88952491  0.34000990  1
  H+  H277  1  0.61824231  0.89265165  0.67124278  1
  H+  H278  1  0.13511144  0.51369434  0.83059564  1
  H+  H279  1  0.37305795  0.76844665  0.65219098  1
  H+  H280  1  0.61492952  -0.02975689  0.19404234  1
  H+  H281  1  0.57649775  0.58132944  1.02514726  1
  H+  H282  1  0.62466517  0.70245146  0.34609089  1
  H+  H283  1  0.63186766  0.86575917  0.50701906  1
  H+  H284  1  0.63822638  0.85523726  0.82810930  1
  H+  H285  1  0.60938079  0.12476597  0.64262188  1
  H+  H286  1  1.02465619  0.89272793  1.00519390  1
  H+  H287  1  1.04464780  0.38185860  0.78607303  1
  H+  H288  1  0.65633293  0.81519662  0.27095463  1
  H+  H289  1  0.09122377  0.90925460  0.43516745  1
  H+  H290  1  0.93336762  0.34201787  0.26787401  1
  H+  H291  1  0.08058955  0.17089625  0.11253734  1
  H+  H292  1  0.38218093  0.56618449  0.26305645  1
  H+  H293  1  0.37264685  0.31165568  0.56825116  1
  H+  H294  1  0.57891698  0.92400489  0.44396435  1
  H+  H295  1  0.94094758  0.30547225  0.84619268  1
  H+  H296  1  0.41039182  0.08053196  0.58453165  1
  H+  H297  1  0.33437760  0.91887265  0.43076067  1
  H+  H298  1  0.53700417  0.99819641  0.08555127  1
  H+  H299  1  0.83286448  0.68838454  0.06283116  1
  H+  H300  1  0.23942501  0.62462425  0.65724818  1
  H+  H301  1  0.40011902  0.82196286  0.58814711  1
  H+  H302  1  0.09493261  0.66469524  0.73297443  1
  H+  H303  1  0.83087259  0.91932725  0.44519216  1
  H+  H304  1  0.56892628  0.90637434  0.72701363  1
  H+  H305  1  0.81646146  0.17867783  0.67969360  1
  H+  H306  1  0.88743650  0.46938085  0.08420478  1
  H+  H307  1  0.83724764  0.91647057  0.73387648  1
  H+  H308  1  0.63807354  0.76416184  0.83176629  1
  H+  H309  1  0.38584373  0.02668361  0.32599543  1
  H+  H310  1  0.84583121  0.76217622  0.63079224  1
  H+  H311  1  0.10378825  0.22950049  0.01844356  1
  H+  H312  1  0.56331201  0.11576889  0.09281502  1
  H+  H313  1  0.11255147  0.97212840  0.34145129  1
  H+  H314  1  0.46389089  0.36208878  0.00746557  1
  H+  H315  1  0.11431383  0.93744787  0.08887949  1
  H+  H316  1  0.18508786  0.84163377  0.61022052  1
  H+  H317  1  0.39410288  0.82848940  0.88569172  1
  H+  H318  1  0.33548910  0.16960402  0.39813475  1
  H+  H319  1  0.15640044  0.32779562  0.93251194  1
  H+  H320  1  0.69089474  0.86168700  0.91623789  1
  H+  H321  1  0.88965244  0.63617786  0.83712137  1
  H+  H322  1  0.43548453  0.35794984  0.90602095  1
  H+  H323  1  0.10606755  0.62703057  0.82864171  1
  H+  H324  1  0.71091602  0.38960825  0.24715838  1
  H+  H325  1  0.94438575  0.65032592  0.25288860  1
  H+  H326  1  0.36258410  0.71975502  0.16315975  1
  H+  H327  1  0.37704524  -0.01916125  0.65557423  1
  H+  H328  1  0.75167802  0.62587612  0.33021390  1
  H+  H329  1  0.44654486  0.35542843  0.51792926  1
  H+  H330  1  0.41143348  0.82890663  0.27667314  1
  H+  H331  1  0.16274274  0.82717511  0.22896229  1
  H+  H332  1  0.33977957  0.66771507  0.10060483  1
  H+  H333  1  0.52321736  0.30286032  0.91412854  1
  H+  H334  1  0.32681487  0.42184739  0.73672937  1
  H+  H335  1  0.83295267  0.39678131  0.43348310  1
  H+  H336  1  0.30289382  0.87232196  0.02573277  1
  H+  H337  1  0.67371056  0.84966638  0.60049895  1
  H+  H338  1  0.16434364  0.42135367  0.62129464  1
  H+  H339  1  0.08328684  0.96555420  0.66955089  1
  H+  H340  1  0.61679702  0.43648826  0.77291138  1
  H+  H341  1  0.90088957  0.37803605  0.49925321  1
  H+  H342  1  0.92464214  0.84847743  0.90234740  1
  H+  H343  1  0.60616862  0.21075189  0.02203481  1
  H+  H344  1  0.85907780  0.92723544  0.08088649  1
  H+  H345  1  0.67644864  0.35753036  0.55097016  1
  H+  H346  1  0.14831388  0.07971868  0.88435279  1
  H+  H347  1  0.67541512  0.09548021  0.27894474  1
  H+  H348  1  0.16558931  0.32392907  0.25245477  1
  H+  H349  1  0.35183768  0.46276034  0.16665280  1
  H+  H350  1  0.66197251  0.54343242  0.84343064  1
  H+  H351  1  0.12939376  0.36195631  -0.00819172  1
  H+  H352  1  0.70665226  0.60819339  0.61628219  1
  H+  H353  1  0.66165924  0.58372553  0.94994531  1
  H+  H354  1  0.12881790  0.35739689  0.34964761  1
  H+  H355  1  0.89562595  0.32514990  0.96124880  1
  H+  H356  1  0.90573541  0.81125455  0.28655822  1
  H+  H357  1  0.32639568  0.65834535  0.39868743  1
  H+  H358  1  0.92321659  0.60156772  0.93071444  1
  H+  H359  1  0.34753784  0.91472468  0.10514577  1
  H+  H360  1  0.54334805  0.60749439  0.08956010  1
  H+  H361  1  0.67146405  0.57780234  0.24106737  1
  H+  H362  1  0.95341129  0.35910769  0.58148381  1
  H+  H363  1  0.69110165  0.35082862  0.90005036  1
  H+  H364  1  0.63407665  0.27248197  0.32265931  1
  H+  H365  1  0.38735311  0.52644142  0.50913449  1
  H+  H366  1  0.15727070  0.56570901  0.89464395  1
  H+  H367  1  0.16302019  0.54148805  0.53821105  1
  H+  H368  1  0.10090254  0.42425784  0.08195330  1
  H+  H369  1  0.28342569  0.38531826  0.83252497  1
  H+  H370  1  0.40750495  0.06735815  0.90979699  1
  H+  H371  1  0.83133006  0.13820851  0.10786729  1
  H+  H372  1  0.32210509  0.42430815  0.40887233  1
  H+  H373  1  0.58009389  0.40368739  0.07461076  1
  H+  H374  1  0.85509968  0.41783218  0.71865903  1
  H+  H375  1  0.97065353  0.10789202  0.83025806  1
  H+  H376  1  0.12448725  0.42937429  0.74267296  1
  H+  H377  1  0.91986949  0.07786302  0.93193580  1
  H+  H378  1  0.66320904  0.54227083  0.51994483  1
  H+  H379  1  0.85165200  0.87142468  0.35397586  1
  H+  H380  1  0.58498090  0.18274851  0.42917921  1
  H+  H381  1  0.31181765  0.39740668  0.07324053  1
  H+  H382  1  0.78677384  0.27200109  0.38370420  1
  H+  H383  1  0.41343149  0.58243423  0.60325312  1
  O2-  O384  1  0.08569884  0.16579060  0.15863455  1
  O2-  O385  1  0.08811692  0.16918844  0.43869642  1
  O2-  O386  1  0.07419736  0.16313673  0.79511072  1
  O2-  O387  1  0.08106000  0.40936816  0.18333971  1
  O2-  O388  1  0.07378365  0.42461306  0.43923684  1
  O2-  O389  1  0.10759454  0.41999492  0.78660548  1
  O2-  O390  1  0.06245769  0.66763407  0.13470786  1
  O2-  O391  1  0.10983787  0.67302240  0.49267224  1
  O2-  O392  1  0.08007928  0.66085140  0.81218166  1
  O2-  O393  1  0.14536471  0.95325374  0.12977472  1
  O2-  O394  1  0.09020121  0.91048818  0.48035982  1
  O2-  O395  1  0.05993574  0.90996123  0.80467881  1
  O2-  O396  1  0.33441938  0.17473828  0.16697291  1
  O2-  O397  1  0.32738027  0.16261387  0.47331563  1
  O2-  O398  1  0.31299112  0.14173058  0.79627029  1
  O2-  O399  1  0.32705556  0.40147563  0.15382830  1
  O2-  O400  1  0.31706645  0.42262029  0.48911653  1
  O2-  O401  1  0.34172662  0.41909889  0.81511253  1
  O2-  O402  1  0.33916355  0.66181848  0.14539813  1
  O2-  O403  1  0.33360193  0.65852172  0.47024489  1
  O2-  O404  1  0.32259256  0.66107830  0.80267664  1
  O2-  O405  1  0.33705903  0.91481171  0.15100316  1
  O2-  O406  1  0.34084381  0.92000297  0.47589792  1
  O2-  O407  1  0.29941410  0.91575722  0.81453896  1
  O2-  O408  1  0.54642844  0.07943357  0.13091560  1
  O2-  O409  1  0.59024326  0.18668213  0.47431424  1
  O2-  O410  1  0.58793416  0.17560507  0.83825679  1
  O2-  O411  1  0.59034866  0.41731943  0.15316561  1
  O2-  O412  1  0.54863287  0.40314053  0.41378518  1
  O2-  O413  1  0.61408399  0.43806723  0.81840250  1
  O2-  O414  1  0.55692322  0.63901615  0.16271771  1
  O2-  O415  1  0.58655485  0.66704446  0.48530584  1
  O2-  O416  1  0.59389303  0.66985357  0.81505370  1
  O2-  O417  1  0.58208521  0.91485439  0.17375160  1
  O2-  O418  1  0.58057145  0.92147466  0.48885917  1
  O2-  O419  1  0.59005130  0.92862733  0.82556919  1
  O2-  O420  1  0.83293950  0.14157955  0.15397038  1
  O2-  O421  1  0.84098200  0.17870832  0.53545253  1
  O2-  O422  1  0.81414936  0.13264917  0.80135274  1
  O2-  O423  1  0.86118887  0.42501195  0.15789589  1
  O2-  O424  1  0.84415697  0.42568511  0.47391884  1
  O2-  O425  1  0.85658560  0.40964650  0.80551072  1
  O2-  O426  1  0.81843957  0.68027939  0.14411299  1
  O2-  O427  1  0.85225121  0.68468751  0.46181467  1
  O2-  O428  1  0.84012832  0.67141841  0.79580545  1
  O2-  O429  1  0.87908955  0.93278164  0.16009620  1
  O2-  O430  1  0.83097477  0.91567474  0.49009200  1
  O2-  O431  1  0.83559839  0.91235199  0.81318116  1
  O2-  O432  1  0.17339775  0.09403912  0.19593002  1
  O2-  O433  1  0.15882305  0.08308303  0.50597337  1
  O2-  O434  1  0.14672562  0.07928587  0.83818789  1
  O2-  O435  1  0.16901812  0.32408283  0.20698705  1
  O2-  O436  1  0.19644556  0.40235128  0.58189524  1
  O2-  O437  1  0.16637724  0.32746703  0.85332029  1
  O2-  O438  1  0.12818762  0.58917445  0.19634683  1
  O2-  O439  1  0.16662306  0.56168405  0.49643998  1
  O2-  O440  1  0.15642310  0.57114745  0.84976622  1
  O2-  O441  1  0.16278166  0.82513036  0.18354228  1
  O2-  O442  1  0.18410502  0.84097858  0.52923457  1
  O2-  O443  1  0.14072182  0.82759443  0.84543877  1
  O2-  O444  1  0.40474758  0.07949091  0.18726772  1
  O2-  O445  1  0.42043220  0.08871708  0.50976352  1
  O2-  O446  1  0.40495918  0.07716501  0.86523117  1
  O2-  O447  1  0.41614417  0.32887042  0.19970804  1
  O2-  O448  1  0.38445457  0.32043132  0.52244749  1
  O2-  O449  1  0.44208666  0.35250686  0.86182208  1
  O2-  O450  1  0.39157179  0.56548103  0.19544860  1
  O2-  O451  1  0.41867088  0.58788366  0.52239557  1
  O2-  O452  1  0.42860285  0.59370287  0.84557174  1
  O2-  O453  1  0.40783322  0.82570467  0.20087549  1
  O2-  O454  1  0.40958473  0.82352853  0.51342855  1
  O2-  O455  1  0.38857852  0.82843310  0.84031541  1
  O2-  O456  1  0.67992272  0.12176432  0.20010742  1
  O2-  O457  1  0.68745577  0.10351895  0.48391006  1
  O2-  O458  1  0.68946508  0.12128017  0.89021637  1
  O2-  O459  1  0.73289725  0.42407577  0.20917264  1
  O2-  O460  1  0.67825825  0.35651810  0.50575785  1
  O2-  O461  1  0.70189509  0.34829948  0.85660120  1
  O2-  O462  1  0.66093766  0.58080248  0.19698923  1
  O2-  O463  1  0.69538788  0.60332320  0.52950484  1
  O2-  O464  1  0.69229355  0.60477444  0.85663483  1
  O2-  O465  1  0.64269487  0.81069439  0.19234322  1
  O2-  O466  1  0.66518352  0.83726000  0.51947535  1
  O2-  O467  1  0.67073485  0.82867992  0.84406021  1
  O2-  O468  1  0.93039961  0.08258465  0.20536071  1
  O2-  O469  1  0.92793031  0.08100898  0.54382714  1
  O2-  O470  1  0.91427843  0.07680849  0.85152847  1
  O2-  O471  1  0.91331249  0.30677655  0.18431427  1
  O2-  O472  1  0.93471674  0.34936021  0.50928411  1
  O2-  O473  1  0.92993429  0.30939328  0.80322877  1
  O2-  O474  1  0.91203905  0.61084724  0.18825117  1
  O2-  O475  1  0.93925209  0.59569507  0.45770496  1
  O2-  O476  1  0.91128003  0.59934742  0.85800014  1
  O2-  O477  1  0.93180304  0.83053540  0.20805789  1
  O2-  O478  1  0.92309929  0.84087452  0.51780370  1
  O2-  O479  1  0.92080282  0.84515515  0.85608776  1
  O2-  O480  1  0.16519701  0.07696548  0.32101179  1
  O2-  O481  1  0.14551769  0.07348764  0.63559187  1
  O2-  O482  1  0.15555978  0.08083487  0.95820657  1
  O2-  O483  1  0.15763284  0.32775971  0.33113293  1
  O2-  O484  1  0.16028738  0.30943302  0.59108561  1
  O2-  O485  1  0.15598364  0.32851008  0.97807961  1
  O2-  O486  1  0.14532927  0.58251198  0.32417623  1
  O2-  O487  1  0.17742508  0.59297361  0.64101023  1
  O2-  O488  1  0.16369834  0.58003450  0.97765310  1
  O2-  O489  1  0.16770807  0.83240119  0.30904686  1
  O2-  O490  1  0.19180024  0.84145430  0.65501244  1
  O2-  O491  1  0.15699641  0.83367729  0.96146252  1
  O2-  O492  1  0.41634340  0.08637580  0.30890132  1
  O2-  O493  1  0.41203279  0.07913404  0.63037933  1
  O2-  O494  1  0.41895514  0.06477127  0.98730449  1
  O2-  O495  1  0.41831827  0.34089216  0.32149451  1
  O2-  O496  1  0.35639950  0.30306066  0.63924203  1
  O2-  O497  1  0.40762917  0.33203668  0.98584545  1
  O2-  O498  1  0.38049850  0.56916218  0.31052515  1
  O2-  O499  1  0.41118096  0.58331761  0.64846876  1
  O2-  O500  1  0.40393576  0.56406514  0.99577566  1
  O2-  O501  1  0.41145859  0.82943788  0.32246887  1
  O2-  O502  1  0.39831917  0.82670284  0.63350120  1
  O2-  O503  1  0.41281406  0.82871981  0.96240255  1
  O2-  O504  1  0.67047318  0.09039585  0.32380910  1
  O2-  O505  1  0.63859426  0.06284414  0.62740593  1
  O2-  O506  1  0.61191208  -0.02908611  0.95106473  1
  O2-  O507  1  0.67677398  0.33524458  0.31670695  1
  O2-  O508  1  0.68392195  0.34291498  0.63418561  1
  O2-  O509  1  0.56071834  0.29150919  0.94033157  1
  O2-  O510  1  0.69277717  0.57963519  0.32117993  1
  O2-  O511  1  0.70105604  0.60322867  0.66096173  1
  O2-  O512  1  0.64871984  0.57231129  0.99355196  1
  O2-  O513  1  0.65795669  0.81755569  0.31628905  1
  O2-  O514  1  0.67490610  0.85605514  0.64520390  1
  O2-  O515  1  0.71104129  0.89846373  0.95423176  1
  O2-  O516  1  0.92474053  0.08052601  0.33046031  1
  O2-  O517  1  0.93958758  0.08613775  0.66353612  1
  O2-  O518  1  0.91744901  0.07872277  0.97726122  1
  O2-  O519  1  0.94930457  0.38048153  0.30316954  1
  O2-  O520  1  0.95664560  0.35810120  0.62773261  1
  O2-  O521  1  0.88549589  0.32431227  1.00490062  1
  O2-  O522  1  0.97043659  0.68637259  0.29121780  1
  O2-  O523  1  0.93559423  0.60053096  0.65841777  1
  O2-  O524  1  0.93421975  0.60740911  0.97673983  1
  O2-  O525  1  0.90414155  0.80998474  0.33242755  1
  O2-  O526  1  0.89176211  0.81561649  0.64730776  1
  O2-  O527  1  0.92749858  0.84778878  0.97516883  1
  O2-  O528  1  0.07055691  0.17635860  0.04247434  1
  O2-  O529  1  0.08973813  0.16044089  0.37217374  1
  O2-  O530  1  0.08742501  0.17055884  0.72840177  1
  O2-  O531  1  0.08543861  0.42120880  0.03894126  1
  O2-  O532  1  0.08718786  0.42602238  0.37252010  1
  O2-  O533  1  0.12631160  0.44287509  0.66110878  1
  O2-  O534  1  0.08421547  0.67837736  0.01322154  1
  O2-  O535  1  0.05282814  0.64966864  0.36441842  1
  O2-  O536  1  0.09884785  0.66758939  0.68790528  1
  O2-  O537  1  0.08667515  0.92162654  0.01809151  1
  O2-  O538  1  0.08624615  0.91048044  0.35465335  1
  O2-  O539  1  0.05599024  0.90921507  0.69051899  1
  O2-  O540  1  0.33655700  0.16068367  -0.02184521  1
  O2-  O541  1  0.33759054  0.17224397  0.35216679  1
  O2-  O542  1  0.30863837  0.14293128  0.67581503  1
  O2-  O543  1  0.31356876  0.40134002  0.02799377  1
  O2-  O544  1  0.32384076  0.42199324  0.36342005  1
  O2-  O545  1  0.31554477  0.42310520  0.69248676  1
  O2-  O546  1  0.33502158  0.66513833  0.01778993  1
  O2-  O547  1  0.31996683  0.65949314  0.35248517  1
  O2-  O548  1  0.33125675  0.66713480  0.68080240  1
  O2-  O549  1  0.36346032  0.91320100  0.03220025  1
  O2-  O550  1  0.33500981  0.92291708  0.35201895  1
  O2-  O551  1  0.35179193  0.92180185  0.67454675  1
  O2-  O552  1  0.58266079  0.14884729  0.02155988  1
  O2-  O553  1  0.58117827  0.17283144  0.34932765  1
  O2-  O554  1  0.58638134  0.16651188  0.65401372  1
  O2-  O555  1  0.56969297  0.40453719  0.03004382  1
  O2-  O556  1  0.63757459  0.42831613  0.39668127  1
  O2-  O557  1  0.62425890  0.43573060  0.69507583  1
  O2-  O558  1  0.52552580  0.57585234  0.05004541  1
  O2-  O559  1  0.59209410  0.64566452  0.36496651  1
  O2-  O560  1  0.57895323  0.65197555  0.69807252  1
  O2-  O561  1  0.53835974  0.94850844  0.06617467  1
  O2-  O562  1  0.58330962  0.92855625  0.36163461  1
  O2-  O563  1  0.58166905  0.91848798  0.68422001  1
  O2-  O564  1  0.83372763  0.14682388  0.03417447  1
  O2-  O565  1  0.82964376  0.15617204  0.36800511  1
  O2-  O566  1  0.82133011  0.14017416  0.65134897  1
  O2-  O567  1  0.90902028  0.48346051  0.04175720  1
  O2-  O568  1  0.80639400  0.33094891  0.37118227  1
  O2-  O569  1  0.85357739  0.42024013  0.67404477  1
  O2-  O570  1  0.84565408  0.69465691  0.01866520  1
  O2-  O571  1  0.86343798  0.71614731  0.34600401  1
  O2-  O572  1  0.82206948  0.61585234  0.74213542  1
  O2-  O573  1  0.85019753  0.92339402  0.03595405  1
  O2-  O574  1  0.82778818  0.90907243  0.36337582  1
  O2-  O575  1  0.83928714  0.91868134  0.68872762  1
