# generated using pymatgen
data_H2O
_symmetry_space_group_name_H-M   'P 1'
_cell_length_a   17.99127590
_cell_length_b   17.99112061
_cell_length_c   22.00276743
_cell_angle_alpha   90.00035177
_cell_angle_beta   89.99286875
_cell_angle_gamma   120.00130606
_symmetry_Int_Tables_number   1
_chemical_formula_structural   H2O
_chemical_formula_sum   'H384 O192'
_cell_volume   6167.68803262
_cell_formula_units_Z   192
loop_
 _symmetry_equiv_pos_site_id
 _symmetry_equiv_pos_as_xyz
  1  'x, y, z'
loop_
 _atom_type_symbol
 _atom_type_oxidation_number
  H+  1.0
  O2-  -2.0
loop_
 _atom_site_type_symbol
 _atom_site_label
 _atom_site_symmetry_multiplicity
 _atom_site_fract_x
 _atom_site_fract_y
 _atom_site_fract_z
 _atom_site_occupancy
  H+  H0  1  0.13080179  0.87574729  0.17069754  1
  H+  H1  1  0.13986208  0.27416640  0.84375681  1
  H+  H2  1  0.21504019  0.85485484  0.98381147  1
  H+  H3  1  0.36869761  0.11537918  0.33264835  1
  H+  H4  1  0.80903098  0.69708970  0.44516011  1
  H+  H5  1  0.37700432  0.12710827  0.48073889  1
  H+  H6  1  0.05171672  0.05954508  0.04385415  1
  H+  H7  1  0.39120466  0.36677223  0.84147460  1
  H+  H8  1  0.18068736  0.98465310  0.47369211  1
  H+  H9  1  0.34788485  0.87160133  0.49332561  1
  H+  H10  1  0.61446550  0.13783847  0.32007353  1
  H+  H11  1  0.05080247  0.30918877  0.54488395  1
  H+  H12  1  0.63584733  0.76839883  -0.00047000  1
  H+  H13  1  0.36025169  0.38863767  0.99848537  1
  H+  H14  1  0.26845304  0.64436893  0.48763028  1
  H+  H15  1  0.97846231  0.88568117  0.85152100  1
  H+  H16  1  0.07933815  0.15183970  0.10960414  1
  H+  H17  1  0.12510473  0.40371773  0.48258533  1
  H+  H18  1  0.39197771  0.61802641  0.32856737  1
  H+  H19  1  0.61170482  0.64508849  0.82880080  1
  H+  H20  1  0.70067926  0.60036344  0.19774470  1
  H+  H21  1  0.88897387  1.02822074  -0.00136169  1
  H+  H22  1  0.02380229  0.38230889  0.00229460  1
  H+  H23  1  1.00106405  0.89348696  0.50894094  1
  H+  H24  1  0.63633520  0.28473284  0.50320579  1
  H+  H25  1  0.61439753  0.63339970  1.00889539  1
  H+  H26  1  0.48368084  0.60694424  -0.00824101  1
  H+  H27  1  0.59783736  0.88591078  0.83155734  1
  H+  H28  1  0.70076403  0.59682261  0.50137003  1
  H+  H29  1  0.10297527  0.71915628  0.50042799  1
  H+  H30  1  0.86669187  0.23438162  0.35417266  1
  H+  H31  1  0.39158580  0.52320233  0.16978160  1
  H+  H32  1  0.52564394  0.14947372  0.00747080  1
  H+  H33  1  0.37104138  0.61007639  0.50827028  1
  H+  H34  1  0.87028374  -0.02371624  0.18314309  1
  H+  H35  1  0.90701498  0.80112794  0.31612195  1
  H+  H36  1  0.72894812  0.61706432  -0.01686811  1
  H+  H37  1  0.62159096  0.73645720  0.48816226  1
  H+  H38  1  0.10418884  0.88875593  0.82637858  1
  H+  H39  1  -0.05675162  0.32664521  0.57479385  1
  H+  H40  1  0.60846769  0.64043993  0.48847055  1
  H+  H41  1  0.08940463  0.13413472  0.50868053  1
  H+  H42  1  0.85336386  0.64706822  0.66917932  1
  H+  H43  1  0.86859003  0.74089774  -0.01570815  1
  H+  H44  1  0.11753376  0.51201184  0.17150401  1
  H+  H45  1  0.13576670  0.31956327  0.57875362  1
  H+  H46  1  0.90855174  0.26327789  0.51794651  1
  H+  H47  1  0.52835594  0.39212136  0.00739904  1
  H+  H48  1  0.97590822  0.61179790  0.99486678  1
  H+  H49  1  0.11058892  0.63642805  0.01929360  1
  H+  H50  1  0.35805210  0.23295731  0.34261778  1
  H+  H51  1  0.62961059  0.23673176  0.15146027  1
  H+  H52  1  0.39541394  0.79002252  0.99428347  1
  H+  H53  1  0.85402537  0.65642872  0.18260454  1
  H+  H54  1  1.00038668  0.61777275  0.81887230  1
  H+  H55  1  0.04631895  0.64592934  0.33985202  1
  H+  H56  1  0.33657693  0.42441718  0.39227885  1
  H+  H57  1  0.10440703  0.63083443  0.49797398  1
  H+  H58  1  0.37117767  0.87432290  0.16383751  1
  H+  H59  1  0.61349553  0.59417450  0.17914730  1
  H+  H60  1  0.86396290  0.89672390  1.01737774  1
  H+  H61  1  0.13113944  0.78238702  0.33548978  1
  H+  H62  1  0.43426049  0.04229392  0.85811096  1
  H+  H63  1  0.10345540  0.12595622  0.68000766  1
  H+  H64  1  0.11153930  0.47083645  1.01943826  1
  H+  H65  1  0.10623837  0.46592575  0.80823963  1
  H+  H66  1  0.52720694  0.31106045  0.70664198  1
  H+  H67  1  0.82879283  0.65957341  0.76972116  1
  H+  H68  1  0.19310493  0.71084576  0.71397811  1
  H+  H69  1  0.88938021  0.61506928  0.98423460  1
  H+  H70  1  0.45931929  0.75102096  0.04881094  1
  H+  H71  1  0.27594509  0.39593554  0.33347374  1
  H+  H72  1  0.63890963  0.86732488  0.51219676  1
  H+  H73  1  -0.02880929  0.11754300  0.83175855  1
  H+  H74  1  0.52744586  0.39014318  0.83045641  1
  H+  H75  1  0.27255340  0.63147394  0.66887934  1
  H+  H76  1  0.86060925  0.13546790  0.81050877  1
  H+  H77  1  0.22284412  0.12606950  0.32782518  1
  H+  H78  1  1.01965460  0.14990087  0.33978639  1
  H+  H79  1  0.63352278  0.86126553  0.66030977  1
  H+  H80  1  0.61825292  0.89471085  0.35047883  1
  H+  H81  1  0.64416857  0.36943541  0.84026497  1
  H+  H82  1  0.89306242  0.36251044  -0.01253817  1
  H+  H83  1  0.51606654  0.88257467  0.66989841  1
  H+  H84  1  0.38413073  0.01495570  0.18237647  1
  H+  H85  1  0.88535654  0.26474748  0.66046249  1
  H+  H86  1  0.07873946  0.67264483  0.07208723  1
  H+  H87  1  0.35015184  0.97428318  0.34322285  1
  H+  H88  1  0.64644045  0.54138467  0.66426380  1
  H+  H89  1  0.73473390  0.63163325  0.66191013  1
  H+  H90  1  0.98250144  0.36845282  0.32838388  1
  H+  H91  1  0.13923902  0.53071378  0.50060879  1
  H+  H92  1  0.39371119  0.28338830  0.99840404  1
  H+  H93  1  0.01306829  0.11299817  0.01448267  1
  H+  H94  1  0.10719140  0.14950997  0.33682087  1
  H+  H95  1  0.12983429  0.76296093  0.99098095  1
  H+  H96  1  0.86704454  0.47530042  0.00284858  1
  H+  H97  1  0.23558786  0.11933579  0.83405752  1
  H+  H98  1  0.65320995  0.83368276  0.26812732  1
  H+  H99  1  0.62645459  0.23966129  0.81999883  1
  H+  H100  1  0.92468342  0.87521451  0.26853132  1
  H+  H101  1  0.71741679  0.86155481  0.32565856  1
  H+  H102  1  0.15629348  0.83301677  0.60234552  1
  H+  H103  1  0.48138657  0.02613031  0.53390434  1
  H+  H104  1  0.77775385  0.14283380  0.99709919  1
  H+  H105  1  0.77329161  0.88620255  0.67412336  1
  H+  H106  1  0.13529019  0.28447378  0.33201357  1
  H+  H107  1  0.13833968  1.01338637  0.17883271  1
  H+  H108  1  0.61831504  0.24169908  1.00186002  1
  H+  H109  1  0.46253316  0.86315440  0.83828075  1
  H+  H110  1  0.77142274  0.88648699  0.49694008  1
  H+  H111  1  0.62529557  0.22205869  0.66325166  1
  H+  H112  1  0.63033539  0.02371226  0.83456824  1
  H+  H113  1  0.14324473  0.52755251  0.31683104  1
  H+  H114  1  0.55913743  0.15417937  0.27210671  1
  H+  H115  1  0.35701823  0.99648467  0.01313324  1
  H+  H116  1  0.61566366  0.13566447  0.14113517  1
  H+  H117  1  0.39264855  0.02594243  0.66285384  1
  H+  H118  1  0.01967702  0.37465918  0.82256289  1
  H+  H119  1  0.11397758  0.39130566  0.33280993  1
  H+  H120  1  0.86171893  0.37750876  0.82394038  1
  H+  H121  1  0.75569998  0.10745691  0.14596913  1
  H+  H122  1  0.63086063  0.52736726  0.83918227  1
  H+  H123  1  0.27686402  0.38835044  0.82881614  1
  H+  H124  1  0.85782611  0.89616079  0.34044468  1
  H+  H125  1  0.34383669  0.86857825  0.82363297  1
  H+  H126  1  0.61539193  0.97891846  0.51506864  1
  H+  H127  1  0.09967215  -0.00683359  0.66444878  1
  H+  H128  1  0.94284633  0.91518858  0.15863659  1
  H+  H129  1  0.36716853  0.39570882  0.67137186  1
  H+  H130  1  0.63973843  0.11708799  0.83276462  1
  H+  H131  1  0.38747687  0.26261219  0.17284849  1
  H+  H132  1  0.87496281  1.02878956  0.32943944  1
  H+  H133  1  0.92257393  0.80160878  0.51452751  1
  H+  H134  1  0.62631844  0.85520496  0.16152283  1
  H+  H135  1  0.39138131  0.52683850  0.32768550  1
  H+  H136  1  0.36913656  0.86193304  0.99487249  1
  H+  H137  1  0.12044308  0.14457082  0.83186197  1
  H+  H138  1  0.62312892  0.13215145  0.66365646  1
  H+  H139  1  0.97143178  0.61636672  0.50057347  1
  H+  H140  1  0.76508606  0.62654565  0.82606459  1
  H+  H141  1  0.19211446  0.07343241  0.65013097  1
  H+  H142  1  0.84747189  0.34643923  0.17577158  1
  H+  H143  1  0.11282887  0.21997715  0.67848750  1
  H+  H144  1  0.88144512  1.02848989  0.82729804  1
  H+  H145  1  0.87383758  0.01507327  0.51508431  1
  H+  H146  1  0.47719276  0.61905326  0.66463017  1
  H+  H147  1  0.27215877  0.95276310  0.05077841  1
  H+  H148  1  0.32714809  0.72276762  0.14180322  1
  H+  H149  1  0.39621343  0.13159216  0.99998044  1
  H+  H150  1  0.62488265  0.98641321  0.35279950  1
  H+  H151  1  0.97431392  0.10619280  0.66846651  1
  H+  H152  1  0.62828085  0.78012318  0.84568933  1
  H+  H153  1  0.31922388  0.94323210  0.82335381  1
  H+  H154  1  0.92304374  0.85527447  0.94474018  1
  H+  H155  1  0.67542057  0.59929332  0.32316852  1
  H+  H156  1  0.85690035  0.68611652  0.27424671  1
  H+  H157  1  0.36603355  0.64224160  0.67221540  1
  H+  H158  1  0.87078762  0.59526021  0.83799013  1
  H+  H159  1  0.67086344  0.33895711  0.93213331  1
  H+  H160  1  0.64099986  0.36953766  -0.00758362  1
  H+  H161  1  0.14202878  0.60117730  0.66012575  1
  H+  H162  1  0.86514088  0.89422648  0.49377133  1
  H+  H163  1  0.77810380  0.38695860  0.00211322  1
  H+  H164  1  0.86163801  0.88153142  0.67949443  1
  H+  H165  1  0.50431802  0.13501704  0.84031008  1
  H+  H166  1  0.58938792  0.46350594  0.49606558  1
  H+  H167  1  0.48436557  0.37772855  0.64702732  1
  H+  H168  1  0.88230611  0.26551245  0.83035678  1
  H+  H169  1  0.64679388  0.12446752  0.98654010  1
  H+  H170  1  0.58242228  0.67463600  0.40340719  1
  H+  H171  1  0.85191038  0.12798969  0.50869826  1
  H+  H172  1  0.45484069  0.34005446  0.49857065  1
  H+  H173  1  0.24054873  0.63118337  0.14692951  1
  H+  H174  1  0.40661328  0.62294285  -0.00518402  1
  H+  H175  1  0.38497431  0.36763463  0.32310764  1
  H+  H176  1  0.36532085  0.47782059  0.82776257  1
  H+  H177  1  0.35097293  0.95959002  0.49689433  1
  H+  H178  1  0.73039741  0.11461427  0.54673390  1
  H+  H179  1  0.97624172  0.86600168  1.00660323  1
  H+  H180  1  0.40919658  0.83167987  0.56494217  1
  H+  H181  1  0.13712297  0.36275072  0.83929184  1
  H+  H182  1  0.35468173  0.38796838  0.48481975  1
  H+  H183  1  0.99874658  0.36824069  0.15717983  1
  H+  H184  1  0.45556445  0.11051260  0.33115585  1
  H+  H185  1  0.48925256  0.11005266  0.66131715  1
  H+  H186  1  0.27185552  0.12817774  0.15975827  1
  H+  H187  1  0.40295788  0.29033087  0.65615555  1
  H+  H188  1  0.14397713  0.78090962  0.66379433  1
  H+  H189  1  0.88404605  0.57151658  0.58658872  1
  H+  H190  1  0.13610203  0.35417691  0.66704463  1
  H+  H191  1  0.74042513  0.12856738  0.34295136  1
  H+  H192  1  0.39972805  0.58224962  0.56863760  1
  H+  H193  1  0.11725266  0.03686319  0.50455569  1
  H+  H194  1  0.35953695  0.12542739  0.16209097  1
  H+  H195  1  0.64241161  0.52525451  0.99519752  1
  H+  H196  1  0.86141168  0.12853696  0.66815123  1
  H+  H197  1  0.50931463  0.63486992  0.33944460  1
  H+  H198  1  0.37802296  0.38814637  0.15430433  1
  H+  H199  1  0.73710784  0.10615419  0.64346377  1
  H+  H200  1  0.34410307  0.41765765  0.09781717  1
  H+  H201  1  0.48848243  0.87257810  0.32581082  1
  H+  H202  1  0.24066936  0.37849062  0.98835519  1
  H+  H203  1  0.61003642  0.37893883  0.34185595  1
  H+  H204  1  0.73222193  0.36537341  0.83756898  1
  H+  H205  1  0.11452056  0.34681936  0.18022041  1
  H+  H206  1  -0.00705066  0.87198318  0.67791332  1
  H+  H207  1  0.37361255  0.73080683  0.33439740  1
  H+  H208  1  0.09757435  0.66948786  0.73362128  1
  H+  H209  1  0.51290145  0.62921657  0.15973631  1
  H+  H210  1  0.11517541  0.72595823  0.16758473  1
  H+  H211  1  0.60421667  0.73187729  0.33750858  1
  H+  H212  1  0.26839856  0.89418407  0.66554679  1
  H+  H213  1  0.79339422  0.27399712  0.22245393  1
  H+  H214  1  0.47418245  0.84287140  0.15637816  1
  H+  H215  1  0.47312177  0.86704284  0.50838468  1
  H+  H216  1  0.60720488  -0.00839396  0.13344985  1
  H+  H217  1  0.08597274  0.71024339  0.82308174  1
  H+  H218  1  0.53145071  0.14348285  0.48662159  1
  H+  H219  1  0.35895262  0.73116327  0.48857699  1
  H+  H220  1  0.10337188  0.87344444  0.00782260  1
  H+  H221  1  0.58472235  0.67399554  0.73492916  1
  H+  H222  1  0.52189500  0.64296196  0.82677328  1
  H+  H223  1  0.72626690  0.37364245  0.50358857  1
  H+  H224  1  0.88714801  0.87917892  0.85197773  1
  H+  H225  1  0.72899177  0.36699671  0.16549149  1
  H+  H226  1  0.73600489  0.35562896  0.65600875  1
  H+  H227  1  0.83131160  0.20145471  0.15925923  1
  H+  H228  1  0.13714348  0.50975695  0.65893333  1
  H+  H229  1  0.09089603  0.87817119  0.67615940  1
  H+  H230  1  0.86200132  0.14328432  0.35079341  1
  H+  H231  1  0.21524062  0.85119619  0.50938702  1
  H+  H232  1  0.11644562  0.89636471  0.33848077  1
  H+  H233  1  0.14065730  0.37204174  -0.00882493  1
  H+  H234  1  0.63690383  0.77449041  0.66203684  1
  H+  H235  1  0.13008621  0.85620951  0.50538434  1
  H+  H236  1  0.78057917  0.39398615  0.33553462  1
  H+  H237  1  0.88987425  0.35686598  0.66099989  1
  H+  H238  1  0.61558753  0.35946424  0.67403964  1
  H+  H239  1  0.97853229  0.11200730  0.17762202  1
  H+  H240  1  0.97331377  0.61309961  0.16964858  1
  H+  H241  1  0.36239891  0.47989920  0.99927945  1
  H+  H242  1  0.77635430  0.89594601  0.01409320  1
  H+  H243  1  0.85890217  0.46806325  0.66889500  1
  H+  H244  1  0.79609970  0.52407317  0.61942561  1
  H+  H245  1  0.84094740  0.73833776  0.18497139  1
  H+  H246  1  0.52293166  0.37444833  0.15942140  1
  H+  H247  1  -0.00815830  0.12740038  0.50895112  1
  H+  H248  1  0.21026514  0.60467226  0.98535674  1
  H+  H249  1  0.19737624  0.83559227  0.83172561  1
  H+  H250  1  0.08081305  0.22678910  0.51283642  1
  H+  H251  1  0.14428050  0.03164838  0.83637479  1
  H+  H252  1  0.22705294  0.35796721  0.66218677  1
  H+  H253  1  0.61512650  0.64483685  0.67487151  1
  H+  H254  1  0.21260182  0.60337638  0.80446815  1
  H+  H255  1  0.76557621  0.89152592  0.82996560  1
  H+  H256  1  0.11037111  0.12641319  0.16948294  1
  H+  H257  1  0.38748021  0.52989618  0.66612148  1
  H+  H258  1  0.86743261  0.38990204  0.34222504  1
  H+  H259  1  0.28890820  0.15483047  1.00384075  1
  H+  H260  1  0.92055791  0.62069128  0.31579731  1
  H+  H261  1  0.38322977  0.61225429  0.83776279  1
  H+  H262  1  0.85562681  0.47767782  0.49047342  1
  H+  H263  1  0.86517847  0.47919099  0.15659424  1
  H+  H264  1  0.12064398  0.59859452  0.80426815  1
  H+  H265  1  0.37924823  0.77207633  0.65755965  1
  H+  H266  1  0.31739791  0.16481088  0.68044705  1
  H+  H267  1  0.86088442  0.46705526  0.82558185  1
  H+  H268  1  0.84300134  0.68104335  -0.07275986  1
  H+  H269  1  0.38021004  0.14358936  0.83316346  1
  H+  H270  1  0.88016720  0.61226408  0.48881331  1
  H+  H271  1  0.35850045  0.47846081  0.48893299  1
  H+  H272  1  0.22101221  0.87062223  0.33164283  1
  H+  H273  1  0.15581798  0.13211419  0.99045781  1
  H+  H274  1  0.64337233  0.27913851  0.31591913  1
  H+  H275  1  0.21701387  0.62014293  1.05593814  1
  H+  H276  1  0.77062782  0.13585577  0.81414384  1
  H+  H277  1  0.36216138  0.68629065  0.06611262  1
  H+  H278  1  0.65610997  0.50957384  0.34948344  1
  H+  H279  1  0.53058598  0.89868497  1.03914076  1
  H+  H280  1  0.88468031  0.01449307  0.66890515  1
  H+  H281  1  0.90320364  0.52446089  0.32492793  1
  H+  H282  1  0.23351959  0.61478819  0.31469558  1
  H+  H283  1  0.35293797  0.72088805  0.82498727  1
  H+  H284  1  0.39675882  0.15022622  0.67209319  1
  H+  H285  1  0.88616917  0.10740822  0.17164651  1
  H+  H286  1  0.47167073  0.36295439  0.32747221  1
  H+  H287  1  0.82309167  0.91994709  0.39942919  1
  H+  H288  1  0.16713361  0.08007115  0.23492679  1
  H+  H289  1  0.43885984  0.06887284  0.57181078  1
  H+  H290  1  0.33536930  0.41821520  0.73324594  1
  H+  H291  1  0.60259781  0.38214432  0.49783082  1
  H+  H292  1  0.34053571  0.17204776  0.06802608  1
  H+  H293  1  0.02369978  0.37496564  0.67179928  1
  H+  H294  1  0.39693327  0.07284658  0.23982952  1
  H+  H295  1  0.33629952  0.91123087  0.11156604  1
  H+  H296  1  0.13698119  0.03583434  0.32814393  1
  H+  H297  1  0.61304972  0.03585769  0.19550727  1
  H+  H298  1  0.66826868  0.83262773  0.56860999  1
  H+  H299  1  0.71590055  0.85907169  0.17662969  1
  H+  H300  1  0.16678144  0.58097069  0.56391860  1
  H+  H301  1  0.63568292  0.35975424  0.16695157  1
  H+  H302  1  0.18545530  0.55998700  0.90612039  1
  H+  H303  1  0.33416303  0.66758971  0.76312702  1
  H+  H304  1  0.63160218  0.85234014  1.01045885  1
  H+  H305  1  0.82434982  0.15866079  0.72384683  1
  H+  H306  1  0.67322390  0.34423539  0.26181201  1
  H+  H307  1  0.33540212  0.67183653  0.39368583  1
  H+  H308  1  0.10551523  0.63263132  0.16177446  1
  H+  H309  1  0.65706059  0.83716749  0.90616926  1
  H+  H310  1  0.35409900  0.19971545  0.49340473  1
  H+  H311  1  0.03071279  0.90569959  0.34114449  1
  H+  H312  1  0.08641885  0.42768577  0.38975494  1
  H+  H313  1  0.86285581  0.65691942  0.08309112  1
  H+  H314  1  0.42132618  0.33928321  0.93693990  1
  H+  H315  1  0.41716877  0.58557108  0.89729714  1
  H+  H316  1  0.39868458  0.86820848  0.31844320  1
  H+  H317  1  0.41709753  0.32528084  0.23087920  1
  H+  H318  1  0.59572345  0.17590386  0.76063450  1
  H+  H319  1  0.08206114  0.40207234  0.73134160  1
  H+  H320  1  0.40196075  0.83490801  0.89745703  1
  H+  H321  1  0.65411289  0.58170186  0.56566275  1
  H+  H322  1  0.83741302  0.41934898  0.09553988  1
  H+  H323  1  0.65927177  0.58467775  0.89922315  1
  H+  H324  1  0.10559182  0.93779763  0.42498683  1
  H+  H325  1  0.32266226  0.90804688  0.39825684  1
  H+  H326  1  0.67178175  0.08998436  0.92826836  1
  H+  H327  1  0.14381202  0.81525990  0.89325624  1
  H+  H328  1  0.90965912  0.57143651  0.89701944  1
  H+  H329  1  0.89194019  0.27299760  0.98970770  1
  H+  H330  1  0.17231950  0.83132279  0.24368201  1
  H+  H331  1  0.92205973  0.57479433  0.23018775  1
  H+  H332  1  0.12376626  0.26355082  0.18307311  1
  H+  H333  1  0.03594586  0.39469896  0.48755567  1
  H+  H334  1  0.32689429  0.16584038  0.40010569  1
  H+  H335  1  0.56796553  0.19159134  0.42456677  1
  H+  H336  1  0.39519341  0.27929023  0.84314196  1
  H+  H337  1  0.58721903  0.41642240  0.06700947  1
  H+  H338  1  0.39887247  0.31822505  0.55729717  1
  H+  H339  1  0.07403872  0.92050150  0.76889381  1
  H+  H340  1  0.57480082  0.40215948  0.40293345  1
  H+  H341  1  0.58651125  0.41245130  0.77121741  1
  H+  H342  1  0.03748818  0.86213523  0.16745945  1
  H+  H343  1  0.08802827  0.67823678  0.40504450  1
  H+  H344  1  0.82592449  0.41747999  0.43292220  1
  H+  H345  1  0.82373321  0.16438112  0.45261820  1
  H+  H346  1  0.23772908  0.85483141  0.18595768  1
  H+  H347  1  0.08824787  0.90262927  0.07270787  1
  H+  H348  1  0.91505446  0.32285961  0.89205513  1
  H+  H349  1  0.82212514  0.65426361  0.33892113  1
  H+  H350  1  0.13736017  0.53993771  0.90821133  1
  H+  H351  1  0.86251243  0.74345717  0.67543983  1
  H+  H352  1  0.18851530  0.11037757  0.92835153  1
  H+  H353  1  0.59100829  0.93207622  0.44914154  1
  H+  H354  1  0.36256387  0.17789100  0.77156913  1
  H+  H355  1  0.32294994  0.91062796  0.72575327  1
  H+  H356  1  0.89891593  0.12082461  -0.00699150  1
  H+  H357  1  0.83280069  0.16559364  0.05827723  1
  H+  H358  1  0.83725857  0.41222958  0.73083141  1
  H+  H359  1  0.41724015  0.58397749  0.22783287  1
  H+  H360  1  0.60501646  0.71574411  0.15997208  1
  H+  H361  1  0.59491253  0.18271002  0.07766108  1
  H+  H362  1  0.37951088  0.86205303  0.65623775  1
  H+  H363  1  0.42388555  0.81789498  0.22097327  1
  H+  H364  1  0.69537622  0.08688778  0.28077413  1
  H+  H365  1  0.75259778  0.60822004  0.41354158  1
  H+  H366  1  0.90529815  0.07101586  0.57874441  1
  H+  H367  1  0.57862438  0.65779033  0.06863551  1
  H+  H368  1  0.57128927  0.91323192  0.76934319  1
  H+  H369  1  0.43009952  0.10107573  0.94183943  1
  H+  H370  1  0.87768823  0.63038976  0.10011222  1
  H+  H371  1  0.12730842  0.07340722  0.57201363  1
  H+  H372  1  0.91164858  0.83808970  0.61515374  1
  H+  H373  1  0.60698425  0.46684208  0.16429452  1
  H+  H374  1  0.16134705  0.33698833  0.26985720  1
  H+  H375  1  0.08709894  0.17248227  0.77430481  1
  H+  H376  1  0.82326467  0.91321474  0.76954983  1
  H+  H377  1  0.60609408  0.96908801  0.66713823  1
  H+  H378  1  0.16125837  0.57744461  0.22875932  1
  H+  H379  1  0.06216999  0.39630130  0.10073407  1
  H+  H380  1  0.90825403  0.09007965  0.27128803  1
  H+  H381  1  0.67499042  0.33274093  0.59546703  1
  H+  H382  1  0.91041090  0.32818010  0.27539388  1
  H+  H383  1  0.17125044  0.34332776  0.92479561  1
  O2-  O384  1  0.07925226  0.15623029  0.15509123  1
  O2-  O385  1  0.05487645  0.16440558  0.49488737  1
  O2-  O386  1  0.09030908  0.17638830  0.81963741  1
  O2-  O387  1  0.05910018  0.40036984  0.14587383  1
  O2-  O388  1  0.09324569  0.43177622  0.46812179  1
  O2-  O389  1  0.08031933  0.40131322  0.80766162  1
  O2-  O390  1  0.08058624  0.66883757  0.14745323  1
  O2-  O391  1  0.07209093  0.65977817  0.48348091  1
  O2-  O392  1  0.06106174  0.65233069  0.80372698  1
  O2-  O393  1  0.09599137  0.90236159  0.15458015  1
  O2-  O394  1  0.11884985  0.94419604  0.47106050  1
  O2-  O395  1  0.08389225  0.92864329  0.81389962  1
  O2-  O396  1  0.33233814  0.15802658  0.14474264  1
  O2-  O397  1  0.33197754  0.14145466  0.47477654  1
  O2-  O398  1  0.35120579  0.17335524  0.81590313  1
  O2-  O399  1  0.35354993  0.42429402  0.14182631  1
  O2-  O400  1  0.33166154  0.42228508  0.46676850  1
  O2-  O401  1  0.33707245  0.41670552  0.81333904  1
  O2-  O402  1  0.28708919  0.67107146  0.11805849  1
  O2-  O403  1  0.32816047  0.67221294  0.47119968  1
  O2-  O404  1  0.32843623  0.66180535  0.80852760  1
  O2-  O405  1  0.33859545  0.90595750  0.15595495  1
  O2-  O406  1  0.31502963  0.90093415  0.48048074  1
  O2-  O407  1  0.30548831  0.88911801  0.80407724  1
  O2-  O408  1  0.59810611  0.17875151  0.12949429  1
  O2-  O409  1  0.58386361  0.18822878  0.46630087  1
  O2-  O410  1  0.59412846  0.17809466  0.80592304  1
  O2-  O411  1  0.58436594  0.40830789  0.14507830  1
  O2-  O412  1  0.56552633  0.40395657  0.48010198  1
  O2-  O413  1  0.58864323  0.42042201  0.81592628  1
  O2-  O414  1  0.57530030  0.65604169  0.14462808  1
  O2-  O415  1  0.59481266  0.68031755  0.46635792  1
  O2-  O416  1  0.58290186  0.67653763  0.81288712  1
  O2-  O417  1  0.56696133  0.89388692  0.12331269  1
  O2-  O418  1  0.58410809  0.92277078  0.49400745  1
  O2-  O419  1  0.56719862  0.91516436  0.81438281  1
  O2-  O420  1  0.81807684  0.14627875  0.14018301  1
  O2-  O421  1  0.82433942  0.16271635  0.49780855  1
  O2-  O422  1  0.82924890  0.16732020  0.79604980  1
  O2-  O423  1  0.83248468  0.41805285  0.14105567  1
  O2-  O424  1  0.82053513  0.41688498  0.47790676  1
  O2-  O425  1  0.83077484  0.40715391  0.80811685  1
  O2-  O426  1  0.82280737  0.68176242  0.20282012  1
  O2-  O427  1  0.78878081  0.63616873  0.45072272  1
  O2-  O428  1  0.82535651  0.64659677  0.81387817  1
  O2-  O429  1  0.83603804  0.91150514  0.17737553  1
  O2-  O430  1  0.83127342  0.92059192  0.47961482  1
  O2-  O431  1  0.82551069  0.91882351  0.81492777  1
  O2-  O432  1  0.16658927  0.07518826  0.18925838  1
  O2-  O433  1  0.13282657  0.08935540  0.52795498  1
  O2-  O434  1  0.17614964  0.09349322  0.84950975  1
  O2-  O435  1  0.14794154  0.32294030  0.19849513  1
  O2-  O436  1  0.10697702  0.31115719  0.53800718  1
  O2-  O437  1  0.17042131  0.33665167  0.85778310  1
  O2-  O438  1  0.14972642  0.57355044  0.18251197  1
  O2-  O439  1  0.16580048  0.58938948  0.51902064  1
  O2-  O440  1  0.15151439  0.56798998  0.79252975  1
  O2-  O441  1  0.17581809  0.82698553  0.19805159  1
  O2-  O442  1  0.15449990  0.82361878  0.52490222  1
  O2-  O443  1  0.13862725  0.81374087  0.84786207  1
  O2-  O444  1  0.40779272  0.07538825  0.19545861  1
  O2-  O445  1  0.44748423  0.05448559  0.52906745  1
  O2-  O446  1  0.44618169  0.10123608  0.86154975  1
  O2-  O447  1  0.42194503  0.32393098  0.18579119  1
  O2-  O448  1  0.39423759  0.30695801  0.51301386  1
  O2-  O449  1  0.42451478  0.33993828  0.85760492  1
  O2-  O450  1  0.41853205  0.58472804  0.18313218  1
  O2-  O451  1  0.39490086  0.57488106  0.52409220  1
  O2-  O452  1  0.41554744  0.58345541  0.85182486  1
  O2-  O453  1  0.41502277  0.81592252  0.17647454  1
  O2-  O454  1  0.41096054  0.83526177  0.51934308  1
  O2-  O455  1  0.40082378  0.83171309  0.85194200  1
  O2-  O456  1  0.63353294  0.05237220  0.15392915  1
  O2-  O457  1  0.66990855  0.07832637  0.56203936  1
  O2-  O458  1  0.66748438  0.08467760  0.84763999  1
  O2-  O459  1  0.66882054  0.33049221  0.18117447  1
  O2-  O460  1  0.66591834  0.34296898  0.52234158  1
  O2-  O461  1  0.67174069  0.33593901  0.85415536  1
  O2-  O462  1  0.63829169  0.56141894  0.19914902  1
  O2-  O463  1  0.64356055  0.57222188  0.52110573  1
  O2-  O464  1  0.65950652  0.58788274  0.85376929  1
  O2-  O465  1  0.65454891  0.83009517  0.18753396  1
  O2-  O466  1  0.67015611  0.83631620  0.52288167  1
  O2-  O467  1  0.65480228  0.84032759  0.86087738  1
  O2-  O468  1  0.91698448  0.08194459  0.19273569  1
  O2-  O469  1  0.90178126  0.07462245  0.53280920  1
  O2-  O470  1  0.90830276  0.09161829  0.83347446  1
  O2-  O471  1  0.84724515  0.29808567  0.19987397  1
  O2-  O472  1  0.95998298  0.31614267  0.53357677  1
  O2-  O473  1  0.91427039  0.32582084  0.84679925  1
  O2-  O474  1  0.91326685  0.57951038  0.18551941  1
  O2-  O475  1  0.90858888  0.58745806  0.51264639  1
  O2-  O476  1  0.90387634  0.56600278  0.85194877  1
  O2-  O477  1  0.89738548  0.88113470  0.18815395  1
  O2-  O478  1  0.94027964  0.86176291  0.52086314  1
  O2-  O479  1  0.92201457  0.85744849  0.87207064  1
  O2-  O480  1  0.16363524  0.09442023  0.31017120  1
  O2-  O481  1  0.13184748  0.05609286  0.64627224  1
  O2-  O482  1  0.20159185  0.12404766  0.97209604  1
  O2-  O483  1  0.16746637  0.34508665  0.31577146  1
  O2-  O484  1  0.16515651  0.32255496  0.65084102  1
  O2-  O485  1  0.17566846  0.34743818  0.97256389  1
  O2-  O486  1  0.17497556  0.58492851  0.29727737  1
  O2-  O487  1  0.16805864  0.56931478  0.64158003  1
  O2-  O488  1  0.17584147  0.58862889  1.02240992  1
  O2-  O489  1  0.16018660  0.84312641  0.31680679  1
  O2-  O490  1  0.16210104  0.83937844  0.64755643  1
  O2-  O491  1  0.15517879  0.82039073  0.97002844  1
  O2-  O492  1  0.39441013  0.07862454  0.32035395  1
  O2-  O493  1  0.42837238  0.08604146  0.64655877  1
  O2-  O494  1  0.42611973  0.09799308  0.98689572  1
  O2-  O495  1  0.41211708  0.33234269  0.31138903  1
  O2-  O496  1  0.42255102  0.34717947  0.63729799  1
  O2-  O497  1  0.42113452  0.34371924  0.98221630  1
  O2-  O498  1  0.42578410  0.58974594  0.31553180  1
  O2-  O499  1  0.41576770  0.59049453  0.65166612  1
  O2-  O500  1  0.42277284  0.58228126  0.97643691  1
  O2-  O501  1  0.43154405  0.84025011  0.30562971  1
  O2-  O502  1  0.41074820  0.83267575  0.64173548  1
  O2-  O503  1  0.40743052  0.84548800  0.97534475  1
  O2-  O504  1  0.68117818  0.09499260  0.32212695  1
  O2-  O505  1  0.67345003  0.07476756  0.62933982  1
  O2-  O506  1  0.67719600  0.09471152  0.97332824  1
  O2-  O507  1  0.67386029  0.34166125  0.30713585  1
  O2-  O508  1  0.67490934  0.32559056  0.64130819  1
  O2-  O509  1  0.67032873  0.33755112  0.97778797  1
  O2-  O510  1  0.70151201  0.57278844  0.34721402  1
  O2-  O511  1  0.67234461  0.59771872  0.64512075  1
  O2-  O512  1  0.66524008  0.58393743  0.97768329  1
  O2-  O513  1  0.65524589  0.83183624  0.31360862  1
  O2-  O514  1  0.66681046  0.83440063  0.64510675  1
  O2-  O515  1  0.66227088  0.82976030  0.98642652  1
  O2-  O516  1  0.90442309  0.09011744  0.31658307  1
  O2-  O517  1  0.91456296  0.07518747  0.65174337  1
  O2-  O518  1  0.92869254  0.08837448  0.98422294  1
  O2-  O519  1  0.91788339  0.33424695  0.31980862  1
  O2-  O520  1  0.92098611  0.32645953  0.64821454  1
  O2-  O521  1  0.92489132  0.33366034  0.97299413  1
  O2-  O522  1  0.94168487  0.58105913  0.30487120  1
  O2-  O523  1  0.85742794  0.55529109  0.62826098  1
  O2-  O524  1  0.91674556  0.57923144  0.97752858  1
  O2-  O525  1  0.92814623  0.86400142  0.31221382  1
  O2-  O526  1  0.90894678  0.83302239  0.65936661  1
  O2-  O527  1  0.91650906  0.84211424  0.99016218  1
  O2-  O528  1  0.06789228  0.11910537  0.03593507  1
  O2-  O529  1  0.08025507  0.18186018  0.35278560  1
  O2-  O530  1  0.07857779  0.16068603  0.69586261  1
  O2-  O531  1  0.08221553  0.40728750  0.02248617  1
  O2-  O532  1  0.08140625  0.42218234  0.34468385  1
  O2-  O533  1  0.08508544  0.40533760  0.68569155  1
  O2-  O534  1  0.07915069  0.66806584  0.02624044  1
  O2-  O535  1  0.09715141  0.69160261  0.36099203  1
  O2-  O536  1  0.13598564  0.68866909  0.69645300  1
  O2-  O537  1  0.07898475  0.90511723  0.02867688  1
  O2-  O538  1  0.09111544  0.93168043  0.35583000  1
  O2-  O539  1  0.06079479  0.90757020  0.69209708  1
  O2-  O540  1  0.34879541  0.17959011  0.02280092  1
  O2-  O541  1  0.32491566  0.17074863  0.35483184  1
  O2-  O542  1  0.37786432  0.19011249  0.69083875  1
  O2-  O543  1  0.32656095  0.41734596  0.01057957  1
  O2-  O544  1  0.33791108  0.42496772  0.34608157  1
  O2-  O545  1  0.33330221  0.42099364  0.68793844  1
  O2-  O546  1  0.40335840  0.70813463  0.03124727  1
  O2-  O547  1  0.34128612  0.67022919  0.34838515  1
  O2-  O548  1  0.33173272  0.67018936  0.68505613  1
  O2-  O549  1  0.31309321  0.93973001  0.03122764  1
  O2-  O550  1  0.32546475  0.91209275  0.35316966  1
  O2-  O551  1  0.32921488  0.92041263  0.68103941  1
  O2-  O552  1  0.58867813  0.18108273  0.01993508  1
  O2-  O553  1  0.57793289  0.16502450  0.31448824  1
  O2-  O554  1  0.59389380  0.16217514  0.68055576  1
  O2-  O555  1  0.58937767  0.41880456  0.02132525  1
  O2-  O556  1  0.58073515  0.40961187  0.35758619  1
  O2-  O557  1  0.57071048  0.36914738  0.69489541  1
  O2-  O558  1  0.58127648  0.66130845  0.02277394  1
  O2-  O559  1  0.57533369  0.67127585  0.35465835  1
  O2-  O560  1  0.58288298  0.67319008  0.68929849  1
  O2-  O561  1  0.55268714  0.86443367  0.05863761  1
  O2-  O562  1  0.59113436  0.92670719  0.36810342  1
  O2-  O563  1  0.57569331  0.91196011  0.68670292  1
  O2-  O564  1  0.83841097  0.17404695  0.01367438  1
  O2-  O565  1  0.83336930  0.17386280  0.36951112  1
  O2-  O566  1  0.82690808  0.15708982  0.67736462  1
  O2-  O567  1  0.83835700  0.41429177  0.01739536  1
  O2-  O568  1  0.83928000  0.42395790  0.35334766  1
  O2-  O569  1  0.83735578  0.40928679  0.68514464  1
  O2-  O570  1  0.83914413  0.67728126  -0.02841328  1
  O2-  O571  1  0.87611963  0.69275536  0.31772772  1
  O2-  O572  1  0.82619954  0.67709697  0.68827713  1
  O2-  O573  1  0.83541900  0.92940814  0.03003293  1
  O2-  O574  1  0.82072098  0.91958905  0.35409418  1
  O2-  O575  1  0.83185812  0.91569139  0.69222228  1
