# generated using pymatgen
data_H2O
_symmetry_space_group_name_H-M   'P 1'
_cell_length_a   18.00095064
_cell_length_b   17.99617215
_cell_length_c   22.01166076
_cell_angle_alpha   90.00417985
_cell_angle_beta   90.00457542
_cell_angle_gamma   119.98756380
_symmetry_Int_Tables_number   1
_chemical_formula_structural   H2O
_chemical_formula_sum   'H384 O192'
_cell_volume   6176.08731938
_cell_formula_units_Z   192
loop_
 _symmetry_equiv_pos_site_id
 _symmetry_equiv_pos_as_xyz
  1  'x, y, z'
loop_
 _atom_type_symbol
 _atom_type_oxidation_number
  H+  1.0
  O2-  -2.0
loop_
 _atom_site_type_symbol
 _atom_site_label
 _atom_site_symmetry_multiplicity
 _atom_site_fract_x
 _atom_site_fract_y
 _atom_site_fract_z
 _atom_site_occupancy
  H+  H0  1  0.02743653  0.39371918  0.67389848  1
  H+  H1  1  0.72178876  0.60610900  1.00193260  1
  H+  H2  1  0.46280637  0.35298461  0.50416112  1
  H+  H3  1  0.78447653  0.40423480  0.66229389  1
  H+  H4  1  0.63624123  0.45269036  0.67758213  1
  H+  H5  1  0.52039545  0.39115722  0.83472192  1
  H+  H6  1  0.43188181  0.35135405  0.26742224  1
  H+  H7  1  0.78615159  0.14242414  0.67742306  1
  H+  H8  1  0.68955910  0.08580063  0.25608288  1
  H+  H9  1  0.72037604  0.36058885  0.83874103  1
  H+  H10  1  0.10453707  0.88056226  0.01425335  1
  H+  H11  1  1.00109000  0.10696765  0.16661483  1
  H+  H12  1  0.12406703  0.14809189  0.32993383  1
  H+  H13  1  0.27028892  0.39161773  0.01494523  1
  H+  H14  1  0.61751016  0.49856627  0.00254501  1
  H+  H15  1  0.63374845  0.86228699  0.98012417  1
  H+  H16  1  0.11946212  -0.01240617  0.16587157  1
  H+  H17  1  0.41613669  -0.00379269  1.02416251  1
  H+  H18  1  0.64493037  0.84244066  0.66592185  1
  H+  H19  1  0.90967509  0.52132242  0.50891002  1
  H+  H20  1  0.13762861  0.77904607  0.51318816  1
  H+  H21  1  0.06002102  0.13255690  0.06216432  1
  H+  H22  1  0.66470875  0.11562803  0.16534568  1
  H+  H23  1  0.34187684  0.17165001  0.44495659  1
  H+  H24  1  0.85125652  0.47051656  0.83313240  1
  H+  H25  1  0.13949654  0.78986007  0.83022153  1
  H+  H26  1  0.85276934  0.87475841  0.82747754  1
  H+  H27  1  0.41653867  0.86207911  0.99240634  1
  H+  H28  1  0.64629389  0.03490673  0.31880980  1
  H+  H29  1  0.40727879  0.28653692  0.17538728  1
  H+  H30  1  0.97879326  0.36987300  0.17568564  1
  H+  H31  1  0.11185640  0.90082806  0.82587833  1
  H+  H32  1  0.11948844  0.46438201  0.16902423  1
  H+  H33  1  0.77176124  0.63820253  0.16315387  1
  H+  H34  1  0.39503304  0.86274814  0.66889416  1
  H+  H35  1  0.58966537  0.19872397  0.52522189  1
  H+  H36  1  0.10938108  0.86583826  0.18179816  1
  H+  H37  1  0.79362336  0.13839972  -0.00635274  1
  H+  H38  1  0.13897444  0.03118109  0.65609787  1
  H+  H39  1  0.22739135  0.87657916  0.83378643  1
  H+  H40  1  0.61752671  0.29496620  0.70476182  1
  H+  H41  1  0.65941006  0.05658641  0.79480699  1
  H+  H42  1  0.87162863  0.39151292  0.16319140  1
  H+  H43  1  0.11603938  0.59897802  0.99044964  1
  H+  H44  1  0.63105091  0.88016017  0.15592799  1
  H+  H45  1  0.70233207  0.84843354  0.31882041  1
  H+  H46  1  0.62816680  -0.03734567  0.68495018  1
  H+  H47  1  0.15141200  0.61764645  0.65592715  1
  H+  H48  1  0.53679027  0.65053861  0.48637694  1
  H+  H49  1  0.12381904  0.73234447  0.66315778  1
  H+  H50  1  0.85671820  0.97340941  -0.00379485  1
  H+  H51  1  0.10500334  0.34532489  0.51956055  1
  H+  H52  1  0.22653439  0.29385334  0.49086636  1
  H+  H53  1  0.14084939  0.02734898  0.83637867  1
  H+  H54  1  0.90198376  0.36375427  0.33803777  1
  H+  H55  1  0.39867513  0.06745316  0.60556882  1
  H+  H56  1  0.88943952  0.38496633  0.49101957  1
  H+  H57  1  0.11641300  1.02168946  0.50248222  1
  H+  H58  1  0.16140716  0.86497653  0.34533258  1
  H+  H59  1  0.61818983  0.14604039  0.81896930  1
  H+  H60  1  0.02404019  0.38977516  0.83908697  1
  H+  H61  1  0.88542571  0.85974294  0.66405036  1
  H+  H62  1  0.16587717  0.04376881  0.32779612  1
  H+  H63  1  0.38168409  0.36361711  0.84003578  1
  H+  H64  1  0.58388641  0.42345559  0.06513419  1
  H+  H65  1  0.27026613  0.87891633  0.67385396  1
  H+  H66  1  0.87396735  0.14283196  0.67369592  1
  H+  H67  1  0.07389026  0.08134089  0.16126226  1
  H+  H68  1  0.83354923  0.70356779  0.33944486  1
  H+  H69  1  0.01478021  0.88704432  0.49780651  1
  H+  H70  1  0.61457103  0.73017946  -0.00191355  1
  H+  H71  1  0.95819562  0.60639516  1.00074223  1
  H+  H72  1  0.77276290  0.90281712  0.15895789  1
  H+  H73  1  0.71955163  0.85751985  0.97535408  1
  H+  H74  1  0.61468733  0.13567855  0.29915830  1
  H+  H75  1  0.65835712  0.56057930  0.26654721  1
  H+  H76  1  0.29395935  0.88828671  0.33845320  1
  H+  H77  1  0.94341623  0.92915060  0.54263032  1
  H+  H78  1  0.76139621  0.88887127  0.48415506  1
  H+  H79  1  0.88721263  0.02043096  0.66166058  1
  H+  H80  1  0.86748246  0.01484274  0.50534298  1
  H+  H81  1  0.23542913  0.36954486  0.32326906  1
  H+  H82  1  0.36150326  0.39827634  1.00696402  1
  H+  H83  1  0.01998283  0.90433609  0.16356003  1
  H+  H84  1  0.35935760  0.38436761  0.67616112  1
  H+  H85  1  0.14227848  0.02044833  0.99025198  1
  H+  H86  1  0.71020104  0.59178233  0.51383297  1
  H+  H87  1  0.37760196  0.87912369  0.49779660  1
  H+  H88  1  0.36587439  0.63731818  0.33950278  1
  H+  H89  1  0.08985142  0.66793081  0.43772811  1
  H+  H90  1  0.10756630  0.67715228  0.72185655  1
  H+  H91  1  0.51694292  0.39681645  1.00589986  1
  H+  H92  1  0.20805930  0.77395558  0.95149619  1
  H+  H93  1  0.38645078  0.84320225  0.17403066  1
  H+  H94  1  0.86837602  0.63658580  0.67352343  1
  H+  H95  1  0.48281508  0.38127870  0.66657626  1
  H+  H96  1  0.77654794  0.88050555  0.66989323  1
  H+  H97  1  0.51964676  0.03874170  0.71841879  1
  H+  H98  1  0.42991012  0.08680680  0.19227873  1
  H+  H99  1  0.88858699  0.11187325  0.98031944  1
  H+  H100  1  0.37409205  0.15293967  0.02779565  1
  H+  H101  1  0.09846997  0.11876895  0.00074120  1
  H+  H102  1  0.38308676  0.36267554  0.51291892  1
  H+  H103  1  0.03331435  0.14268198  0.33972817  1
  H+  H104  1  0.86943770  0.64005838  0.83257529  1
  H+  H105  1  0.47354763  0.61115374  0.17213892  1
  H+  H106  1  0.36276947  0.71905379  0.83359108  1
  H+  H107  1  0.53187650  0.88261671  -0.00503846  1
  H+  H108  1  -0.12372291  0.24363220  0.83674743  1
  H+  H109  1  0.02364045  0.96684910  0.34340659  1
  H+  H110  1  0.86627916  0.47015547  0.00837561  1
  H+  H111  1  0.77914645  0.13698366  0.33956566  1
  H+  H112  1  0.60300183  0.71896181  0.16053820  1
  H+  H113  1  0.39692888  0.76199587  0.16978044  1
  H+  H114  1  0.09323930  0.12479301  0.50372379  1
  H+  H115  1  0.80439881  0.39285694  0.49296881  1
  H+  H116  1  0.36251703  0.14037409  0.80922622  1
  H+  H117  1  0.37809470  0.47924049  0.16575576  1
  H+  H118  1  0.02315126  0.90216611  0.82935760  1
  H+  H119  1  0.08079009  0.92024784  0.07014349  1
  H+  H120  1  0.37962730  0.00100065  0.51136512  1
  H+  H121  1  0.91813678  0.58443855  0.22927259  1
  H+  H122  1  0.10869934  0.71690811  0.15607242  1
  H+  H123  1  0.09597181  0.71497303  0.00306085  1
  H+  H124  1  0.63146962  0.36184957  0.84302100  1
  H+  H125  1  0.55805515  0.13665040  0.15271450  1
  H+  H126  1  0.36037380  0.62815266  0.82925162  1
  H+  H127  1  0.39016760  0.52049050  0.83873397  1
  H+  H128  1  0.36534385  0.14724970  0.13016271  1
  H+  H129  1  0.17161184  0.82712932  0.92123085  1
  H+  H130  1  0.41140948  0.37816556  0.17155457  1
  H+  H131  1  0.61710830  0.64252977  0.00439357  1
  H+  H132  1  0.52521481  0.63694932  0.82095421  1
  H+  H133  1  0.24091537  0.30482130  0.52343899  1
  H+  H134  1  0.62260396  0.64550843  0.49056165  1
  H+  H135  1  0.66494809  0.02480034  0.98986004  1
  H+  H136  1  0.52344311  0.90022883  0.34243691  1
  H+  H137  1  0.23144241  0.61420901  0.32858986  1
  H+  H138  1  0.21311629  0.12179856  0.99844822  1
  H+  H139  1  0.53626918  0.87883450  0.68850035  1
  H+  H140  1  0.37217593  0.29107571  -0.00003689  1
  H+  H141  1  0.67190870  0.32219456  0.93445682  1
  H+  H142  1  0.22815988  0.37141996  0.66557858  1
  H+  H143  1  0.67225845  0.11673827  0.99645335  1
  H+  H144  1  0.42885600  0.08928352  1.02250711  1
  H+  H145  1  0.73018059  0.11480117  0.51486710  1
  H+  H146  1  0.62589010  0.26466464  0.68617584  1
  H+  H147  1  0.85867953  0.13532772  0.49727106  1
  H+  H148  1  0.51973686  0.35745655  0.41242598  1
  H+  H149  1  0.64395113  0.77422088  0.50245703  1
  H+  H150  1  0.12530688  0.47641773  0.33809201  1
  H+  H151  1  0.24240795  0.24148835  0.05903291  1
  H+  H152  1  0.11805812  0.48189354  0.67666254  1
  H+  H153  1  0.13640759  0.53345514  0.83621295  1
  H+  H154  1  0.99537528  0.12060818  0.50229411  1
  H+  H155  1  0.36603329  0.21629915  0.50853901  1
  H+  H156  1  0.27519354  0.39215839  0.82612141  1
  H+  H157  1  0.62650184  0.39283798  0.15088449  1
  H+  H158  1  0.86975948  0.22913264  0.49454170  1
  H+  H159  1  0.13998978  0.60502212  0.17146064  1
  H+  H160  1  0.30316557  0.41663432  0.47601309  1
  H+  H161  1  0.58909544  0.39095065  0.46462449  1
  H+  H162  1  0.12988594  0.86309122  0.51195123  1
  H+  H163  1  0.73424187  0.61047161  0.85078716  1
  H+  H164  1  0.48830514  0.86011759  0.51848080  1
  H+  H165  1  0.86186943  0.63970004  0.16112216  1
  H+  H166  1  0.58593692  0.65701273  0.39400316  1
  H+  H167  1  0.37827207  -0.02011562  0.34380156  1
  H+  H168  1  0.56558000  0.12970405  0.01964875  1
  H+  H169  1  0.75743631  0.60799476  0.33541495  1
  H+  H170  1  0.01879353  0.62965982  0.15895100  1
  H+  H171  1  0.89258893  0.52586350  0.32336564  1
  H+  H172  1  0.39919745  0.62592061  0.49825539  1
  H+  H173  1  0.60110517  0.91424771  0.05345876  1
  H+  H174  1  0.64377879  0.52061703  0.85191057  1
  H+  H175  1  0.04845108  0.65242812  0.80335904  1
  H+  H176  1  0.37331694  0.73058643  0.49692877  1
  H+  H177  1  0.97125611  0.09988603  0.98163391  1
  H+  H178  1  0.86694162  0.60278475  1.00360063  1
  H+  H179  1  0.16599587  0.83900451  0.60191701  1
  H+  H180  1  0.38048792  0.09328426  0.51194526  1
  H+  H181  1  0.39561643  0.29524668  0.32786034  1
  H+  H182  1  0.67332794  0.34833519  0.25832357  1
  H+  H183  1  0.60698740  0.51969464  0.68993774  1
  H+  H184  1  0.13457092  0.65096209  0.82172592  1
  H+  H185  1  0.73791139  0.35218163  -0.01023811  1
  H+  H186  1  -0.03423759  0.85919361  -0.00393039  1
  H+  H187  1  0.92172635  0.58968354  0.60317935  1
  H+  H188  1  0.47887382  0.11894390  0.31819244  1
  H+  H189  1  0.14152913  0.38907639  0.84607116  1
  H+  H190  1  0.87737431  0.86004188  0.99375734  1
  H+  H191  1  0.65333606  0.28129344  0.17111323  1
  H+  H192  1  0.53638525  0.39136471  0.15632131  1
  H+  H193  1  0.36072047  0.14223202  0.67013094  1
  H+  H194  1  0.54152696  0.97984270  0.38140784  1
  H+  H195  1  0.85304826  0.72208355  1.00837922  1
  H+  H196  1  0.54481379  0.88346015  0.15600254  1
  H+  H197  1  0.89043741  0.83164277  0.22688122  1
  H+  H198  1  0.89019599  0.35988707  0.65458885  1
  H+  H199  1  0.66163358  0.02396658  0.16418452  1
  H+  H200  1  0.62306144  -0.02255416  0.50454690  1
  H+  H201  1  0.85031775  0.89261445  0.47804615  1
  H+  H202  1  0.77813703  0.63591445  0.67674159  1
  H+  H203  1  0.10749987  0.38532522  1.01954446  1
  H+  H204  1  0.88823901  0.52504930  0.16956530  1
  H+  H205  1  0.28169950  0.63637473  0.15233621  1
  H+  H206  1  0.45909388  0.09505592  0.66443826  1
  H+  H207  1  0.61053976  0.23319105  0.82375751  1
  H+  H208  1  0.63659187  0.10317808  0.53156982  1
  H+  H209  1  0.11461742  0.14191227  0.66825872  1
  H+  H210  1  0.40182290  0.74856572  1.00829008  1
  H+  H211  1  0.38499221  0.61210012  0.17030538  1
  H+  H212  1  0.89161068  0.28511466  0.16486060  1
  H+  H213  1  0.95901409  0.09468150  0.82940197  1
  H+  H214  1  0.38093621  0.84340974  0.85136366  1
  H+  H215  1  0.78278239  0.39134057  0.33909111  1
  H+  H216  1  1.02316530  0.89149182  0.67127327  1
  H+  H217  1  0.13947595  0.27367717  0.32445107  1
  H+  H218  1  0.88300986  0.78176433  0.16664516  1
  H+  H219  1  0.48244387  0.12175333  0.81716410  1
  H+  H220  1  0.99472237  0.36573519  0.50363615  1
  H+  H221  1  0.12914139  0.48407705  0.49348013  1
  H+  H222  1  0.08165997  -0.07105964  0.73018412  1
  H+  H223  1  0.89163820  0.77708776  0.83980114  1
  H+  H224  1  0.18167494  0.13047127  0.18197035  1
  H+  H225  1  0.34499361  0.93878235  0.17100565  1
  H+  H226  1  0.50633501  0.10809329  0.53462045  1
  H+  H227  1  0.13893750  0.33124689  0.13932171  1
  H+  H228  1  0.12962641  0.26695328  1.00481729  1
  H+  H229  1  0.11280367  0.23052716  0.67375679  1
  H+  H230  1  0.13880332  0.86647685  0.66395331  1
  H+  H231  1  0.11597622  0.71958831  0.34085100  1
  H+  H232  1  0.28009427  0.87696359  1.00854993  1
  H+  H233  1  0.88307713  0.85219691  0.32726111  1
  H+  H234  1  0.92198067  0.25912764  0.95574079  1
  H+  H235  1  0.98187738  0.62207023  0.66067314  1
  H+  H236  1  0.35506287  0.96947062  0.67738052  1
  H+  H237  1  0.35082403  0.67378181  0.09459404  1
  H+  H238  1  0.39572082  0.77458238  0.67125995  1
  H+  H239  1  0.61943029  0.70150486  0.32967708  1
  H+  H240  1  0.78889003  0.80323222  0.29955335  1
  H+  H241  1  0.68835909  0.36781571  0.45037505  1
  H+  H242  1  0.35519220  0.90961320  0.43552141  1
  H+  H243  1  0.63907669  0.09060365  0.67075997  1
  H+  H244  1  0.36878235  0.23630856  0.66973112  1
  H+  H245  1  0.90038288  0.27411783  0.34371107  1
  H+  H246  1  0.37905696  0.64715053  0.67640910  1
  H+  H247  1  0.65831616  0.67412497  0.66626033  1
  H+  H248  1  0.65398466  0.35746502  0.62146445  1
  H+  H249  1  0.98744906  0.61696893  0.50846110  1
  H+  H250  1  0.47531298  0.60879950  0.32431633  1
  H+  H251  1  0.24308881  0.12036258  0.83176612  1
  H+  H252  1  0.79546662  0.14597816  0.14513167  1
  H+  H253  1  0.22769098  0.12101179  0.65300301  1
  H+  H254  1  0.33414808  0.11016736  1.03385533  1
  H+  H255  1  0.64318508  0.22775166  0.00669242  1
  H+  H256  1  0.88682061  0.77050922  0.66356397  1
  H+  H257  1  0.89827716  0.27624072  0.65610108  1
  H+  H258  1  0.27876262  0.13008880  0.16794363  1
  H+  H259  1  0.56571851  0.59601982  0.65309352  1
  H+  H260  1  0.60786785  0.22061931  0.29818105  1
  H+  H261  1  0.63358890  0.60925707  0.17298533  1
  H+  H262  1  0.37406174  0.16099727  0.35359225  1
  H+  H263  1  0.07681209  0.20694863  0.82026343  1
  H+  H264  1  0.28628225  0.16001530  0.34318984  1
  H+  H265  1  0.39063964  0.52762281  -0.00446823  1
  H+  H266  1  0.88609115  0.15718386  0.15325020  1
  H+  H267  1  0.24929388  0.86010538  0.17270058  1
  H+  H268  1  0.64050582  0.52418283  0.16811618  1
  H+  H269  1  0.70897429  0.79240092  0.16706950  1
  H+  H270  1  0.87732538  0.02940317  0.18165925  1
  H+  H271  1  0.13820783  0.37026379  0.67254027  1
  H+  H272  1  0.36255319  0.96856654  0.81798033  1
  H+  H273  1  0.40010799  0.86138270  0.31920966  1
  H+  H274  1  0.40878565  0.54171022  0.49516156  1
  H+  H275  1  0.14024552  0.37009840  0.32893342  1
  H+  H276  1  0.73982311  0.37246011  0.17074212  1
  H+  H277  1  -0.02349162  0.11059104  0.65692875  1
  H+  H278  1  0.96542749  0.58958158  0.86844697  1
  H+  H279  1  0.12358929  0.64236935  0.49667026  1
  H+  H280  1  0.76491763  0.32238533  0.69857366  1
  H+  H281  1  0.86880993  0.99542184  0.83546053  1
  H+  H282  1  0.62459056  0.57514830  0.32899820  1
  H+  H283  1  0.41024500  0.08445936  0.86738004  1
  H+  H284  1  0.10677467  0.47255783  0.01417430  1
  H+  H285  1  0.02589176  0.88542951  0.32149156  1
  H+  H286  1  0.23739570  0.61908761  0.50556337  1
  H+  H287  1  0.73844180  0.13903550  0.82285676  1
  H+  H288  1  0.88377656  0.39185902  0.00772552  1
  H+  H289  1  0.62458143  0.17835344  0.09816415  1
  H+  H290  1  0.35572702  0.43519622  0.41648365  1
  H+  H291  1  0.70936830  0.42081133  0.57147654  1
  H+  H292  1  0.34198345  0.67568095  0.43393943  1
  H+  H293  1  0.89447336  0.57164938  0.91521146  1
  H+  H294  1  0.33442783  0.06775388  0.92726795  1
  H+  H295  1  0.11990544  0.23680351  0.13886482  1
  H+  H296  1  0.13934938  0.60802155  0.32860323  1
  H+  H297  1  0.61142362  0.23778414  0.41809431  1
  H+  H298  1  0.85301876  0.19619841  0.77131174  1
  H+  H299  1  0.91119874  0.08182341  0.24457250  1
  H+  H300  1  0.42515083  0.34484201  0.60577124  1
  H+  H301  1  0.58566101  0.71474781  0.78159525  1
  H+  H302  1  0.35998803  0.48193532  0.32669318  1
  H+  H303  1  0.42718973  0.82896434  0.57722580  1
  H+  H304  1  0.83885195  0.66668798  0.77199794  1
  H+  H305  1  0.86425324  0.18124760  0.04773873  1
  H+  H306  1  0.08064949  0.21701764  0.51417248  1
  H+  H307  1  0.68786713  0.81048247  0.24811781  1
  H+  H308  1  0.38740833  0.08559587  0.28864655  1
  H+  H309  1  0.84411667  0.58506482  0.48720510  1
  H+  H310  1  0.83361205  0.91303099  0.73049009  1
  H+  H311  1  0.56687677  0.13472924  0.73858300  1
  H+  H312  1  0.36554936  0.39387197  0.32678781  1
  H+  H313  1  0.82793646  0.41497497  0.77236435  1
  H+  H314  1  0.41976974  0.58008021  0.89859283  1
  H+  H315  1  0.82922010  0.16096649  0.40447536  1
  H+  H316  1  0.06174860  0.91071574  0.43471427  1
  H+  H317  1  0.67514596  0.82390163  0.60270917  1
  H+  H318  1  0.47956334  0.05040649  0.22689749  1
  H+  H319  1  0.18763263  0.08967132  0.26071144  1
  H+  H320  1  0.65474667  0.84064473  0.88427508  1
  H+  H321  1  0.32496775  0.89946795  0.76683658  1
  H+  H322  1  0.34619430  0.41969150  0.10729128  1
  H+  H323  1  0.41092291  0.33664688  0.93516652  1
  H+  H324  1  0.91159412  0.84125433  0.57223372  1
  H+  H325  1  0.44464678  0.61257309  0.58882396  1
  H+  H326  1  0.84733402  0.42022343  0.39639309  1
  H+  H327  1  0.06433117  0.77664697  0.21519791  1
  H+  H328  1  0.84002565  0.41730089  0.10267266  1
  H+  H329  1  0.18252887  0.08710627  0.89971059  1
  H+  H330  1  0.17506617  0.58446552  0.23182828  1
  H+  H331  1  0.58309405  0.43201103  0.77753064  1
  H+  H332  1  0.64008990  0.42957130  0.32050787  1
  H+  H333  1  0.86192232  0.90585058  0.15416800  1
  H+  H334  1  0.91361416  0.83464133  0.89956600  1
  H+  H335  1  0.80113170  0.60132636  0.42815321  1
  H+  H336  1  0.29573733  0.20050396  0.08425479  1
  H+  H337  1  0.60606615  0.19350993  0.41935537  1
  H+  H338  1  0.76301613  0.87802635  0.82135973  1
  H+  H339  1  0.48339615  0.61368578  -0.00866405  1
  H+  H340  1  0.65974488  0.60148005  0.57134311  1
  H+  H341  1  0.43121910  0.82711333  0.26226210  1
  H+  H342  1  0.42445284  0.82039545  0.90788452  1
  H+  H343  1  0.36575219  0.05380838  0.93755639  1
  H+  H344  1  0.58747990  0.92217822  0.44368476  1
  H+  H345  1  0.15255743  0.08338486  0.56142948  1
  H+  H346  1  0.67093301  0.57724511  0.93553764  1
  H+  H347  1  0.36998573  0.72755596  0.33775350  1
  H+  H348  1  0.90146478  0.07110001  0.56911043  1
  H+  H349  1  0.38337611  0.27589800  0.83957395  1
  H+  H350  1  0.88557629  0.61076237  0.32351424  1
  H+  H351  1  0.16676050  0.84109871  0.27664424  1
  H+  H352  1  0.21782660  0.43172534  0.89077200  1
  H+  H353  1  0.38551104  0.65116246  1.00886978  1
  H+  H354  1  0.15698457  0.57873575  0.93409823  1
  H+  H355  1  0.85345362  0.97773970  0.38861948  1
  H+  H356  1  0.34003400  0.66375520  0.73789703  1
  H+  H357  1  1.02400544  0.63418255  0.33901920  1
  H+  H358  1  0.82482453  0.92189986  0.05838473  1
  H+  H359  1  0.93357525  0.33622706  0.56310067  1
  H+  H360  1  0.23149934  0.61734087  0.83717860  1
  H+  H361  1  0.62306161  0.90156692  0.78113844  1
  H+  H362  1  0.17909461  0.58589028  0.56541140  1
  H+  H363  1  0.82653650  0.66726818  0.07065534  1
  H+  H364  1  0.08153267  0.41167542  0.10873644  1
  H+  H365  1  0.41673237  0.58801997  0.26404433  1
  H+  H366  1  0.06974191  0.65926228  0.06489949  1
  H+  H367  1  0.38140375  0.48002188  0.67798405  1
  H+  H368  1  0.31699021  0.88399873  0.07534675  1
  H+  H369  1  0.12839337  0.31521075  0.58291014  1
  H+  H370  1  0.67900058  0.07232655  0.61183675  1
  H+  H371  1  0.33279223  0.41518127  0.76501346  1
  H+  H372  1  0.15717543  0.32592433  0.94560527  1
  H+  H373  1  0.90583889  0.06525158  0.89774932  1
  H+  H374  1  0.73031216  0.46723872  0.47110168  1
  H+  H375  1  0.05992931  0.15524508  0.75883098  1
  H+  H376  1  0.03513127  0.38559070  0.34716939  1
  H+  H377  1  0.63974802  0.86124512  0.51005793  1
  H+  H378  1  0.10254972  0.42287895  0.43393135  1
  H+  H379  1  0.58001706  0.66551638  0.09871417  1
  H+  H380  1  0.23803451  0.61320064  0.66136890  1
  H+  H381  1  0.07417726  0.41887780  0.77295906  1
  H+  H382  1  0.87823295  0.10296619  0.34329846  1
  H+  H383  1  0.32542341  0.17389771  0.75664735  1
  O2-  O384  1  0.05220416  0.11545934  0.14180091  1
  O2-  O385  1  0.05927942  0.15753249  0.49194467  1
  O2-  O386  1  0.05023752  0.14886732  0.80407999  1
  O2-  O387  1  0.08367595  0.40481053  0.15433186  1
  O2-  O388  1  0.09762407  0.42292171  0.47914334  1
  O2-  O389  1  0.08132774  0.42503708  0.81797730  1
  O2-  O390  1  0.07907144  0.65743984  0.14165348  1
  O2-  O391  1  0.09102304  0.67090008  0.48280596  1
  O2-  O392  1  0.11063467  0.68772281  0.80303659  1
  O2-  O393  1  0.08035608  0.92690810  0.14923454  1
  O2-  O394  1  0.07291687  0.91406187  0.47866449  1
  O2-  O395  1  0.08367553  0.93469720  0.81360119  1
  O2-  O396  1  0.33633395  0.17569499  0.14730248  1
  O2-  O397  1  0.34698004  0.16071933  0.48828472  1
  O2-  O398  1  0.32656028  0.16829660  0.80276618  1
  O2-  O399  1  0.36245047  0.42116107  0.15044553  1
  O2-  O400  1  0.36219760  0.44133900  0.46209533  1
  O2-  O401  1  0.33437121  0.41298639  0.81088027  1
  O2-  O402  1  0.34361384  0.66639374  0.14190979  1
  O2-  O403  1  0.34123681  0.67121982  0.47927069  1
  O2-  O404  1  0.33036736  0.65898074  0.81411946  1
  O2-  O405  1  0.30628091  0.88035639  0.15537988  1
  O2-  O406  1  0.35077542  0.91082586  0.47998709  1
  O2-  O407  1  0.32487403  0.90608917  0.81228763  1
  O2-  O408  1  0.61885174  0.17659628  0.14493693  1
  O2-  O409  1  0.57067656  0.14197670  0.54173278  1
  O2-  O410  1  0.58039404  0.17200005  0.80811288  1
  O2-  O411  1  0.59540818  0.42261519  0.13636404  1
  O2-  O412  1  0.53519206  0.38733578  0.45132845  1
  O2-  O413  1  0.58171526  0.42040696  0.82186707  1
  O2-  O414  1  0.57664957  0.65914136  0.14400993  1
  O2-  O415  1  0.59707568  0.67846926  0.47067657  1
  O2-  O416  1  0.58151104  0.66386166  0.80026474  1
  O2-  O417  1  0.60506186  0.91474089  0.14200826  1
  O2-  O418  1  0.59096251  0.91703205  0.48824726  1
  O2-  O419  1  0.64609836  0.91640351  0.82342986  1
  O2-  O420  1  0.85570684  0.18141084  0.13056499  1
  O2-  O421  1  0.83139987  0.16818391  0.48157364  1
  O2-  O422  1  0.83959051  0.18854347  0.81500439  1
  O2-  O423  1  0.83969935  0.42260011  0.14766539  1
  O2-  O424  1  0.86206583  0.41913357  0.47547930  1
  O2-  O425  1  0.81992351  0.41167636  0.81665425  1
  O2-  O426  1  0.83190557  0.67055801  0.14670152  1
  O2-  O427  1  0.78815966  0.57114166  0.46790233  1
  O2-  O428  1  0.84147638  0.67194725  0.81721406  1
  O2-  O429  1  0.83272116  0.93767712  0.14115752  1
  O2-  O430  1  0.82123051  0.92422293  0.46551690  1
  O2-  O431  1  0.82572034  0.90690110  0.80971250  1
  O2-  O432  1  0.18866646  0.08183883  0.19349806  1
  O2-  O433  1  0.13805589  0.08127989  0.51744798  1
  O2-  O434  1  0.18188146  0.08829838  0.85319168  1
  O2-  O435  1  0.16262971  0.29487270  0.12620100  1
  O2-  O436  1  0.09551021  0.29482790  0.54409728  1
  O2-  O437  1  0.18510107  0.37842779  0.86801047  1
  O2-  O438  1  0.17573487  0.58159200  0.18664452  1
  O2-  O439  1  0.17639744  0.58733538  0.51996469  1
  O2-  O440  1  0.16925154  0.59484363  0.84943989  1
  O2-  O441  1  0.12141692  0.82219719  0.20319096  1
  O2-  O442  1  0.16042348  0.83669212  0.53136893  1
  O2-  O443  1  0.16519685  0.84877997  0.84789195  1
  O2-  O444  1  0.44441305  0.04141925  0.19068831  1
  O2-  O445  1  0.40374740  0.05914128  0.53210105  1
  O2-  O446  1  0.41679764  0.08816799  0.82315903  1
  O2-  O447  1  0.44299144  0.34713079  0.18766471  1
  O2-  O448  1  0.41087286  0.33268781  0.53109161  1
  O2-  O449  1  0.41186776  0.33387797  0.85796747  1
  O2-  O450  1  0.41467932  0.58285600  0.18990788  1
  O2-  O451  1  0.43501642  0.60070934  0.51251634  1
  O2-  O452  1  0.41647401  0.58071568  0.85307092  1
  O2-  O453  1  0.42617717  0.82320370  0.18619539  1
  O2-  O454  1  0.42719435  0.82731266  0.53173144  1
  O2-  O455  1  0.40893193  0.81052846  0.86207250  1
  O2-  O456  1  0.69414987  0.08417922  0.17990859  1
  O2-  O457  1  0.67358472  0.07599408  0.53445966  1
  O2-  O458  1  0.67331872  0.10303035  0.82323792  1
  O2-  O459  1  0.67760783  0.34218802  0.18465011  1
  O2-  O460  1  0.69559625  0.40492165  0.48493282  1
  O2-  O461  1  0.65927521  0.32778594  0.85424232  1
  O2-  O462  1  0.66722220  0.58224123  0.18757365  1
  O2-  O463  1  0.65734433  0.59031972  0.52729403  1
  O2-  O464  1  0.67884328  0.57729082  0.87223023  1
  O2-  O465  1  0.68122394  0.82128653  0.18590148  1
  O2-  O466  1  0.67436343  0.83372411  0.52107515  1
  O2-  O467  1  0.66189110  0.84586127  0.83838864  1
  O2-  O468  1  0.91377060  0.08793343  0.19984071  1
  O2-  O469  1  0.90097521  0.07421059  0.52329055  1
  O2-  O470  1  0.90031717  0.05877704  0.85039810  1
  O2-  O471  1  0.91580757  0.34230795  0.18435419  1
  O2-  O472  1  0.93327237  0.33413824  0.51747701  1
  O2-  O473  1  0.94059668  0.32968516  0.88394640  1
  O2-  O474  1  0.91864645  0.58696473  0.18374970  1
  O2-  O475  1  0.92675086  0.58035984  0.52294648  1
  O2-  O476  1  0.90573119  0.57540475  0.86958571  1
  O2-  O477  1  0.90969736  0.84121030  0.18346062  1
  O2-  O478  1  0.92089083  0.86934220  0.53097203  1
  O2-  O479  1  0.91793933  0.83812740  0.85422539  1
  O2-  O480  1  0.18501955  0.09888092  0.30819186  1
  O2-  O481  1  0.16655221  0.09075821  0.63940916  1
  O2-  O482  1  0.16718038  0.07847078  0.97147674  1
  O2-  O483  1  0.17079399  0.33770885  0.31135283  1
  O2-  O484  1  0.16550478  0.33780164  0.65573473  1
  O2-  O485  1  0.16390248  0.32664205  0.99005912  1
  O2-  O486  1  0.17138183  0.58025851  0.31263046  1
  O2-  O487  1  0.17854265  0.58286432  0.64411938  1
  O2-  O488  1  0.14939732  0.57166387  0.97850140  1
  O2-  O489  1  0.18317559  0.83637701  0.31919232  1
  O2-  O490  1  0.16872618  0.83663754  0.64842739  1
  O2-  O491  1  0.17995496  0.80669425  0.96222776  1
  O2-  O492  1  0.41487732  0.08908162  0.32751876  1
  O2-  O493  1  0.39930697  0.07502702  0.65127778  1
  O2-  O494  1  0.46049089  0.05848053  1.02169226  1
  O2-  O495  1  0.42296495  0.35463358  0.31176391  1
  O2-  O496  1  0.42396482  0.34233092  0.65155282  1
  O2-  O497  1  0.41557518  0.34507291  0.98048052  1
  O2-  O498  1  0.41470001  0.58517222  0.31005484  1
  O2-  O499  1  0.45352597  0.62850751  0.63299637  1
  O2-  O500  1  0.42384822  0.58431149  0.97482330  1
  O2-  O501  1  0.43151494  0.83068223  0.30810630  1
  O2-  O502  1  0.42915949  0.83546510  0.65656988  1
  O2-  O503  1  0.44745235  0.83472729  0.97622108  1
  O2-  O504  1  0.68234406  0.09278301  0.30086577  1
  O2-  O505  1  0.68003971  0.07195374  0.65743478  1
  O2-  O506  1  0.70077270  0.08663081  0.97864837  1
  O2-  O507  1  0.67457694  0.34171057  0.30470079  1
  O2-  O508  1  0.70358713  0.41463005  0.61601164  1
  O2-  O509  1  0.67632497  0.31929980  0.97927568  1
  O2-  O510  1  0.65706280  0.54890302  0.31097967  1
  O2-  O511  1  0.63083272  0.61472329  0.65202509  1
  O2-  O512  1  0.66231857  0.57588095  0.98398025  1
  O2-  O513  1  0.69685250  0.79957108  0.29596160  1
  O2-  O514  1  0.68016514  0.82009015  0.64748472  1
  O2-  O515  1  0.65967281  0.82781859  0.96044324  1
  O2-  O516  1  0.91348396  0.07457274  0.33007214  1
  O2-  O517  1  0.91490358  0.07979520  0.64399380  1
  O2-  O518  1  0.91145616  0.07276294  0.96473879  1
  O2-  O519  1  0.93811280  0.33696406  0.34087377  1
  O2-  O520  1  0.92695073  0.33688494  0.63992586  1
  O2-  O521  1  0.97233621  0.30284332  0.93116651  1
  O2-  O522  1  0.92165565  0.58654591  0.30824950  1
  O2-  O523  1  0.92086238  0.59475403  0.64815634  1
  O2-  O524  1  0.89637278  0.57185004  0.98763070  1
  O2-  O525  1  0.84636056  0.80476172  0.30023941  1
  O2-  O526  1  0.91645729  0.83043956  0.64740050  1
  O2-  O527  1  0.90682353  0.82785118  0.97953981  1
  O2-  O528  1  0.06644972  0.14537340  0.01780762  1
  O2-  O529  1  0.09573435  0.17991315  0.34477997  1
  O2-  O530  1  0.08036051  0.16777921  0.68406542  1
  O2-  O531  1  0.07915598  0.41609776  0.03538085  1
  O2-  O532  1  0.10032766  0.41690952  0.35518346  1
  O2-  O533  1  0.08484483  0.42260679  0.69416793  1
  O2-  O534  1  0.05998692  0.65669923  0.01990227  1
  O2-  O535  1  0.08379187  0.65992103  0.35563085  1
  O2-  O536  1  0.09798085  0.67101808  0.67737761  1
  O2-  O537  1  0.08032010  0.91687026  0.02456285  1
  O2-  O538  1  0.01920914  0.91335111  0.35733467  1
  O2-  O539  1  0.08408847  0.92611047  0.68531213  1
  O2-  O540  1  0.27363220  0.21263637  0.04580134  1
  O2-  O541  1  0.34370097  0.19258898  0.36294744  1
  O2-  O542  1  0.33202201  0.17517789  0.68330700  1
  O2-  O543  1  0.33212601  0.42636377  0.02635587  1
  O2-  O544  1  0.32972866  0.42053852  0.34180933  1
  O2-  O545  1  0.33384518  0.41959718  0.68989456  1
  O2-  O546  1  0.36700826  0.68850274  0.02867643  1
  O2-  O547  1  0.33646122  0.66852164  0.35514633  1
  O2-  O548  1  0.34128643  0.66837793  0.69212931  1
  O2-  O549  1  0.33320452  0.89676044  0.03199906  1
  O2-  O550  1  0.35518605  0.91739959  0.35053399  1
  O2-  O551  1  0.33040962  0.90840120  0.69052092  1
  O2-  O552  1  0.62685488  0.17149809  0.02870500  1
  O2-  O553  1  0.57428404  0.15776820  0.29165518  1
  O2-  O554  1  0.55052151  0.09651704  0.70141579  1
  O2-  O555  1  0.57884322  0.42872240  0.01916088  1
  O2-  O556  1  0.61619492  0.36811685  0.33129780  1
  O2-  O557  1  0.59281474  0.45968826  0.69961563  1
  O2-  O558  1  0.58778487  0.67310673  0.01947964  1
  O2-  O559  1  0.58016312  0.64507807  0.34912024  1
  O2-  O560  1  0.46958084  0.56347427  0.65942085  1
  O2-  O561  1  0.59977228  0.91693630  0.00880191  1
  O2-  O562  1  0.57000978  0.94934862  0.36649009  1
  O2-  O563  1  0.59693008  0.90349719  0.70203318  1
  O2-  O564  1  0.85927442  0.17363145  0.00287823  1
  O2-  O565  1  0.83657151  0.15950613  0.35931519  1
  O2-  O566  1  0.84866269  0.17849651  0.68682629  1
  O2-  O567  1  0.84432313  0.40990872  0.02280430  1
  O2-  O568  1  0.84393639  0.42253501  0.35124051  1
  O2-  O569  1  0.81149112  0.37994274  0.68898001  1
  O2-  O570  1  0.82317663  0.66236044  0.02501991  1
  O2-  O571  1  0.81761290  0.64451800  0.35179973  1
  O2-  O572  1  0.83694691  0.66593535  0.69197438  1
  O2-  O573  1  0.82721220  0.91403396  0.01382955  1
  O2-  O574  1  0.86015855  0.98229257  0.34365187  1
  O2-  O575  1  0.83822302  0.91566131  0.68534711  1
