# generated using pymatgen
data_H2O
_symmetry_space_group_name_H-M   'P 1'
_cell_length_a   17.98438729
_cell_length_b   17.98485157
_cell_length_c   22.00328629
_cell_angle_alpha   89.99720832
_cell_angle_beta   89.99924950
_cell_angle_gamma   119.98794092
_symmetry_Int_Tables_number   1
_chemical_formula_structural   H2O
_chemical_formula_sum   'H384 O192'
_cell_volume   6164.15350361
_cell_formula_units_Z   192
loop_
 _symmetry_equiv_pos_site_id
 _symmetry_equiv_pos_as_xyz
  1  'x, y, z'
loop_
 _atom_type_symbol
 _atom_type_oxidation_number
  H+  1.0
  O2-  -2.0
loop_
 _atom_site_type_symbol
 _atom_site_label
 _atom_site_symmetry_multiplicity
 _atom_site_fract_x
 _atom_site_fract_y
 _atom_site_fract_z
 _atom_site_occupancy
  H+  H0  1  0.82809009  0.16116027  0.41680950  1
  H+  H1  1  0.10269995  0.13316296  0.49050707  1
  H+  H2  1  0.21050915  0.58882604  0.33970720  1
  H+  H3  1  0.61743248  0.73117236  0.15656255  1
  H+  H4  1  0.35773069  0.12780684  0.00840853  1
  H+  H5  1  0.75847547  0.61737739  0.15759984  1
  H+  H6  1  0.59671265  0.46749880  0.65858822  1
  H+  H7  1  0.84085974  0.60428214  0.81368598  1
  H+  H8  1  0.62496524  0.54071980  0.83398320  1
  H+  H9  1  0.33515445  0.88031488  0.66592352  1
  H+  H10  1  0.58866809  0.63611682  0.67540026  1
  H+  H11  1  0.53251934  0.89351728  0.14223634  1
  H+  H12  1  0.63257129  0.77687273  0.65970444  1
  H+  H13  1  0.67094140  0.84131768  0.21765530  1
  H+  H14  1  0.63744273  0.11311441  0.66495662  1
  H+  H15  1  0.63273364  0.57589570  0.59885922  1
  H+  H16  1  0.22062208  0.09971190  0.64596531  1
  H+  H17  1  0.09784362  0.72363456  0.47537854  1
  H+  H18  1  0.71290272  0.61226678  0.53027591  1
  H+  H19  1  0.36905959  0.77230995  0.65588046  1
  H+  H20  1  0.23442229  0.62041968  0.98920752  1
  H+  H21  1  0.88471231  1.02722915  0.84181014  1
  H+  H22  1  0.21636575  0.61401053  0.51108274  1
  H+  H23  1  0.41667096  0.08624218  0.90084566  1
  H+  H24  1  0.34397655  0.62928597  0.66982194  1
  H+  H25  1  0.55452612  0.13813490  0.57095388  1
  H+  H26  1  0.37567090  0.34995297  0.01465730  1
  H+  H27  1  0.28231330  0.40723257  0.16356297  1
  H+  H28  1  0.53865711  0.13517951  0.33451922  1
  H+  H29  1  0.21754261  0.10427788  -0.00131485  1
  H+  H30  1  0.61487926  0.96676810  0.10973706  1
  H+  H31  1  0.64266313  0.36934066  0.66071556  1
  H+  H32  1  0.22289364  0.36791785  0.85640629  1
  H+  H33  1  0.27468368  0.88892433  0.16099182  1
  H+  H34  1  0.77990360  0.89666209  0.83034066  1
  H+  H35  1  0.78140030  0.88280494  0.67458564  1
  H+  H36  1  0.87932242  0.50764000  0.16509637  1
  H+  H37  1  0.59497789  0.62818595  0.49444274  1
  H+  H38  1  1.05169721  0.87602723  0.67395082  1
  H+  H39  1  0.31874113  0.16603670  0.39216672  1
  H+  H40  1  0.63125216  0.60149975  0.32120101  1
  H+  H41  1  0.76000174  0.38001181  0.32207627  1
  H+  H42  1  0.13133027  0.36999244  0.51772826  1
  H+  H43  1  0.86007077  0.13620251  0.82869436  1
  H+  H44  1  0.10493487  0.22317899  0.49901392  1
  H+  H45  1  0.34837489  0.22178257  0.66995492  1
  H+  H46  1  0.13254287  0.10482519  0.85260938  1
  H+  H47  1  1.01063129  0.63512583  0.48834112  1
  H+  H48  1  0.11309236  0.22362091  0.85516727  1
  H+  H49  1  0.85910663  0.47846897  0.32741315  1
  H+  H50  1  0.72706733  0.35734762  0.16723185  1
  H+  H51  1  0.11537754  0.47619620  0.16050063  1
  H+  H52  1  0.61611858  0.64087361  0.00636195  1
  H+  H53  1  0.72779244  0.35424646  -0.00002216  1
  H+  H54  1  0.13645187  0.78005287  0.18409511  1
  H+  H55  1  0.38927857  0.53737546  0.17649172  1
  H+  H56  1  0.88794176  0.27428671  0.49774653  1
  H+  H57  1  0.64594116  0.87787411  0.84748006  1
  H+  H58  1  0.35228576  0.49179091  0.48980212  1
  H+  H59  1  0.61736170  0.38838219  0.15639426  1
  H+  H60  1  0.77711202  0.14367498  0.15180835  1
  H+  H61  1  0.77148604  0.63313290  1.00468070  1
  H+  H62  1  0.86095736  0.53613864  0.54106665  1
  H+  H63  1  0.35762433  0.01505495  0.65085276  1
  H+  H64  1  0.48405002  0.38347872  0.17629618  1
  H+  H65  1  0.26798528  0.36974476  1.01998274  1
  H+  H66  1  0.54621897  0.91099471  0.33507241  1
  H+  H67  1  0.88231473  0.26533383  0.83911777  1
  H+  H68  1  0.89459557  0.87569810  0.17395415  1
  H+  H69  1  0.47840541  0.62903426  0.99405937  1
  H+  H70  1  0.88306033  0.09817104  0.50067666  1
  H+  H71  1  0.67342279  0.33517826  0.25390207  1
  H+  H72  1  0.78372092  0.40109719  0.67911902  1
  H+  H73  1  0.94830700  0.25419932  0.28548570  1
  H+  H74  1  0.22649797  0.85985461  0.99769142  1
  H+  H75  1  0.20958205  0.11514149  0.32942654  1
  H+  H76  1  0.12884955  0.01544757  0.99770783  1
  H+  H77  1  0.60268126  0.88158559  0.65904261  1
  H+  H78  1  0.06742106  0.65769366  0.39013487  1
  H+  H79  1  0.82618895  0.19547695  0.31588972  1
  H+  H80  1  0.69180741  0.13378559  0.50508717  1
  H+  H81  1  0.62572985  0.74860458  0.82914988  1
  H+  H82  1  0.13820073  0.36236667  0.30439025  1
  H+  H83  1  0.10420421  0.47193606  0.82931267  1
  H+  H84  1  0.72678618  0.35478690  0.50062811  1
  H+  H85  1  0.64372302  0.63477701  0.84227901  1
  H+  H86  1  0.51641682  0.61433860  0.33828144  1
  H+  H87  1  0.37013360  0.65082314  1.00299729  1
  H+  H88  1  0.36785256  0.61103156  0.50605077  1
  H+  H89  1  0.35514334  0.21482348  1.01675791  1
  H+  H90  1  0.02550947  0.13387340  0.63918023  1
  H+  H91  1  0.86622535  0.97386764  0.67539018  1
  H+  H92  1  0.54412995  0.40055120  0.81426351  1
  H+  H93  1  0.38984966  0.83138822  0.55625584  1
  H+  H94  1  0.11799263  0.73131772  0.00479192  1
  H+  H95  1  0.92375383  0.20100653  0.43526662  1
  H+  H96  1  0.37057506  0.90202266  0.33101115  1
  H+  H97  1  0.85041797  0.73260371  0.55059849  1
  H+  H98  1  0.10103373  0.12459195  0.15318672  1
  H+  H99  1  0.02439875  0.38843349  0.29688228  1
  H+  H100  1  0.34461604  0.87674162  0.48413046  1
  H+  H101  1  0.73954584  0.35523804  0.84419125  1
  H+  H102  1  0.88505086  0.60517719  0.99835467  1
  H+  H103  1  0.38233950  0.85937727  0.82362216  1
  H+  H104  1  0.47622566  0.36635185  0.33362934  1
  H+  H105  1  0.46105411  0.61102577  0.49979906  1
  H+  H106  1  0.07693695  0.42167988  0.45838495  1
  H+  H107  1  0.38866249  1.02220040  -0.00653841  1
  H+  H108  1  0.87015942  0.88039708  0.49444928  1
  H+  H109  1  0.33593898  0.72374729  0.81701370  1
  H+  H110  1  0.67035981  0.32277911  0.94082187  1
  H+  H111  1  0.68323109  0.08991041  0.22675287  1
  H+  H112  1  0.12136062  0.61046887  0.84007739  1
  H+  H113  1  0.62927224  0.23354526  0.67631593  1
  H+  H114  1  0.33641880  0.12545151  0.48381433  1
  H+  H115  1  0.57918744  0.16494589  0.10649681  1
  H+  H116  1  0.92199963  0.62893123  0.67306862  1
  H+  H117  1  0.63391511  0.26984823  0.17074778  1
  H+  H118  1  0.11045558  0.88128470  0.01015775  1
  H+  H119  1  0.63689751  0.27097764  0.51588805  1
  H+  H120  1  0.14542072  0.36978925  0.16897835  1
  H+  H121  1  0.12382111  0.26449562  -0.00138488  1
  H+  H122  1  0.09332654  0.13463074  0.34188577  1
  H+  H123  1  0.86548622  0.37697830  0.83194603  1
  H+  H124  1  0.25578582  0.39431162  0.49324473  1
  H+  H125  1  0.02317354  0.13581222  0.85224118  1
  H+  H126  1  0.39681047  0.03390080  0.83774440  1
  H+  H127  1  0.24346276  0.62257727  0.17059029  1
  H+  H128  1  0.13490151  0.85691200  0.85094854  1
  H+  H129  1  0.12020603  0.47777669  0.67432373  1
  H+  H130  1  0.72608557  0.61133466  0.31507440  1
  H+  H131  1  0.51694007  0.37736733  0.00851286  1
  H+  H132  1  0.41068970  0.72336689  0.35848398  1
  H+  H133  1  0.61524584  0.64089219  0.15913926  1
  H+  H134  1  0.72610399  0.09356737  1.02945127  1
  H+  H135  1  0.87905672  1.02110234  0.16922723  1
  H+  H136  1  0.86146466  -0.03617545  0.49321273  1
  H+  H137  1  0.11983970  0.85551238  0.47014641  1
  H+  H138  1  0.85234490  0.21532495  0.67457392  1
  H+  H139  1  0.10981229  0.12776151  0.63080237  1
  H+  H140  1  0.90013474  0.25534219  0.98911006  1
  H+  H141  1  0.36322987  0.97742743  0.16030784  1
  H+  H142  1  0.44079683  0.10670020  0.50963221  1
  H+  H143  1  0.08023646  0.66015397  0.23368974  1
  H+  H144  1  0.87278029  0.73095032  0.32299845  1
  H+  H145  1  0.37863261  0.51139646  0.32734672  1
  H+  H146  1  0.61490966  0.12760707  1.02668561  1
  H+  H147  1  0.25177361  0.13185217  0.47824119  1
  H+  H148  1  0.83773524  0.67153260  0.64915445  1
  H+  H149  1  0.47960156  0.62422625  0.17949066  1
  H+  H150  1  0.86244700  0.37711463  0.15871376  1
  H+  H151  1  0.15203127  0.61718434  0.17872904  1
  H+  H152  1  0.10247757  0.48815699  0.51251350  1
  H+  H153  1  0.16490553  0.06956998  0.90534976  1
  H+  H154  1  0.61905490  0.21686723  0.83016906  1
  H+  H155  1  0.11387199  0.47685865  0.00182996  1
  H+  H156  1  0.55560320  0.87998705  0.74823843  1
  H+  H157  1  0.12816544  0.76561854  0.85276634  1
  H+  H158  1  0.32328381  0.14506933  0.10492167  1
  H+  H159  1  0.65181184  0.35583216  0.84601912  1
  H+  H160  1  0.40606189  0.83272786  0.92196506  1
  H+  H161  1  0.26732410  0.12232303  0.16587843  1
  H+  H162  1  0.35081381  0.12853319  0.82653098  1
  H+  H163  1  0.54266394  0.79921329  0.78408852  1
  H+  H164  1  0.88961700  0.85896635  0.33069318  1
  H+  H165  1  0.11821544  0.78157615  0.68565817  1
  H+  H166  1  0.52056158  0.13761851  0.16626371  1
  H+  H167  1  0.23804076  0.62717555  0.82117312  1
  H+  H168  1  0.60737163  0.37839863  0.00559911  1
  H+  H169  1  0.36757092  0.73845522  0.00354770  1
  H+  H170  1  0.97823118  0.86027363  0.34009460  1
  H+  H171  1  0.62942946  0.91858817  0.95186031  1
  H+  H172  1  0.96762989  0.36650701  0.51416797  1
  H+  H173  1  0.86299090  0.98199981  0.00452831  1
  H+  H174  1  0.47249959  0.35103486  0.50255079  1
  H+  H175  1  0.44984223  0.97990893  0.77706332  1
  H+  H176  1  0.41174943  0.52918745  0.84080984  1
  H+  H177  1  0.63954604  0.86380861  0.15400118  1
  H+  H178  1  0.86431541  0.14138100  0.15353835  1
  H+  H179  1  0.37327956  0.06752048  0.56250989  1
  H+  H180  1  0.45267209  0.83097304  0.82376368  1
  H+  H181  1  0.34524616  0.67976603  0.09939627  1
  H+  H182  1  0.86087036  0.09145120  0.32477398  1
  H+  H183  1  0.37630761  0.37891303  0.82022838  1
  H+  H184  1  0.12196087  0.01356807  0.47987923  1
  H+  H185  1  1.01119027  0.12343508  0.15350320  1
  H+  H186  1  0.96272936  0.12685371  0.99653644  1
  H+  H187  1  0.86615877  0.37288229  0.00564269  1
  H+  H188  1  0.27850416  0.38502652  0.67176608  1
  H+  H189  1  0.63164190  0.52127903  0.50756430  1
  H+  H190  1  0.38055432  0.26549684  0.49839750  1
  H+  H191  1  0.13136213  1.02105363  0.17524214  1
  H+  H192  1  0.13485442  0.77964278  0.33031141  1
  H+  H193  1  0.09452646  0.41829792  0.73288245  1
  H+  H194  1  0.63859476  -0.02367625  0.49302149  1
  H+  H195  1  0.20690595  0.85155678  0.47804644  1
  H+  H196  1  0.35674790  0.38070440  0.34702528  1
  H+  H197  1  0.89291359  0.87178277  0.84852649  1
  H+  H198  1  0.88415152  0.60864091  0.31603541  1
  H+  H199  1  0.90160240  0.08654457  0.90115974  1
  H+  H200  1  0.09232041  0.12819592  0.00000365  1
  H+  H201  1  0.86732713  0.46416839  0.47199452  1
  H+  H202  1  0.88173033  0.10654784  0.66296058  1
  H+  H203  1  0.97306383  0.35517619  0.83956785  1
  H+  H204  1  0.12889110  0.27127745  0.32288608  1
  H+  H205  1  0.40359769  0.58164743  0.59853605  1
  H+  H206  1  0.86025149  0.37333859  0.48042301  1
  H+  H207  1  0.32319468  0.57900483  0.36765448  1
  H+  H208  1  0.14227614  0.27069519  0.64406286  1
  H+  H209  1  0.37500496  0.65061990  0.16060765  1
  H+  H210  1  0.75812150  0.61474262  0.81215395  1
  H+  H211  1  0.72821866  0.84673711  0.50554006  1
  H+  H212  1  1.01033172  0.62885038  0.83244920  1
  H+  H213  1  0.86876882  0.89434118  0.00508953  1
  H+  H214  1  0.35126046  0.24168361  0.84651091  1
  H+  H215  1  0.47822144  0.11005804  0.99606605  1
  H+  H216  1  0.42681656  0.10577743  0.38326921  1
  H+  H217  1  0.88177814  0.51121782  0.84537524  1
  H+  H218  1  0.25480299  0.63236878  0.66663632  1
  H+  H219  1  0.63099836  0.09189194  0.84006466  1
  H+  H220  1  0.64090518  0.11739436  0.17434038  1
  H+  H221  1  0.35979294  0.10478856  0.65197690  1
  H+  H222  1  0.61785172  0.47648379  0.33454500  1
  H+  H223  1  0.69092019  0.60580150  0.65753072  1
  H+  H224  1  0.76262770  0.11146267  0.51941029  1
  H+  H225  1  0.02220165  0.89195927  0.16182438  1
  H+  H226  1  0.86316643  0.96616033  0.33983772  1
  H+  H227  1  1.00843302  0.62711683  0.67278035  1
  H+  H228  1  0.86073783  0.72432304  1.00876217  1
  H+  H229  1  0.37830464  0.52184700  0.65731849  1
  H+  H230  1  0.64771799  0.27453973  0.31436088  1
  H+  H231  1  0.16462690  0.58645783  0.89707897  1
  H+  H232  1  0.87931000  0.48344832  0.68405801  1
  H+  H233  1  0.85332792  0.64745837  0.55395833  1
  H+  H234  1  0.73179164  0.86912306  -0.00628295  1
  H+  H235  1  0.46720516  0.35015266  0.65097537  1
  H+  H236  1  1.01716493  0.62862685  0.17898514  1
  H+  H237  1  0.11125782  0.47812242  0.30096173  1
  H+  H238  1  0.97193912  0.85748426  1.00029318  1
  H+  H239  1  0.72140118  0.09768270  0.83943275  1
  H+  H240  1  0.31779285  0.65777930  0.55097468  1
  H+  H241  1  0.97501447  0.35998045  0.16672172  1
  H+  H242  1  0.11107364  0.89259843  0.36570433  1
  H+  H243  1  0.39101009  1.02414467  0.34114337  1
  H+  H244  1  0.12735502  0.62290496  0.65987494  1
  H+  H245  1  0.18577778  0.59621204  0.26868770  1
  H+  H246  1  0.77413540  0.88850597  0.15389216  1
  H+  H247  1  0.83644534  0.66561372  0.37697816  1
  H+  H248  1  0.60239454  0.71932408  0.49126495  1
  H+  H249  1  0.41805345  0.81429872  0.31971180  1
  H+  H250  1  0.87413627  0.35238041  0.66456704  1
  H+  H251  1  0.98487190  0.86524204  0.49645064  1
  H+  H252  1  0.97112333  0.60281915  0.31969236  1
  H+  H253  1  0.97662276  0.86357687  0.84832657  1
  H+  H254  1  0.14397572  0.61711128  -0.01074216  1
  H+  H255  1  0.37739010  0.10634173  0.17344552  1
  H+  H256  1  0.02489441  0.38558080  0.00360842  1
  H+  H257  1  0.14480403  0.00412351  0.64512074  1
  H+  H258  1  0.43929801  0.31463558  0.87150053  1
  H+  H259  1  0.11491646  0.97061154  0.83095286  1
  H+  H260  1  0.86815139  0.46396244  0.00597107  1
  H+  H261  1  0.67400363  0.12690571  0.32625213  1
  H+  H262  1  0.64017631  0.52087767  0.16636007  1
  H+  H263  1  0.38143798  0.70725988  0.33093098  1
  H+  H264  1  0.64144500  0.78075450  0.99325316  1
  H+  H265  1  0.36673621  0.38581777  0.66294868  1
  H+  H266  1  0.36878240  0.89137630  0.00201404  1
  H+  H267  1  0.73192508  0.86145773  0.31269190  1
  H+  H268  1  0.85371287  0.61424767  0.15261805  1
  H+  H269  1  0.16250731  0.33622474  0.91510813  1
  H+  H270  1  0.11215670  0.89144373  0.16288319  1
  H+  H271  1  0.61549972  0.38680993  0.33492626  1
  H+  H272  1  0.38501390  0.27877688  0.32765817  1
  H+  H273  1  0.52412068  0.13779831  0.82890721  1
  H+  H274  1  0.45768018  0.85999629  0.65167730  1
  H+  H275  1  0.10932301  0.63417280  0.33439185  1
  H+  H276  1  0.10886059  0.38587958  0.83413716  1
  H+  H277  1  0.62655052  -0.00979055  0.90768653  1
  H+  H278  1  0.76724388  0.12359976  0.67922721  1
  H+  H279  1  0.66953011  0.83026554  0.59841487  1
  H+  H280  1  0.37505192  0.41275434  0.16660318  1
  H+  H281  1  0.26418007  0.37635658  0.34028360  1
  H+  H282  1  0.92169513  0.79375355  0.66756776  1
  H+  H283  1  0.63529650  0.51937363  0.99102663  1
  H+  H284  1  0.64539504  0.85728721  0.50434334  1
  H+  H285  1  0.06794037  0.16848037  0.40071898  1
  H+  H286  1  0.39354428  0.87234968  0.16907957  1
  H+  H287  1  0.25621920  0.11911391  0.82919020  1
  H+  H288  1  0.57733514  0.64670156  0.39572208  1
  H+  H289  1  0.06566228  0.15283238  0.06334748  1
  H+  H290  1  0.87549323  0.70795029  0.45050339  1
  H+  H291  1  0.08410365  0.42127189  0.09911104  1
  H+  H292  1  0.83592530  0.41136768  0.77355361  1
  H+  H293  1  0.97244816  0.10409508  0.50943258  1
  H+  H294  1  0.39110257  0.31312573  0.95317284  1
  H+  H295  1  0.83438171  0.90517286  0.39858359  1
  H+  H296  1  0.61806313  0.38937574  0.49232730  1
  H+  H297  1  0.67076224  0.58058877  0.22712096  1
  H+  H298  1  0.59983325  -0.03126093  0.66670664  1
  H+  H299  1  0.64203193  0.98778064  0.33985993  1
  H+  H300  1  0.48671215  0.88384010  0.96284684  1
  H+  H301  1  0.17648444  0.33409910  0.22338870  1
  H+  H302  1  0.91612819  0.87885135  0.66675281  1
  H+  H303  1  0.17344537  0.34045410  0.56933747  1
  H+  H304  1  0.33771934  0.91630765  0.06400253  1
  H+  H305  1  0.90755571  0.57426240  0.90238074  1
  H+  H306  1  0.67642479  0.84408063  0.90568945  1
  H+  H307  1  0.35761755  0.76432829  0.50255613  1
  H+  H308  1  0.13239454  0.35829437  0.00211581  1
  H+  H309  1  0.58741020  0.68627048  0.76970961  1
  H+  H310  1  0.84071953  0.66072840  0.72406433  1
  H+  H311  1  0.93349461  0.59546361  0.58661698  1
  H+  H312  1  0.07785566  0.17958239  0.74063399  1
  H+  H313  1  0.35462349  0.93558822  0.75341885  1
  H+  H314  1  0.16820099  0.84594150  0.23826485  1
  H+  H315  1  0.37016542  0.42215251  0.75590624  1
  H+  H316  1  0.14709932  0.36225708  0.66114790  1
  H+  H317  1  0.90234200  0.07119501  0.60185253  1
  H+  H318  1  0.41973490  0.59629716  0.93523338  1
  H+  H319  1  0.88919875  0.31720893  0.60221738  1
  H+  H320  1  0.61550020  0.21676303  0.01315595  1
  H+  H321  1  0.82731522  0.40736914  0.38542557  1
  H+  H322  1  0.30324091  0.65822087  0.75474415  1
  H+  H323  1  0.83362823  0.40525552  0.09800949  1
  H+  H324  1  0.58560975  0.41707444  0.09709457  1
  H+  H325  1  0.39868784  0.78620611  0.17208131  1
  H+  H326  1  0.24945511  0.88909933  0.67805658  1
  H+  H327  1  0.08127161  0.91344376  0.06897472  1
  H+  H328  1  0.90779969  0.07847091  0.22926503  1
  H+  H329  1  0.50553550  0.64444773  0.67666734  1
  H+  H330  1  0.42566888  0.35669267  0.23576740  1
  H+  H331  1  0.15368125  0.07989076  0.23453921  1
  H+  H332  1  0.67169744  0.08258544  0.60738449  1
  H+  H333  1  0.95306888  0.85930652  0.56623727  1
  H+  H334  1  0.34100413  0.96614531  0.48458183  1
  H+  H335  1  0.66600928  0.58306597  0.93339899  1
  H+  H336  1  0.31746319  0.41883407  0.42776547  1
  H+  H337  1  0.60541772  0.92012940  0.43321670  1
  H+  H338  1  0.82875375  0.16275308  0.76878441  1
  H+  H339  1  0.90124622  0.56665959  0.22507954  1
  H+  H340  1  0.91451677  0.83225728  0.93990841  1
  H+  H341  1  0.40863472  0.58131123  0.27357375  1
  H+  H342  1  0.49317853  0.44580415  0.78983339  1
  H+  H343  1  0.29045338  0.60662830  0.42572780  1
  H+  H344  1  0.41283148  0.08097247  0.23315994  1
  H+  H345  1  0.82801962  0.69348001  0.45019847  1
  H+  H346  1  0.33055303  0.91695984  0.39367792  1
  H+  H347  1  0.33322399  0.41469317  0.07577361  1
  H+  H348  1  0.40657061  0.31960706  0.59239413  1
  H+  H349  1  0.83961560  0.92328765  0.09840831  1
  H+  H350  1  0.88467551  0.26648717  0.16005723  1
  H+  H351  1  0.06737386  0.35433146  0.39537884  1
  H+  H352  1  0.82426664  0.65241634  0.09136803  1
  H+  H353  1  0.14950185  0.59026997  0.59810381  1
  H+  H354  1  0.83886120  0.92067273  0.77060645  1
  H+  H355  1  0.12373665  0.02663316  0.34128889  1
  H+  H356  1  0.11504143  0.38478443  0.39855266  1
  H+  H357  1  0.92745760  0.84808750  0.23265101  1
  H+  H358  1  0.59024494  0.41980000  0.43246957  1
  H+  H359  1  0.16686675  0.72402169  0.71096874  1
  H+  H360  1  0.68099052  0.34417983  0.60460723  1
  H+  H361  1  0.55486071  0.09750624  0.50830237  1
  H+  H362  1  0.95904673  0.10996475  0.33031788  1
  H+  H363  1  0.09572378  0.90804816  0.77402558  1
  H+  H364  1  0.09919140  0.15287220  0.74013986  1
  H+  H365  1  0.60745252  0.17585463  0.38574556  1
  H+  H366  1  0.12404909  0.61511617  0.50160386  1
  H+  H367  1  0.59067240  0.16801987  0.73162324  1
  H+  H368  1  0.22436281  0.86840223  0.33020627  1
  H+  H369  1  0.56871043  0.41749245  0.71902764  1
  H+  H370  1  0.07760776  0.67529114  0.77614134  1
  H+  H371  1  0.64924457  0.87067380  0.31424227  1
  H+  H372  1  0.90840524  0.29866856  0.24574166  1
  H+  H373  1  0.63909103  0.02360574  1.00069722  1
  H+  H374  1  0.58747546  0.67125458  0.06574235  1
  H+  H375  1  0.15252602  0.06111947  0.54571026  1
  H+  H376  1  0.16429169  0.82847265  0.93875445  1
  H+  H377  1  0.91704917  0.31839462  0.93338993  1
  H+  H378  1  0.31484270  0.16024410  0.72930475  1
  H+  H379  1  0.97561996  0.60901735  0.99529351  1
  H+  H380  1  0.48639970  0.62405818  0.84435443  1
  H+  H381  1  0.43877336  0.86459478  0.25748221  1
  H+  H382  1  0.34831153  0.13934357  0.33135447  1
  H+  H383  1  0.08986337  0.66723735  0.06123210  1
  O2-  O384  1  0.06735209  0.14697684  0.13245692  1
  O2-  O385  1  0.07206267  0.16548577  0.48015528  1
  O2-  O386  1  0.08639891  0.16067307  0.85347175  1
  O2-  O387  1  0.08020234  0.41712644  0.14437959  1
  O2-  O388  1  0.07142308  0.42318603  0.50254819  1
  O2-  O389  1  0.07668684  0.41162490  0.81474758  1
  O2-  O390  1  0.07972515  0.66320522  0.18933523  1
  O2-  O391  1  0.06591927  0.65799852  0.46699491  1
  O2-  O392  1  0.07272760  0.66036856  0.82081707  1
  O2-  O393  1  0.08359147  0.92153948  0.14520752  1
  O2-  O394  1  0.07808596  0.91605150  0.44743220  1
  O2-  O395  1  0.08592487  0.90880150  0.81809104  1
  O2-  O396  1  0.32647934  0.14332998  0.15007046  1
  O2-  O397  1  0.31370165  0.16112409  0.46515143  1
  O2-  O398  1  0.31649310  0.15463870  0.81150030  1
  O2-  O399  1  0.34474819  0.44290854  0.15020576  1
  O2-  O400  1  0.31649380  0.42734208  0.47466598  1
  O2-  O401  1  0.39999053  0.43303838  0.79642968  1
  O2-  O402  1  0.34476430  0.68133199  0.14491755  1
  O2-  O403  1  0.31183445  0.65362791  0.50679947  1
  O2-  O404  1  0.30049208  0.66102588  0.80140301  1
  O2-  O405  1  0.33407194  0.91719560  0.14417648  1
  O2-  O406  1  0.31789093  0.90971230  0.46390929  1
  O2-  O407  1  0.39074598  0.94950510  0.79182925  1
  O2-  O408  1  0.58171091  0.16927954  0.15220950  1
  O2-  O409  1  0.56390275  0.15049502  0.52730565  1
  O2-  O410  1  0.58310219  0.15872328  0.81252554  1
  O2-  O411  1  0.59090446  0.42260429  0.14248018  1
  O2-  O412  1  0.58865315  0.42021999  0.47789635  1
  O2-  O413  1  0.55185780  0.44880774  0.78961554  1
  O2-  O414  1  0.58317510  0.66865109  0.14442083  1
  O2-  O415  1  0.56619591  0.65838060  0.47720763  1
  O2-  O416  1  0.59311116  0.68760178  0.81481614  1
  O2-  O417  1  0.58418257  0.90518344  0.11882957  1
  O2-  O418  1  0.60821964  0.91707568  0.47822587  1
  O2-  O419  1  0.54539469  0.85417785  0.79041372  1
  O2-  O420  1  0.83848431  0.17574155  0.13867121  1
  O2-  O421  1  0.86664366  0.17905429  0.45302730  1
  O2-  O422  1  0.82828282  0.16570291  0.81427144  1
  O2-  O423  1  0.83150675  0.40779927  0.14358498  1
  O2-  O424  1  0.83095355  0.40402712  0.46047330  1
  O2-  O425  1  0.83335703  0.40741544  0.81912422  1
  O2-  O426  1  0.82190364  0.64470840  0.13841931  1
  O2-  O427  1  0.81720457  0.67273084  0.56586944  1
  O2-  O428  1  0.80154223  0.61177145  0.78607187  1
  O2-  O429  1  0.83722818  0.92176077  0.14371405  1
  O2-  O430  1  0.83431991  0.90393542  0.47755694  1
  O2-  O431  1  0.84061387  0.92615857  0.81582290  1
  O2-  O432  1  0.16155377  0.08209068  0.18998292  1
  O2-  O433  1  0.14922436  0.07145238  0.50144188  1
  O2-  O434  1  0.16339754  0.07114753  0.85959495  1
  O2-  O435  1  0.18419166  0.34759010  0.17955719  1
  O2-  O436  1  0.16588495  0.34125899  0.52338492  1
  O2-  O437  1  0.16283358  0.33966342  0.86844627  1
  O2-  O438  1  0.18448485  0.58811609  0.18915556  1
  O2-  O439  1  0.15074085  0.58522728  0.52304692  1
  O2-  O440  1  0.15684031  0.58235717  0.85143858  1
  O2-  O441  1  0.16926487  0.84234911  0.19293255  1
  O2-  O442  1  0.14425567  0.81978134  0.48640489  1
  O2-  O443  1  0.16232770  0.82521185  0.86835891  1
  O2-  O444  1  0.41478241  0.07988994  0.18895572  1
  O2-  O445  1  0.37864966  0.07017189  0.51520014  1
  O2-  O446  1  0.41724137  0.09182464  0.85532057  1
  O2-  O447  1  0.42521466  0.36287207  0.19122335  1
  O2-  O448  1  0.41370859  0.32161930  0.51919417  1
  O2-  O449  1  0.37976835  0.30061327  0.86765144  1
  O2-  O450  1  0.41930887  0.59796365  0.19434427  1
  O2-  O451  1  0.40046377  0.57782185  0.51554742  1
  O2-  O452  1  0.42622295  0.58571126  0.85729075  1
  O2-  O453  1  0.42892905  0.84790296  0.18518331  1
  O2-  O454  1  0.38588035  0.82749619  0.51146977  1
  O2-  O455  1  0.39384559  0.81403762  0.84010855  1
  O2-  O456  1  0.67588028  0.08999735  0.18269483  1
  O2-  O457  1  0.70183176  0.09176597  0.52592777  1
  O2-  O458  1  0.65977853  0.05874424  0.84949628  1
  O2-  O459  1  0.66765290  0.33222684  0.18457791  1
  O2-  O460  1  0.67135760  0.33349688  0.52210195  1
  O2-  O461  1  0.67801464  0.32335774  0.86094299  1
  O2-  O462  1  0.67463734  0.58259421  0.18113320  1
  O2-  O463  1  0.64929350  0.57854442  0.52659431  1
  O2-  O464  1  0.66504976  0.59514139  0.85483620  1
  O2-  O465  1  0.67047654  0.83537413  0.17197235  1
  O2-  O466  1  0.66829426  0.82022468  0.52127811  1
  O2-  O467  1  0.67800637  0.84907077  0.85912430  1
  O2-  O468  1  0.90886160  0.08224779  0.18443314  1
  O2-  O469  1  0.91002475  0.06935130  0.52138253  1
  O2-  O470  1  0.91126259  0.08817763  0.85658773  1
  O2-  O471  1  0.91326466  0.32754044  0.17995531  1
  O2-  O472  1  0.90275790  0.32985939  0.51667863  1
  O2-  O473  1  0.91306486  0.32577757  0.85612658  1
  O2-  O474  1  0.90537205  0.56945205  0.17979480  1
  O2-  O475  1  0.91210815  0.59272071  0.54309742  1
  O2-  O476  1  0.90760337  0.57300067  0.85710963  1
  O2-  O477  1  0.92815953  0.84841267  0.18783628  1
  O2-  O478  1  0.93344402  0.84320598  0.52364616  1
  O2-  O479  1  0.91862775  0.83915386  0.86638609  1
  O2-  O480  1  0.14701761  0.08226640  0.31966695  1
  O2-  O481  1  0.16444528  0.06056276  0.62579997  1
  O2-  O482  1  0.15823522  0.07539122  0.98130752  1
  O2-  O483  1  0.16925572  0.32897695  0.30602933  1
  O2-  O484  1  0.17879540  0.33510872  0.64222134  1
  O2-  O485  1  0.16019132  0.32624923  0.98595318  1
  O2-  O486  1  0.16564298  0.58817671  0.31177837  1
  O2-  O487  1  0.15378300  0.59020774  0.64387686  1
  O2-  O488  1  0.17391877  0.58745762  0.97290584  1
  O2-  O489  1  0.16238556  0.84116044  0.31887361  1
  O2-  O490  1  0.14486240  0.84877266  0.66267759  1
  O2-  O491  1  0.16472609  0.82789482  0.98556270  1
  O2-  O492  1  0.42849153  0.09045987  0.34089065  1
  O2-  O493  1  0.38376337  0.07225524  0.63084637  1
  O2-  O494  1  0.41910519  0.08300976  0.97839814  1
  O2-  O495  1  0.41628624  0.34148007  0.31863988  1
  O2-  O496  1  0.40585561  0.32274244  0.63855680  1
  O2-  O497  1  0.40726374  0.31952843  0.99641562  1
  O2-  O498  1  0.40736881  0.57391263  0.31876395  1
  O2-  O499  1  0.40152530  0.58292716  0.64379060  1
  O2-  O500  1  0.41861671  0.60526891  0.97984802  1
  O2-  O501  1  0.44190736  0.87269230  0.30360496  1
  O2-  O502  1  0.39548035  0.83224190  0.64102208  1
  O2-  O503  1  0.42318355  0.84680757  0.96514022  1
  O2-  O504  1  0.70441714  0.09625736  0.31205052  1
  O2-  O505  1  0.66172251  0.07531283  0.65155267  1
  O2-  O506  1  0.66364734  0.06766938  1.03383219  1
  O2-  O507  1  0.67663957  0.33575747  0.30110554  1
  O2-  O508  1  0.68063579  0.34539262  0.64960796  1
  O2-  O509  1  0.66680675  0.32431413  0.98591604  1
  O2-  O510  1  0.66545003  0.57537187  0.30202371  1
  O2-  O511  1  0.63086034  0.57496762  0.64510418  1
  O2-  O512  1  0.66841806  0.58100944  0.97878199  1
  O2-  O513  1  0.67693708  0.84344726  0.29182170  1
  O2-  O514  1  0.66776584  0.83640372  0.64378288  1
  O2-  O515  1  0.67274030  0.84019923  0.97590021  1
  O2-  O516  1  0.90055925  0.07123440  0.31271133  1
  O2-  O517  1  0.90984012  0.07438426  0.64666235  1
  O2-  O518  1  0.90107838  0.09644989  0.98058709  1
  O2-  O519  1  0.90982461  0.27753895  0.28944762  1
  O2-  O520  1  0.88938562  0.31122117  0.64653630  1
  O2-  O521  1  0.91951319  0.31661952  0.97891856  1
  O2-  O522  1  0.90957081  0.57133256  0.30465013  1
  O2-  O523  1  0.94797203  0.59354956  0.65854273  1
  O2-  O524  1  0.91410903  0.57397332  0.98322796  1
  O2-  O525  1  0.92379915  0.83140000  0.31634684  1
  O2-  O526  1  0.95063730  0.85351548  0.65106238  1
  O2-  O527  1  0.91082886  0.82843092  0.98613898  1
  O2-  O528  1  0.06374091  0.15878419  0.01670772  1
  O2-  O529  1  0.06346165  0.16637335  0.35538421  1
  O2-  O530  1  0.08577625  0.16591854  0.62473640  1
  O2-  O531  1  0.08446258  0.41870116  0.02043616  1
  O2-  O532  1  0.08602593  0.41675880  0.28903215  1
  O2-  O533  1  0.10640709  0.42053932  0.68877320  1
  O2-  O534  1  0.08607632  0.66734344  0.01707401  1
  O2-  O535  1  0.07233801  0.66015388  0.34434152  1
  O2-  O536  1  0.10705569  0.70773304  0.70398113  1
  O2-  O537  1  0.07835231  0.91050715  0.02333581  1
  O2-  O538  1  0.07727149  0.91991262  0.37918965  1
  O2-  O539  1  0.11130014  0.90082472  0.69091068  1
  O2-  O540  1  0.32286904  0.15162385  0.02590745  1
  O2-  O541  1  0.31947058  0.17010461  0.34595102  1
  O2-  O542  1  0.31535464  0.16073546  0.68410491  1
  O2-  O543  1  0.32855893  0.39537504  0.03259615  1
  O2-  O544  1  0.32222359  0.40780706  0.36072280  1
  O2-  O545  1  0.34120550  0.41840913  0.68281130  1
  O2-  O546  1  0.33629715  0.67897271  0.01928963  1
  O2-  O547  1  0.27114086  0.57125546  0.38881389  1
  O2-  O548  1  0.31455064  0.66099003  0.68454852  1
  O2-  O549  1  0.33564032  0.91788200  0.01868754  1
  O2-  O550  1  0.33445296  0.92547012  0.34739729  1
  O2-  O551  1  0.31309206  0.91495725  0.68627343  1
  O2-  O552  1  0.58061107  0.15778408  0.03010625  1
  O2-  O553  1  0.60255205  0.16881781  0.34171069  1
  O2-  O554  1  0.59758908  0.17159872  0.68654000  1
  O2-  O555  1  0.57968468  0.41169304  0.01902525  1
  O2-  O556  1  0.58821323  0.41734452  0.35325100  1
  O2-  O557  1  0.57521980  0.40856473  0.67508951  1
  O2-  O558  1  0.59043876  0.67556186  0.02030832  1
  O2-  O559  1  0.57666876  0.63568047  0.35159655  1
  O2-  O560  1  0.56619715  0.67292818  0.69133721  1
  O2-  O561  1  0.59994616  0.95130265  -0.05588037  1
  O2-  O562  1  0.60307764  0.92809244  0.35343554  1
  O2-  O563  1  0.56630352  0.90533959  0.67463079  1
  O2-  O564  1  0.86032072  0.14178192  0.00135217  1
  O2-  O565  1  0.78933202  0.14076157  0.34115666  1
  O2-  O566  1  0.82887872  0.15527964  0.69138873  1
  O2-  O567  1  0.83661294  0.40363858  0.02120336  1
  O2-  O568  1  0.82550856  0.41409614  0.33985885  1
  O2-  O569  1  0.84204858  0.42293340  0.69711892  1
  O2-  O570  1  0.83087438  0.66231753  0.02289727  1
  O2-  O571  1  0.83914102  0.66614174  0.33245380  1
  O2-  O572  1  0.87509835  0.68698326  0.68528428  1
  O2-  O573  1  0.83592247  0.92243128  0.01980784  1
  O2-  O574  1  0.83650143  0.90523052  0.35314434  1
  O2-  O575  1  0.84083699  0.91333148  0.69086649  1
