# generated using pymatgen
data_H2O
_symmetry_space_group_name_H-M   'P 1'
_cell_length_a   17.99017530
_cell_length_b   17.99065974
_cell_length_c   21.99345821
_cell_angle_alpha   89.98153134
_cell_angle_beta   90.01807907
_cell_angle_gamma   120.02309341
_symmetry_Int_Tables_number   1
_chemical_formula_structural   H2O
_chemical_formula_sum   'H384 O192'
_cell_volume   6163.18920394
_cell_formula_units_Z   192
loop_
 _symmetry_equiv_pos_site_id
 _symmetry_equiv_pos_as_xyz
  1  'x, y, z'
loop_
 _atom_type_symbol
 _atom_type_oxidation_number
  H+  1.0
  O2-  -2.0
loop_
 _atom_site_type_symbol
 _atom_site_label
 _atom_site_symmetry_multiplicity
 _atom_site_fract_x
 _atom_site_fract_y
 _atom_site_fract_z
 _atom_site_occupancy
  H+  H0  1  0.39183113  0.62142590  0.31961010  1
  H+  H1  1  0.59597950  -0.01320443  0.82493401  1
  H+  H2  1  0.60678492  0.56861984  0.16734346  1
  H+  H3  1  0.14803559  0.51547737  0.80003656  1
  H+  H4  1  0.60772703  0.47308693  0.33405027  1
  H+  H5  1  0.15739409  0.11379859  0.83726032  1
  H+  H6  1  0.89205554  0.87064827  -0.00343459  1
  H+  H7  1  0.86170719  0.38268991  0.17255044  1
  H+  H8  1  0.86900939  0.10454573  0.49604984  1
  H+  H9  1  0.60185886  0.38123759  0.33628564  1
  H+  H10  1  0.66171870  0.82279296  0.22837897  1
  H+  H11  1  0.63027935  0.02174763  0.64378640  1
  H+  H12  1  0.16729705  0.19402410  0.75435774  1
  H+  H13  1  0.11370524  0.39285987  0.15614094  1
  H+  H14  1  0.13175048  0.60889519  0.66641380  1
  H+  H15  1  0.38219715  0.74985107  0.99687954  1
  H+  H16  1  0.33542985  0.62124539  0.05611495  1
  H+  H17  1  0.53087179  0.88072592  0.48696739  1
  H+  H18  1  0.28174321  0.41888457  -0.00325162  1
  H+  H19  1  0.83242431  0.42008218  0.11695082  1
  H+  H20  1  0.37057354  0.73636272  0.33507335  1
  H+  H21  1  0.62881264  0.45754205  0.18121164  1
  H+  H22  1  0.38462710  0.26822951  0.64471803  1
  H+  H23  1  0.99670712  0.84425193  0.81479984  1
  H+  H24  1  0.59787420  0.21646924  0.82141391  1
  H+  H25  1  0.33043868  0.41908831  0.05846963  1
  H+  H26  1  0.12826196  0.76288650  0.84618548  1
  H+  H27  1  0.45205436  0.35513949  0.04044059  1
  H+  H28  1  0.14151480  0.53039088  0.17311090  1
  H+  H29  1  0.29085050  0.19371417  0.80134180  1
  H+  H30  1  0.63734237  0.83204981  0.80264453  1
  H+  H31  1  0.55612986  0.63345203  0.65784000  1
  H+  H32  1  0.03724709  0.64985929  0.34337242  1
  H+  H33  1  0.27553667  0.14254909  0.33896251  1
  H+  H34  1  0.35647890  -0.02130797  1.01615803  1
  H+  H35  1  0.34855507  0.15149937  0.81879674  1
  H+  H36  1  0.97275207  0.85503346  0.66087759  1
  H+  H37  1  0.13960194  0.77355719  0.65139586  1
  H+  H38  1  0.27145854  0.87997541  0.86032133  1
  H+  H39  1  0.33414664  0.24463864  0.97779164  1
  H+  H40  1  0.28333609  0.89596284  0.33963442  1
  H+  H41  1  0.15654912  0.81719467  0.90942288  1
  H+  H42  1  0.85945594  0.37931731  0.65341274  1
  H+  H43  1  0.71407952  0.34934316  0.32971475  1
  H+  H44  1  0.28169337  0.64659851  0.33581854  1
  H+  H45  1  0.95903280  0.10786579  0.49476719  1
  H+  H46  1  0.63777641  0.77249466  0.32102125  1
  H+  H47  1  0.86408372  0.73132000  0.34186439  1
  H+  H48  1  0.97232446  0.11296935  0.33182658  1
  H+  H49  1  0.61442498  0.21733136  0.34867675  1
  H+  H50  1  0.36930693  0.60101238  0.66768991  1
  H+  H51  1  0.72900660  0.10869943  0.32004859  1
  H+  H52  1  0.48328065  0.11642611  0.33505523  1
  H+  H53  1  0.32693884  0.69428754  0.10322933  1
  H+  H54  1  0.07592359  0.03321427  0.86350337  1
  H+  H55  1  0.39140799  0.11610766  0.00257376  1
  H+  H56  1  0.64012191  0.04719750  0.22627708  1
  H+  H57  1  1.02144849  0.63218139  0.66620848  1
  H+  H58  1  0.95591507  1.03470101  0.76562633  1
  H+  H59  1  0.88642213  0.86489479  0.18284443  1
  H+  H60  1  0.97540399  0.36249435  0.32663190  1
  H+  H61  1  0.38340250  0.38627566  0.83632022  1
  H+  H62  1  0.88059560  0.59827738  0.84219589  1
  H+  H63  1  0.88882803  0.27051185  0.17506089  1
  H+  H64  1  0.59038501  0.12534766  0.82858781  1
  H+  H65  1  0.27835439  0.39780692  0.81179073  1
  H+  H66  1  0.39748599  0.12242560  0.64823433  1
  H+  H67  1  0.14411331  0.61954337  0.32813032  1
  H+  H68  1  0.61233293  0.21542617  0.16045712  1
  H+  H69  1  0.47590494  0.11722063  0.17211610  1
  H+  H70  1  0.15645666  0.89765565  0.81371611  1
  H+  H71  1  0.07261219  0.35203481  0.03702377  1
  H+  H72  1  0.72816321  0.86116576  0.32171296  1
  H+  H73  1  0.77667499  0.65725152  0.49296915  1
  H+  H74  1  0.72642992  0.34574306  0.18250903  1
  H+  H75  1  0.36049467  0.90064587  0.83255557  1
  H+  H76  1  0.42971234  0.85316058  0.23425912  1
  H+  H77  1  0.12817649  0.23273809  0.66762927  1
  H+  H78  1  0.63739549  0.07925737  0.54722585  1
  H+  H79  1  0.11756458  0.63836694  0.49287141  1
  H+  H80  1  0.59606374  0.73593943  0.12245503  1
  H+  H81  1  0.84859754  0.22330561  0.01788520  1
  H+  H82  1  0.10290084  0.71995541  0.16608318  1
  H+  H83  1  0.97384573  0.87852584  0.51173143  1
  H+  H84  1  0.48732251  0.12159903  0.65250799  1
  H+  H85  1  0.82603215  0.39450675  0.42792439  1
  H+  H86  1  0.15835601  0.78403799  0.49701009  1
  H+  H87  1  0.44498284  0.81472074  0.91304071  1
  H+  H88  1  0.15164812  0.07892373  0.99053579  1
  H+  H89  1  0.38280592  0.52942559  0.49531041  1
  H+  H90  1  0.26785523  0.88651094  0.02079318  1
  H+  H91  1  0.27029166  0.13437138  0.16360438  1
  H+  H92  1  0.73119826  0.84748568  0.81084867  1
  H+  H93  1  0.26814234  0.66123147  0.68563342  1
  H+  H94  1  0.47272748  0.36707609  0.32165971  1
  H+  H95  1  0.88354217  0.61994963  0.34597681  1
  H+  H96  1  0.38871300  0.53081121  0.31828715  1
  H+  H97  1  0.13855695  0.02761261  0.32977335  1
  H+  H98  1  0.83678074  0.71070344  0.82870736  1
  H+  H99  1  0.14868140  0.28802209  1.05489854  1
  H+  H100  1  0.56234235  0.39432051  0.02887963  1
  H+  H101  1  -0.01968011  0.36370828  0.00830022  1
  H+  H102  1  0.14789322  0.78500337  0.33303540  1
  H+  H103  1  0.39670094  0.87431438  0.32511067  1
  H+  H104  1  0.09559716  0.12198050  0.48257222  1
  H+  H105  1  0.13858820  0.76014789  1.00306506  1
  H+  H106  1  0.60472157  0.45567784  0.67253869  1
  H+  H107  1  0.21645575  0.68682805  0.87801842  1
  H+  H108  1  0.63101991  0.11015952  0.64509577  1
  H+  H109  1  0.12767875  0.84294449  0.00271768  1
  H+  H110  1  0.70471853  0.11552824  0.84941367  1
  H+  H111  1  0.81418771  0.13553056  0.81295987  1
  H+  H112  1  0.98394576  0.61180978  0.99450875  1
  H+  H113  1  0.86939721  0.48321759  0.02345547  1
  H+  H114  1  0.13494301  0.02026864  0.17460425  1
  H+  H115  1  0.85987128  0.22113049  0.34089267  1
  H+  H116  1  0.81543673  0.37021895  0.85690251  1
  H+  H117  1  0.11782794  0.62677383  0.01430405  1
  H+  H118  1  0.11168886  0.22774715  0.33387865  1
  H+  H119  1  0.64042013  0.86518446  0.50546807  1
  H+  H120  1  0.35855384  0.22529788  0.16299184  1
  H+  H121  1  0.36617862  0.14682150  0.34197867  1
  H+  H122  1  0.00932063  0.87764286  0.83924275  1
  H+  H123  1  0.48508647  0.87076843  0.32388022  1
  H+  H124  1  0.12867060  0.15559497  1.01266677  1
  H+  H125  1  -0.04812376  0.33533793  0.50310801  1
  H+  H126  1  0.72365820  0.36128443  0.65539102  1
  H+  H127  1  0.89086045  0.60833533  0.65713954  1
  H+  H128  1  0.92031032  0.57412166  0.24609387  1
  H+  H129  1  0.89433650  0.08702417  0.81170636  1
  H+  H130  1  0.13661543  0.11558027  0.32514401  1
  H+  H131  1  0.72286717  0.34142136  0.49707685  1
  H+  H132  1  0.62163986  0.69389025  1.03114553  1
  H+  H133  1  0.08486836  0.39120635  0.55980341  1
  H+  H134  1  0.39974185  0.79592671  0.17374986  1
  H+  H135  1  0.84626023  0.23483814  0.81054349  1
  H+  H136  1  0.14303383  0.11103686  0.64977662  1
  H+  H137  1  0.94594859  0.04576745  1.05261292  1
  H+  H138  1  0.86867624  0.46735912  0.83469632  1
  H+  H139  1  0.40586503  0.53548434  -0.00780650  1
  H+  H140  1  0.59919915  0.78289677  0.97018931  1
  H+  H141  1  0.10608713  0.63348940  0.82666511  1
  H+  H142  1  0.61946164  0.97593822  0.33314676  1
  H+  H143  1  0.88943147  0.86821810  0.33749525  1
  H+  H144  1  0.41217665  0.63819534  0.67617093  1
  H+  H145  1  0.27664008  0.13174584  0.65845342  1
  H+  H146  1  0.91475676  0.56898886  0.38655829  1
  H+  H147  1  0.13424212  0.61525497  0.17602810  1
  H+  H148  1  0.64742975  0.66599715  0.18197780  1
  H+  H149  1  0.96845682  0.10401747  0.18988073  1
  H+  H150  1  0.92449451  0.84430619  0.27835145  1
  H+  H151  1  0.42837162  0.58171217  0.89933801  1
  H+  H152  1  0.77223137  0.64321254  0.18765069  1
  H+  H153  1  0.12168947  0.85092400  0.17718282  1
  H+  H154  1  0.36445508  0.73266585  0.49201738  1
  H+  H155  1  0.38191139  0.90171856  0.16328875  1
  H+  H156  1  0.88808469  0.77735138  0.19602178  1
  H+  H157  1  0.39191016  0.61758659  0.98851781  1
  H+  H158  1  0.62982966  0.35221334  0.66116444  1
  H+  H159  1  0.85513547  0.36405292  0.48731750  1
  H+  H160  1  0.39687415  0.72245070  0.83993099  1
  H+  H161  1  0.97708047  0.36330967  0.17174307  1
  H+  H162  1  0.16230129  0.42444908  0.65349949  1
  H+  H163  1  0.51027270  0.37211910  0.66762741  1
  H+  H164  1  0.63931727  0.10610528  0.32232576  1
  H+  H165  1  0.39823988  0.86673849  0.50283684  1
  H+  H166  1  0.02697960  0.89305778  0.34902546  1
  H+  H167  1  0.41028387  0.58338074  0.22162452  1
  H+  H168  1  0.72670497  0.61901861  0.32843728  1
  H+  H169  1  0.76856403  0.88011038  0.16219040  1
  H+  H170  1  0.86146820  0.71737231  0.67216492  1
  H+  H171  1  0.77218054  0.63545763  -0.02920752  1
  H+  H172  1  0.28425260  0.89171688  0.63849553  1
  H+  H173  1  1.01951821  0.88751247  0.16618994  1
  H+  H174  1  0.85234099  0.46335270  0.33142844  1
  H+  H175  1  0.38317390  0.61904403  0.50239927  1
  H+  H176  1  0.85955429  0.13414640  0.17166131  1
  H+  H177  1  0.01729766  0.62754527  0.16609849  1
  H+  H178  1  0.11784025  0.48423635  0.34048702  1
  H+  H179  1  0.51808532  0.13158880  0.00549085  1
  H+  H180  1  0.63752834  0.64348135  0.50389410  1
  H+  H181  1  0.08188634  0.16732211  0.39336315  1
  H+  H182  1  0.14013068  0.40084396  0.97140137  1
  H+  H183  1  0.88135116  0.87001401  0.50859851  1
  H+  H184  1  0.29122642  0.89391198  0.49270688  1
  H+  H185  1  0.87995538  0.51222085  0.18897015  1
  H+  H186  1  0.88954241  0.51900034  0.65085829  1
  H+  H187  1  0.37223912  0.98545675  0.34050416  1
  H+  H188  1  0.32808865  0.33061956  0.97675329  1
  H+  H189  1  0.14168074  0.35100759  0.50403257  1
  H+  H190  1  0.42654672  0.09310583  0.27421502  1
  H+  H191  1  0.39405675  0.78903764  0.66066844  1
  H+  H192  1  1.03946652  0.12950378  0.86181011  1
  H+  H193  1  0.07434442  0.90801191  0.10445633  1
  H+  H194  1  0.92368581  0.37667579  0.81391175  1
  H+  H195  1  0.36184885  0.11732665  0.48948900  1
  H+  H196  1  0.75733145  0.13237260  0.48259584  1
  H+  H197  1  0.14220511  0.51820258  -0.00167307  1
  H+  H198  1  0.27513126  0.39419114  0.33058805  1
  H+  H199  1  0.38534570  0.11539560  0.17569429  1
  H+  H200  1  0.76079828  0.61265557  0.82613095  1
  H+  H201  1  0.63564709  0.34102395  0.17988260  1
  H+  H202  1  0.36908826  1.02596816  0.85790503  1
  H+  H203  1  0.76796075  0.13807529  0.65374579  1
  H+  H204  1  0.85624964  0.63357868  0.19545717  1
  H+  H205  1  0.27616837  0.38817825  0.48447143  1
  H+  H206  1  0.52682753  0.61997936  0.82447673  1
  H+  H207  1  0.16123049  0.07135093  0.59033784  1
  H+  H208  1  0.27405826  0.38436520  0.65829703  1
  H+  H209  1  0.38549130  0.35785639  0.64650066  1
  H+  H210  1  0.29792991  0.64769534  0.84036599  1
  H+  H211  1  0.90098250  0.63779485  0.50213204  1
  H+  H212  1  0.86713945  0.39453259  1.03004103  1
  H+  H213  1  0.61208557  0.88761428  0.67918244  1
  H+  H214  1  0.56809804  0.92371411  0.75552682  1
  H+  H215  1  0.64434377  0.38870948  0.01188071  1
  H+  H216  1  0.59152723  0.45267298  0.82083873  1
  H+  H217  1  0.13704551  0.86105321  0.64985683  1
  H+  H218  1  0.63636417  0.77553086  0.50816974  1
  H+  H219  1  0.62044448  0.22775800  0.66746654  1
  H+  H220  1  0.73365834  0.57367502  0.64301951  1
  H+  H221  1  0.27843286  0.11712069  0.00899460  1
  H+  H222  1  0.82462076  -0.03410409  0.80386542  1
  H+  H223  1  0.10533925  0.26102955  0.04018235  1
  H+  H224  1  0.22933239  0.61487636  0.50849061  1
  H+  H225  1  0.42652379  0.50838735  0.63698378  1
  H+  H226  1  0.52261273  0.66085530  1.01781267  1
  H+  H227  1  0.40269615  0.87756429  0.64031714  1
  H+  H228  1  0.38204007  0.27852845  0.32504188  1
  H+  H229  1  0.84696963  0.84525778  0.82963271  1
  H+  H230  1  0.33123126  0.16581864  0.06933192  1
  H+  H231  1  0.51518587  0.64346233  0.48634423  1
  H+  H232  1  0.83356828  -0.04107437  1.01056089  1
  H+  H233  1  0.14537598  0.87263811  0.33388190  1
  H+  H234  1  0.85556264  0.97191846  0.17120488  1
  H+  H235  1  0.22280285  0.36096974  0.16640531  1
  H+  H236  1  0.37080612  0.48404722  0.81845344  1
  H+  H237  1  0.10908057  0.13059609  0.17103935  1
  H+  H238  1  0.44867337  0.85017887  1.00458814  1
  H+  H239  1  0.01438844  0.11401330  0.81592786  1
  H+  H240  1  0.62728528  0.58729570  0.83312219  1
  H+  H241  1  0.87387466  0.27573047  0.64679682  1
  H+  H242  1  0.52516532  0.80629417  0.89744952  1
  H+  H243  1  0.64720165  0.51288560  0.99813513  1
  H+  H244  1  0.83347010  0.66510973  0.91495427  1
  H+  H245  1  0.52181649  0.88790552  0.67235779  1
  H+  H246  1  0.37818564  0.61422285  0.16565734  1
  H+  H247  1  0.46728379  0.36555820  0.84140389  1
  H+  H248  1  0.62009144  0.70414449  0.81801616  1
  H+  H249  1  0.89737925  0.61647850  -0.01831390  1
  H+  H250  1  0.53915948  0.92518880  0.16593896  1
  H+  H251  1  0.84106213  0.10181395  -0.02053759  1
  H+  H252  1  0.18470885  0.24906908  0.81396539  1
  H+  H253  1  0.27188815  0.65502590  0.16315570  1
  H+  H254  1  0.14639071  0.53472048  0.69092183  1
  H+  H255  1  0.13303707  0.27204807  0.17320976  1
  H+  H256  1  0.47260381  0.35876453  0.17546590  1
  H+  H257  1  0.77018841  0.88516266  0.66161650  1
  H+  H258  1  1.01537662  0.87213035  1.00511713  1
  H+  H259  1  0.15343727  0.98376482  0.81112250  1
  H+  H260  1  0.39763548  0.61004459  0.83949311  1
  H+  H261  1  0.63118049  0.26787977  0.98740802  1
  H+  H262  1  0.41470920  1.02615420  0.50240104  1
  H+  H263  1  0.85028133  0.22537057  0.49085484  1
  H+  H264  1  0.36396933  0.39400989  0.33180246  1
  H+  H265  1  0.90382939  0.07349628  0.24588788  1
  H+  H266  1  0.61145274  0.64008254  0.33809477  1
  H+  H267  1  0.37479772  0.99189926  0.16513400  1
  H+  H268  1  0.46215404  0.35753821  1.00688937  1
  H+  H269  1  0.52015979  0.87975364  0.83253935  1
  H+  H270  1  0.11226689  0.94938617  0.00583141  1
  H+  H271  1  1.01430595  0.62661628  0.82550444  1
  H+  H272  1  0.36021823  0.38837935  0.15462518  1
  H+  H273  1  0.10939284  0.14913335  -0.01891098  1
  H+  H274  1  0.37275599  0.98363161  0.63724353  1
  H+  H275  1  0.17398264  0.58670550  0.56975387  1
  H+  H276  1  0.63232340  0.50592915  0.50425215  1
  H+  H277  1  0.52284478  0.64140868  0.33105756  1
  H+  H278  1  0.13790351  0.36674561  0.32278858  1
  H+  H279  1  0.70341520  0.35954982  0.82235610  1
  H+  H280  1  0.90463590  0.33722185  0.95754106  1
  H+  H281  1  0.15555684  0.38710103  0.80339583  1
  H+  H282  1  0.76950481  0.88366717  0.49660356  1
  H+  H283  1  0.06487733  0.43178567  0.77832848  1
  H+  H284  1  0.85661577  0.97640281  0.49137484  1
  H+  H285  1  0.11230493  0.21797384  0.48671906  1
  H+  H286  1  0.85690771  0.87864882  0.66322256  1
  H+  H287  1  0.40515349  0.38054382  0.49141246  1
  H+  H288  1  0.64164095  0.81453580  0.90392808  1
  H+  H289  1  0.18174627  0.84117676  0.55578457  1
  H+  H290  1  0.16517227  0.33697440  0.26217061  1
  H+  H291  1  0.65941980  0.31913853  0.55114024  1
  H+  H292  1  0.33641075  0.41796335  0.71718899  1
  H+  H293  1  0.55009759  0.12232696  0.50197064  1
  H+  H294  1  0.08158820  0.65497053  0.07194420  1
  H+  H295  1  0.91974913  0.32968003  0.26551161  1
  H+  H296  1  0.66925717  0.50371312  0.59264462  1
  H+  H297  1  0.03463315  0.65122933  0.48978781  1
  H+  H298  1  0.35864487  0.97987091  0.74750881  1
  H+  H299  1  0.82802092  0.91475875  0.74083678  1
  H+  H300  1  0.83122112  0.65570899  0.73019051  1
  H+  H301  1  0.63669562  0.77726504  0.66211101  1
  H+  H302  1  0.11624339  0.47012817  0.51604033  1
  H+  H303  1  0.66683649  0.59623109  0.26965895  1
  H+  H304  1  0.60918697  0.99305086  0.06640354  1
  H+  H305  1  0.91310556  0.82705803  0.60204392  1
  H+  H306  1  0.33292358  0.42651255  0.42416452  1
  H+  H307  1  0.59446750  0.66200936  0.72446125  1
  H+  H308  1  0.15600887  0.82598303  0.23588853  1
  H+  H309  1  0.41086144  0.33367082  0.23332770  1
  H+  H310  1  0.75634367  0.13495417  0.01976897  1
  H+  H311  1  0.08225082  0.42563565  0.09871387  1
  H+  H312  1  0.41116174  0.08505603  0.94014553  1
  H+  H313  1  0.89368544  0.32368402  0.58214677  1
  H+  H314  1  0.31468521  0.94095760  0.74733879  1
  H+  H315  1  0.65239712  0.55202509  0.89229665  1
  H+  H316  1  0.66799924  0.61012083  0.56238950  1
  H+  H317  1  0.35003703  0.92288981  0.43302085  1
  H+  H318  1  0.09194600  0.93276215  0.40484396  1
  H+  H319  1  0.45414352  0.11250305  0.84234921  1
  H+  H320  1  0.64895790  0.06738958  0.90943918  1
  H+  H321  1  0.23898331  0.60449695  1.00066671  1
  H+  H322  1  0.17022436  0.58669918  0.26837258  1
  H+  H323  1  0.57793407  0.67615384  0.42787344  1
  H+  H324  1  0.61228227  0.42004161  0.11363911  1
  H+  H325  1  0.85876613  -0.02553588  0.34506892  1
  H+  H326  1  0.17380518  0.36891523  0.87136064  1
  H+  H327  1  0.16004812  0.32675386  0.96029515  1
  H+  H328  1  0.83513388  0.40912335  0.71730316  1
  H+  H329  1  0.88252037  0.77884337  0.97762377  1
  H+  H330  1  0.97699697  0.34254465  0.84999761  1
  H+  H331  1  0.84836146  0.06545356  0.87764515  1
  H+  H332  1  0.33819212  0.17197966  0.71717686  1
  H+  H333  1  0.65198116  0.30996372  0.27404040  1
  H+  H334  1  0.59702326  0.15353852  0.40458608  1
  H+  H335  1  0.84356985  0.92534641  0.07747987  1
  H+  H336  1  0.11078980  0.96909661  0.66157728  1
  H+  H337  1  0.65364899  0.32684821  0.92794970  1
  H+  H338  1  0.55471382  0.41299926  0.51240775  1
  H+  H339  1  0.61682430  0.88573615  0.33061100  1
  H+  H340  1  0.05747907  0.15114916  0.70860723  1
  H+  H341  1  0.92990236  0.59989627  0.55669947  1
  H+  H342  1  0.85769701  0.37677225  0.32755053  1
  H+  H343  1  0.88136468  0.11172129  0.33560126  1
  H+  H344  1  0.82689715  0.16099524  0.11242750  1
  H+  H345  1  0.07871650  0.66572177  0.72670697  1
  H+  H346  1  0.18286701  0.60131277  0.91515317  1
  H+  H347  1  0.92035517  0.09175781  0.96730920  1
  H+  H348  1  0.87689802  0.82498302  0.89263189  1
  H+  H349  1  0.83021440  0.67526364  0.40248964  1
  H+  H350  1  0.33357316  0.67385427  0.43215805  1
  H+  H351  1  0.82548591  0.91157137  0.40270632  1
  H+  H352  1  0.09814962  0.67492463  0.40116997  1
  H+  H353  1  0.44187858  0.09131018  0.55848470  1
  H+  H354  1  0.86529958  0.70606920  0.08166280  1
  H+  H355  1  0.42923907  0.83390725  0.56052228  1
  H+  H356  1  0.61081865  0.34935867  0.82925856  1
  H+  H357  1  0.57925807  0.16464141  0.06444404  1
  H+  H358  1  0.58554091  0.16217643  0.72498009  1
  H+  H359  1  0.08651863  0.42083898  0.39758462  1
  H+  H360  1  0.05332312  0.14419416  0.11957606  1
  H+  H361  1  0.35614002  0.47597888  0.15273070  1
  H+  H362  1  0.42450450  0.33871288  0.54684138  1
  H+  H363  1  0.38271681  0.32548620  0.89898135  1
  H+  H364  1  0.82930787  0.66034936  0.07934846  1
  H+  H365  1  -0.05859447  0.12758901  0.07082009  1
  H+  H366  1  0.16616253  0.07979684  0.23488004  1
  H+  H367  1  0.59313618  0.11800314  0.15465023  1
  H+  H368  1  0.82344388  0.16166533  0.40156143  1
  H+  H369  1  0.32031409  0.14747110  0.44123555  1
  H+  H370  1  0.61603868  0.10322818  1.00504428  1
  H+  H371  1  0.10480300  0.91788103  0.72136705  1
  H+  H372  1  0.33799233  0.92701036  0.09895952  1
  H+  H373  1  0.80388805  0.17213328  0.71882206  1
  H+  H374  1  0.33382027  0.69190248  0.74144718  1
  H+  H375  1  0.45392546  0.57273812  0.58199644  1
  H+  H376  1  0.61185838  0.57627532  0.98355517  1
  H+  H377  1  0.55412853  0.39263960  0.76101054  1
  H+  H378  1  0.65991692  0.83714148  0.60269295  1
  H+  H379  1  0.17390162  0.05229063  0.92941260  1
  H+  H380  1  0.91873711  0.57330090  0.90051196  1
  H+  H381  1  0.17575012  0.31891472  0.55796179  1
  H+  H382  1  0.59153630  0.91039405  0.42878317  1
  H+  H383  1  0.86769236  0.74179442  0.49138014  1
  O2-  O384  1  0.07538926  0.16015555  0.16179053  1
  O2-  O385  1  0.07441009  0.15982894  0.46816557  1
  O2-  O386  1  0.19219273  0.20273743  0.79682493  1
  O2-  O387  1  0.08444083  0.42554136  0.14446661  1
  O2-  O388  1  0.08619831  0.40605843  0.51626291  1
  O2-  O389  1  0.12719423  0.46901342  0.77014785  1
  O2-  O390  1  0.07674992  0.65867198  0.14965498  1
  O2-  O391  1  0.09512237  0.67307757  0.47349567  1
  O2-  O392  1  0.07470193  0.66084052  0.81005059  1
  O2-  O393  1  0.07938229  0.91622792  0.14936341  1
  O2-  O394  1  0.08812499  0.96081334  0.48858513  1
  O2-  O395  1  0.16019190  0.94243246  0.78575365  1
  O2-  O396  1  0.33073588  0.16486729  0.14748385  1
  O2-  O397  1  0.30843345  0.11752743  0.48049428  1
  O2-  O398  1  0.34440113  0.19352831  0.79228620  1
  O2-  O399  1  0.32798777  0.41498002  0.13698726  1
  O2-  O400  1  0.33544893  0.42828705  0.46947489  1
  O2-  O401  1  0.34099556  0.42421697  0.80070724  1
  O2-  O402  1  0.33248087  0.68987809  0.14735529  1
  O2-  O403  1  0.32963755  0.67108559  0.47738927  1
  O2-  O404  1  0.35360483  0.66764306  0.81964687  1
  O2-  O405  1  0.34826046  0.93052307  0.14847939  1
  O2-  O406  1  0.35319801  0.92235538  0.47818664  1
  O2-  O407  1  0.33497138  0.91911613  0.86370832  1
  O2-  O408  1  0.57387893  0.15835255  0.14021430  1
  O2-  O409  1  0.61349262  0.14673595  0.48878375  1
  O2-  O410  1  0.56378627  0.15541701  0.80836805  1
  O2-  O411  1  0.59266848  0.40660075  0.15701990  1
  O2-  O412  1  0.61740244  0.44934356  0.52074406  1
  O2-  O413  1  0.55321679  0.39123701  0.80791595  1
  O2-  O414  1  0.61079794  0.73412172  0.16585730  1
  O2-  O415  1  0.57711400  0.67701861  0.47320344  1
  O2-  O416  1  0.58627069  0.64154444  0.80836342  1
  O2-  O417  1  0.59968889  0.96814426  0.15375964  1
  O2-  O418  1  0.59152272  0.90607959  0.47366193  1
  O2-  O419  1  0.55459582  0.93186535  0.80265464  1
  O2-  O420  1  0.83596071  0.17025168  0.15666269  1
  O2-  O421  1  0.81821239  0.15980539  0.47121427  1
  O2-  O422  1  0.79471853  0.17829204  0.80483267  1
  O2-  O423  1  0.82832506  0.41229245  0.16304457  1
  O2-  O424  1  0.83005329  0.40096670  0.47220037  1
  O2-  O425  1  0.84382236  0.40545550  0.82135380  1
  O2-  O426  1  0.83221265  0.67204757  0.20100877  1
  O2-  O427  1  0.83631194  0.68132904  0.47601133  1
  O2-  O428  1  0.82424697  0.65000892  0.82016830  1
  O2-  O429  1  0.83078726  0.91389399  0.15124176  1
  O2-  O430  1  0.82918184  0.91303727  0.47901245  1
  O2-  O431  1  0.82706330  0.91497337  0.78907664  1
  O2-  O432  1  0.16618087  0.08144202  0.18904920  1
  O2-  O433  1  0.12459234  0.03840588  0.50787092  1
  O2-  O434  1  0.13785897  0.05756437  0.85929089  1
  O2-  O435  1  0.16326919  0.33465322  0.18328063  1
  O2-  O436  1  0.17317605  0.31933829  0.51162592  1
  O2-  O437  1  0.17581882  0.35435824  0.82774647  1
  O2-  O438  1  0.17047279  0.59010135  0.18988490  1
  O2-  O439  1  0.16919996  0.58240052  0.52505990  1
  O2-  O440  1  0.19343253  0.62542614  0.87157121  1
  O2-  O441  1  0.14550828  0.81484815  0.19166900  1
  O2-  O442  1  0.19072462  0.84434709  0.51106621  1
  O2-  O443  1  0.16269479  0.82114925  0.86406146  1
  O2-  O444  1  0.41676358  0.08593968  0.19047442  1
  O2-  O445  1  0.45127127  0.08813457  0.51378806  1
  O2-  O446  1  0.39771678  0.08993951  0.86282481  1
  O2-  O447  1  0.41156806  0.33218188  0.18686402  1
  O2-  O448  1  0.43831632  0.35273033  0.50339786  1
  O2-  O449  1  0.41898748  0.36863229  0.86428240  1
  O2-  O450  1  0.40220423  0.57741990  0.17667759  1
  O2-  O451  1  0.41617891  0.58940070  0.51190681  1
  O2-  O452  1  0.42604436  0.57701114  0.85368970  1
  O2-  O453  1  0.43186875  0.85679884  0.18798501  1
  O2-  O454  1  0.42502027  0.83128084  0.51512123  1
  O2-  O455  1  0.47647157  0.80947624  0.87565505  1
  O2-  O456  1  0.61224146  0.04462603  0.18622752  1
  O2-  O457  1  0.63160661  0.07791552  0.50140416  1
  O2-  O458  1  0.64640999  0.07287893  0.86460482  1
  O2-  O459  1  0.66395309  0.30897877  0.19407822  1
  O2-  O460  1  0.66165035  0.30265604  0.50898737  1
  O2-  O461  1  0.64886099  0.32604249  0.84375004  1
  O2-  O462  1  0.65639696  0.61553744  0.18721093  1
  O2-  O463  1  0.67878932  0.62531959  0.51901013  1
  O2-  O464  1  0.65434618  0.55212462  0.84727371  1
  O2-  O465  1  0.66228358  0.82520064  0.18193658  1
  O2-  O466  1  0.66921540  0.83472865  0.52536988  1
  O2-  O467  1  0.66982192  0.81216092  0.82626896  1
  O2-  O468  1  0.90599514  0.07250705  0.19987434  1
  O2-  O469  1  0.89956618  0.07384150  0.50964366  1
  O2-  O470  1  0.83755275  0.06208438  0.83272340  1
  O2-  O471  1  0.91823362  0.33252997  0.18943976  1
  O2-  O472  1  0.89099526  0.30727342  0.51362908  1
  O2-  O473  1  0.95933240  0.34867003  0.80928574  1
  O2-  O474  1  0.91316723  0.57452608  0.20205830  1
  O2-  O475  1  0.93835995  0.61383141  0.51277613  1
  O2-  O476  1  0.91299718  0.56899879  0.85474917  1
  O2-  O477  1  0.92191282  0.84179382  0.20020194  1
  O2-  O478  1  0.91369822  0.84077523  0.52406044  1
  O2-  O479  1  0.84452815  0.79846743  0.85502045  1
  O2-  O480  1  0.16833199  0.08613391  0.31106204  1
  O2-  O481  1  0.16768510  0.07549651  0.63491145  1
  O2-  O482  1  0.18061871  0.04908131  0.97459389  1
  O2-  O483  1  0.16704306  0.33578458  0.30763580  1
  O2-  O484  1  0.17331764  0.32578950  0.63114179  1
  O2-  O485  1  0.18158796  0.38657603  0.94887033  1
  O2-  O486  1  0.17178330  0.58606534  0.31394482  1
  O2-  O487  1  0.16536871  0.57864248  0.65881171  1
  O2-  O488  1  0.17478467  0.57915866  0.98603902  1
  O2-  O489  1  0.17656807  0.84472701  0.31663867  1
  O2-  O490  1  0.16951947  0.83290671  0.63507819  1
  O2-  O491  1  0.16539984  0.82066096  0.98767994  1
  O2-  O492  1  0.42319540  0.09159303  0.31920737  1
  O2-  O493  1  0.42921586  0.09359534  0.63330754  1
  O2-  O494  1  0.41663357  0.08190656  0.98549207  1
  O2-  O495  1  0.41075629  0.33769865  0.30663786  1
  O2-  O496  1  0.41825996  0.32997616  0.63231850  1
  O2-  O497  1  0.32412307  0.28333551  0.95073728  1
  O2-  O498  1  0.42080419  0.59111527  0.30226096  1
  O2-  O499  1  0.47690966  0.55606516  0.61706333  1
  O2-  O500  1  0.43412236  0.59540341  0.97653426  1
  O2-  O501  1  0.42446900  0.84242229  0.30766968  1
  O2-  O502  1  0.43469287  0.84361201  0.63885156  1
  O2-  O503  1  0.40485523  0.80807104  0.97762632  1
  O2-  O504  1  0.66873718  0.07702589  0.30357623  1
  O2-  O505  1  0.65488903  0.07772319  0.62302821  1
  O2-  O506  1  0.64827791  0.06998070  0.99474156  1
  O2-  O507  1  0.65159903  0.31644344  0.31894411  1
  O2-  O508  1  0.66155739  0.32464241  0.64480416  1
  O2-  O509  1  0.65850636  0.32817665  0.97272377  1
  O2-  O510  1  0.66559117  0.58874782  0.31416568  1
  O2-  O511  1  0.67381990  0.53918254  0.62880230  1
  O2-  O512  1  0.65798968  0.56499285  0.97343008  1
  O2-  O513  1  0.66951276  0.83182685  0.30281345  1
  O2-  O514  1  0.66114367  0.83933370  0.64841942  1
  O2-  O515  1  0.60590455  0.82043288  0.93547999  1
  O2-  O516  1  0.91019856  0.07931408  0.32032634  1
  O2-  O517  1  0.98150507  0.09684691  0.77109180  1
  O2-  O518  1  0.86007543  0.06692893  0.95518624  1
  O2-  O519  1  0.91579355  0.32954646  0.31113651  1
  O2-  O520  1  0.89917686  0.33424983  0.62882927  1
  O2-  O521  1  0.91215765  0.33229377  1.00084113  1
  O2-  O522  1  0.91559649  0.58637439  0.34426050  1
  O2-  O523  1  0.92298341  0.58149608  0.63952381  1
  O2-  O524  1  0.92469747  0.58083556  0.97639934  1
  O2-  O525  1  0.92305340  0.84029450  0.32383296  1
  O2-  O526  1  0.91132047  0.82269883  0.64743525  1
  O2-  O527  1  0.91793764  0.84207649  0.97276690  1
  O2-  O528  1  -0.01882861  0.10962652  0.05616080  1
  O2-  O529  1  0.08135700  0.16669308  0.34748898  1
  O2-  O530  1  0.11473573  0.17734966  0.68914157  1
  O2-  O531  1  0.07217982  0.40215160  0.02042563  1
  O2-  O532  1  0.08638681  0.42193876  0.35323910  1
  O2-  O533  1  0.12090117  0.36810112  0.63721922  1
  O2-  O534  1  0.08465497  0.65556827  0.02630198  1
  O2-  O535  1  0.09849619  0.67718592  0.35474736  1
  O2-  O536  1  0.08262409  0.66410260  0.68185117  1
  O2-  O537  1  0.07277710  0.89292915  0.02495150  1
  O2-  O538  1  0.08948325  0.92491013  0.36037145  1
  O2-  O539  1  0.08180226  0.90976868  0.67858974  1
  O2-  O540  1  0.33483125  0.16412935  0.02376911  1
  O2-  O541  1  0.33565353  0.17782876  0.35379343  1
  O2-  O542  1  0.33758494  0.16630187  0.67170258  1
  O2-  O543  1  0.33532560  0.42372188  0.01285424  1
  O2-  O544  1  0.33570486  0.42744551  0.34511486  1
  O2-  O545  1  0.33565396  0.41343415  0.67243596  1
  O2-  O546  1  0.33214824  0.64543960  0.01724810  1
  O2-  O547  1  0.34209236  0.67608176  0.35079514  1
  O2-  O548  1  0.31960446  0.71103472  0.70343212  1
  O2-  O549  1  0.32670596  0.92254642  0.03797915  1
  O2-  O550  1  0.34471658  0.92365282  0.35287666  1
  O2-  O551  1  0.34766408  0.92028636  0.63744781  1
  O2-  O552  1  0.58034406  0.16216316  0.01874676  1
  O2-  O553  1  0.58773348  0.15501016  0.36015320  1
  O2-  O554  1  0.59002396  0.16472642  0.68008680  1
  O2-  O555  1  0.62463140  0.42598716  0.03608719  1
  O2-  O556  1  0.56993068  0.41190841  0.34405957  1
  O2-  O557  1  0.56662963  0.39739465  0.69083106  1
  O2-  O558  1  0.57671065  0.70821065  0.03731316  1
  O2-  O559  1  0.58213142  0.67310521  0.34896273  1
  O2-  O560  1  0.60485867  0.67995724  0.68161721  1
  O2-  O561  1  0.59472485  0.98426056  0.02244593  1
  O2-  O562  1  0.58664968  0.91488560  0.34759147  1
  O2-  O563  1  0.58089880  0.91828191  0.69382976  1
  O2-  O564  1  0.81872546  0.16075385  0.02847532  1
  O2-  O565  1  0.82777168  0.16041422  0.35454031  1
  O2-  O566  1  0.82202531  0.17079165  0.67686429  1
  O2-  O567  1  0.84060262  0.42774825  0.04524477  1
  O2-  O568  1  0.82099798  0.40156952  0.34024730  1
  O2-  O569  1  0.83183322  0.41452768  0.67343490  1
  O2-  O570  1  0.83379038  0.66678523  -0.04035082  1
  O2-  O571  1  0.83107918  0.67049444  0.35650887  1
  O2-  O572  1  0.83467822  0.65587926  0.68546579  1
  O2-  O573  1  0.86696219  0.93990650  0.03461484  1
  O2-  O574  1  0.82795694  0.91232636  0.35680045  1
  O2-  O575  1  0.83138273  0.91441448  0.67553066  1
