# generated using pymatgen
data_H2O
_symmetry_space_group_name_H-M   'P 1'
_cell_length_a   17.99012367
_cell_length_b   17.99113612
_cell_length_c   22.00197867
_cell_angle_alpha   89.99156493
_cell_angle_beta   89.99893490
_cell_angle_gamma   120.01436116
_symmetry_Int_Tables_number   1
_chemical_formula_structural   H2O
_chemical_formula_sum   'H384 O192'
_cell_volume   6166.26572430
_cell_formula_units_Z   192
loop_
 _symmetry_equiv_pos_site_id
 _symmetry_equiv_pos_as_xyz
  1  'x, y, z'
loop_
 _atom_type_symbol
 _atom_type_oxidation_number
  H+  1.0
  O2-  -2.0
loop_
 _atom_site_type_symbol
 _atom_site_label
 _atom_site_symmetry_multiplicity
 _atom_site_fract_x
 _atom_site_fract_y
 _atom_site_fract_z
 _atom_site_occupancy
  H+  H0  1  0.61964489  -0.01949437  0.81463525  1
  H+  H1  1  0.71848034  0.61299396  0.86143690  1
  H+  H2  1  0.37646435  1.00782136  0.66124441  1
  H+  H3  1  0.63834147  0.86043037  0.99444029  1
  H+  H4  1  0.13839694  0.27015270  0.16978102  1
  H+  H5  1  0.56659205  0.63703594  0.76553117  1
  H+  H6  1  0.92920494  0.83667588  0.59717320  1
  H+  H7  1  0.41153107  0.45764621  0.68665633  1
  H+  H8  1  0.83244198  0.90017823  0.07320656  1
  H+  H9  1  0.87415227  0.79197699  0.68473907  1
  H+  H10  1  0.58684253  0.99478849  0.31742536  1
  H+  H11  1  0.83433428  0.26311099  0.12920320  1
  H+  H12  1  0.83976116  0.14234137  0.16128642  1
  H+  H13  1  0.60445679  0.46916032  0.87344673  1
  H+  H14  1  0.14557717  0.87345416  0.16974988  1
  H+  H15  1  0.97142228  0.18355176  1.03240933  1
  H+  H16  1  0.57692198  -0.09934734  0.73433841  1
  H+  H17  1  0.36570444  0.92797435  0.27975679  1
  H+  H18  1  0.11970409  0.13486229  0.82732347  1
  H+  H19  1  0.88401432  0.52954320  0.83583209  1
  H+  H20  1  0.15943006  0.12678031  0.16244423  1
  H+  H21  1  0.51762565  0.86925042  0.00886880  1
  H+  H22  1  0.77691139  0.37962206  0.66709234  1
  H+  H23  1  0.88514756  0.12126626  0.67164215  1
  H+  H24  1  0.02720903  0.12820321  0.33495187  1
  H+  H25  1  0.67040283  0.37792975  0.33822400  1
  H+  H26  1  0.56162521  0.92023548  0.49524605  1
  H+  H27  1  0.92243714  0.34951389  0.92402761  1
  H+  H28  1  0.60084872  0.35717126  0.64726449  1
  H+  H29  1  0.38002463  0.71503407  0.33417273  1
  H+  H30  1  0.39484423  0.60079982  0.30548769  1
  H+  H31  1  0.65401239  0.58575861  0.95153976  1
  H+  H32  1  0.10906346  0.66081770  0.82033791  1
  H+  H33  1  0.37302450  0.72381967  0.15389127  1
  H+  H34  1  0.33899804  0.65571119  0.09735448  1
  H+  H35  1  0.35326043  0.21564410  0.47686587  1
  H+  H36  1  0.38500921  0.86438422  0.17496306  1
  H+  H37  1  0.85719525  0.39018789  0.15612795  1
  H+  H38  1  0.13264844  0.62367134  0.50828359  1
  H+  H39  1  0.37380786  0.26881308  0.83030258  1
  H+  H40  1  0.11584859  0.38566147  0.34076184  1
  H+  H41  1  0.73240340  0.61181470  0.32200271  1
  H+  H42  1  0.12847315  0.64417589  0.33845294  1
  H+  H43  1  0.57341260  0.39412242  0.70106824  1
  H+  H44  1  0.74992955  0.15119975  0.32067147  1
  H+  H45  1  0.85100195  0.90836789  0.46304407  1
  H+  H46  1  0.10019359  0.88856492  0.67963214  1
  H+  H47  1  0.74994996  0.38854165  -0.00064328  1
  H+  H48  1  0.60100183  0.69895778  0.14679609  1
  H+  H49  1  0.21240315  0.10640983  0.49989445  1
  H+  H50  1  0.89227257  0.02127055  0.52339735  1
  H+  H51  1  0.22088745  0.36180680  0.32425262  1
  H+  H52  1  0.82299393  0.16413161  0.74837042  1
  H+  H53  1  0.64360402  0.37299324  0.99907410  1
  H+  H54  1  0.45288984  0.09250757  0.50439079  1
  H+  H55  1  0.35335626  0.47222748  0.82433108  1
  H+  H56  1  0.86587708  0.26315049  0.83580418  1
  H+  H57  1  0.46738329  0.13269664  0.18975292  1
  H+  H58  1  0.87992573  0.61354851  0.99356192  1
  H+  H59  1  0.47912383  0.59270767  0.15648957  1
  H+  H60  1  0.14275099  0.85453787  0.60935477  1
  H+  H61  1  0.45712548  0.33552338  0.63952372  1
  H+  H62  1  0.13673994  0.02224174  0.84926358  1
  H+  H63  1  0.74474308  0.19839566  0.09690753  1
  H+  H64  1  0.02783380  0.64377357  0.48717445  1
  H+  H65  1  0.34879170  0.25058456  0.31580004  1
  H+  H66  1  0.12918757  0.10670977  0.66152532  1
  H+  H67  1  0.49645132  0.37630257  0.49445801  1
  H+  H68  1  0.30629432  0.68904770  0.67135446  1
  H+  H69  1  0.34992146  0.12887197  0.32108814  1
  H+  H70  1  0.11393957  0.47537392  0.14428559  1
  H+  H71  1  0.49065444  0.84907981  0.32867090  1
  H+  H72  1  0.28561405  0.87408454  1.00742888  1
  H+  H73  1  0.88766811  0.49250361  0.48383804  1
  H+  H74  1  0.89687192  0.61552034  0.51316730  1
  H+  H75  1  0.14508808  0.14880425  0.98358772  1
  H+  H76  1  1.04186409  0.41251848  0.99450310  1
  H+  H77  1  0.58187424  0.08237226  0.31683870  1
  H+  H78  1  0.73819275  0.15252765  0.51308379  1
  H+  H79  1  0.21047757  0.87231909  0.33716376  1
  H+  H80  1  0.37753700  0.38304910  1.00642712  1
  H+  H81  1  0.86083395  0.37410635  0.67395666  1
  H+  H82  1  0.35640578  0.47688500  0.48886798  1
  H+  H83  1  0.16190171  0.75457308  0.97582101  1
  H+  H84  1  0.12042318  0.22530992  0.82492981  1
  H+  H85  1  0.87771857  -0.00107837  0.68295067  1
  H+  H86  1  0.12181102  0.73070746  0.33700198  1
  H+  H87  1  0.61594029  0.23214998  0.33387801  1
  H+  H88  1  -0.00697574  0.61030403  0.32443707  1
  H+  H89  1  0.87568055  0.99656080  0.83725247  1
  H+  H90  1  0.17339022  0.09780937  0.25517267  1
  H+  H91  1  0.38406433  0.78725910  0.50508298  1
  H+  H92  1  0.66703516  0.07707537  0.94068837  1
  H+  H93  1  0.09314146  0.43945839  0.66463458  1
  H+  H94  1  0.33099201  0.88191378  0.50966495  1
  H+  H95  1  0.97267763  0.84873569  0.34188266  1
  H+  H96  1  0.27685969  0.42446559  -0.01168454  1
  H+  H97  1  -0.01108867  0.61136084  0.16397516  1
  H+  H98  1  0.67773335  0.34197910  0.23476852  1
  H+  H99  1  0.08994819  0.16542914  0.73459605  1
  H+  H100  1  0.51088806  0.28989737  0.30294867  1
  H+  H101  1  0.58695011  0.16832218  0.73254123  1
  H+  H102  1  0.64182744  0.24723939  0.82682405  1
  H+  H103  1  0.25700970  0.88930291  0.82100518  1
  H+  H104  1  0.99176262  0.84069583  0.54152904  1
  H+  H105  1  0.33909440  0.57807733  1.00042099  1
  H+  H106  1  0.35164963  0.12694442  0.48757767  1
  H+  H107  1  0.73286234  0.13555765  0.35208890  1
  H+  H108  1  0.18335620  0.59404368  0.09212152  1
  H+  H109  1  0.24454859  0.79064000  0.93114128  1
  H+  H110  1  0.48827821  0.62273986  -0.00222875  1
  H+  H111  1  0.51542948  0.38057094  0.86254854  1
  H+  H112  1  -0.04218156  0.35630564  0.83515969  1
  H+  H113  1  0.02524958  0.64584427  -0.00106566  1
  H+  H114  1  0.72845157  0.37030386  0.17126605  1
  H+  H115  1  0.64228898  0.10813599  0.84683964  1
  H+  H116  1  0.68021736  0.34517826  0.93717235  1
  H+  H117  1  0.78203960  0.88060957  0.30708685  1
  H+  H118  1  0.40365662  0.58594805  0.56071972  1
  H+  H119  1  0.35833944  0.47574299  0.15250752  1
  H+  H120  1  0.90016459  0.36909500  0.51008651  1
  H+  H121  1  0.18564561  0.11887376  0.93266100  1
  H+  H122  1  0.59103369  0.91318019  0.39870697  1
  H+  H123  1  0.37249583  0.61311251  0.50164088  1
  H+  H124  1  -0.00673371  0.88547784  0.84595071  1
  H+  H125  1  0.36994854  0.33707863  0.64852146  1
  H+  H126  1  0.72746896  0.37600157  0.84708338  1
  H+  H127  1  0.38251512  0.01860916  0.98876593  1
  H+  H128  1  0.90675016  0.86411043  0.18021495  1
  H+  H129  1  0.11520291  0.99719341  -0.00455093  1
  H+  H130  1  0.75300462  0.91300722  0.64773228  1
  H+  H131  1  0.22267570  0.36368118  0.83309150  1
  H+  H132  1  0.60407365  0.84788445  0.17133997  1
  H+  H133  1  0.76833914  0.88728432  0.01965791  1
  H+  H134  1  0.36031103  0.47215695  0.32864553  1
  H+  H135  1  0.87821544  0.73518571  0.52467922  1
  H+  H136  1  0.89486553  0.34771452  0.32739110  1
  H+  H137  1  0.62972282  0.77023283  0.98737934  1
  H+  H138  1  0.37542529  0.81211652  0.91980805  1
  H+  H139  1  0.98684276  0.36906966  0.51496884  1
  H+  H140  1  0.25804068  0.38195502  0.15901979  1
  H+  H141  1  0.52806925  0.62776252  0.32185270  1
  H+  H142  1  0.89885586  0.79727184  0.85063691  1
  H+  H143  1  0.40528073  0.95264092  0.29940964  1
  H+  H144  1  0.57052674  0.63959061  0.03346740  1
  H+  H145  1  0.12674542  0.65216388  0.14389728  1
  H+  H146  1  0.63171407  0.76168605  0.48856171  1
  H+  H147  1  0.93497253  0.87894240  0.93891053  1
  H+  H148  1  0.88726326  0.88900640  0.67965100  1
  H+  H149  1  0.30706213  0.11625042  0.17966669  1
  H+  H150  1  0.35228298  0.38087454  0.82369609  1
  H+  H151  1  0.39906964  0.84276488  0.32429369  1
  H+  H152  1  0.26172240  0.89130578  0.67650241  1
  H+  H153  1  0.22574358  0.11369924  0.83912754  1
  H+  H154  1  0.74055123  0.64746658  0.51146167  1
  H+  H155  1  0.34530360  0.19819300  0.65935349  1
  H+  H156  1  0.21341523  0.09508901  0.65843524  1
  H+  H157  1  0.17533997  0.58583239  0.66808853  1
  H+  H158  1  -0.02975654  0.62220978  0.83452476  1
  H+  H159  1  0.13453672  0.12096910  0.32155304  1
  H+  H160  1  0.13278877  0.27241949  0.50296725  1
  H+  H161  1  0.63937602  0.77021532  0.32226982  1
  H+  H162  1  0.34373667  0.96497614  0.36835878  1
  H+  H163  1  0.33875396  0.88197621  0.83337179  1
  H+  H164  1  0.63169307  0.52362418  0.00706586  1
  H+  H165  1  0.79996134  0.40651072  0.48182023  1
  H+  H166  1  0.03799633  0.89067153  0.15703734  1
  H+  H167  1  0.51899305  0.63816686  0.66773678  1
  H+  H168  1  0.86696355  0.72785516  0.15443810  1
  H+  H169  1  0.46655088  0.09863426  0.66366712  1
  H+  H170  1  0.60832978  -0.02089448  0.15744963  1
  H+  H171  1  1.03972837  0.12941089  0.16512417  1
  H+  H172  1  0.37397961  0.02731724  0.83717526  1
  H+  H173  1  0.11756846  0.47534343  0.33919673  1
  H+  H174  1  0.62932879  0.23262737  0.65229212  1
  H+  H175  1  0.35236005  0.26247367  0.15963698  1
  H+  H176  1  0.69727761  0.69428796  0.54175004  1
  H+  H177  1  0.84742038  0.91096476  0.24991209  1
  H+  H178  1  0.40124764  0.04615753  0.28192846  1
  H+  H179  1  0.61827653  0.88125346  0.33723549  1
  H+  H180  1  0.59154833  0.13866689  0.16887499  1
  H+  H181  1  0.62086753  0.89331233  0.81982583  1
  H+  H182  1  0.33413397  0.91416405  0.07155400  1
  H+  H183  1  0.37941635  0.60869763  0.84137056  1
  H+  H184  1  0.88523938  0.47028147  0.32963955  1
  H+  H185  1  0.52069897  0.15958717  0.31702915  1
  H+  H186  1  0.22633952  0.11280140  0.32092193  1
  H+  H187  1  0.12343505  0.73872470  0.15634793  1
  H+  H188  1  0.76977886  0.62937221  0.00652591  1
  H+  H189  1  0.90130660  0.60276087  0.31354511  1
  H+  H190  1  0.84263049  0.10139329  0.49249206  1
  H+  H191  1  0.60906564  0.61530994  0.15790580  1
  H+  H192  1  0.62341511  0.59735524  0.84863573  1
  H+  H193  1  0.13432018  0.27024419  0.32515390  1
  H+  H194  1  0.12988783  0.67543291  0.67169744  1
  H+  H195  1  0.12224693  0.39711530  0.49794383  1
  H+  H196  1  0.12905223  0.35663651  0.83526467  1
  H+  H197  1  0.60410419  0.37582415  0.16591266  1
  H+  H198  1  0.10989531  0.38490202  0.15461139  1
  H+  H199  1  0.90517353  0.23669272  0.34776543  1
  H+  H200  1  0.58717544  0.36831301  0.50410591  1
  H+  H201  1  0.98779210  0.35801546  0.32691133  1
  H+  H202  1  0.52429887  0.31423088  0.27335333  1
  H+  H203  1  0.23624103  0.36325577  0.65539912  1
  H+  H204  1  0.87202564  0.71778229  0.32971720  1
  H+  H205  1  0.12184998  0.22373093  0.67380648  1
  H+  H206  1  0.27677233  0.89588702  0.16958078  1
  H+  H207  1  0.86692803  0.48246649  0.15626527  1
  H+  H208  1  0.10045162  0.95326212  0.38880537  1
  H+  H209  1  0.81455219  0.10673004  0.13856509  1
  H+  H210  1  0.34558464  0.75999674  0.85782780  1
  H+  H211  1  0.90234532  0.38046878  -0.01278069  1
  H+  H212  1  0.42204353  0.56590855  0.24757344  1
  H+  H213  1  0.00611616  0.89279249  0.68741057  1
  H+  H214  1  0.97908863  0.12773417  0.66656415  1
  H+  H215  1  0.85671147  0.38699000  0.82767288  1
  H+  H216  1  0.71579000  0.10548691  0.67122685  1
  H+  H217  1  0.22405108  0.35946445  0.50210211  1
  H+  H218  1  -0.00889775  0.12595201  0.84453584  1
  H+  H219  1  0.74614429  0.65050978  0.68723869  1
  H+  H220  1  0.37430529  0.75076123  1.00694897  1
  H+  H221  1  0.70463407  0.84158544  0.52905497  1
  H+  H222  1  0.50357725  0.62447308  0.48280589  1
  H+  H223  1  0.38361512  0.84526728  1.01213105  1
  H+  H224  1  0.50749544  0.60756753  0.82549923  1
  H+  H225  1  0.17366528  0.32974822  0.59748298  1
  H+  H226  1  0.34868819  0.37600483  0.15154040  1
  H+  H227  1  0.60303918  0.12214853  1.00725428  1
  H+  H228  1  0.64537683  0.14113003  0.50922105  1
  H+  H229  1  0.64153946  0.61208624  0.32699601  1
  H+  H230  1  0.16654826  0.58602681  0.90685619  1
  H+  H231  1  0.10370520  0.98672260  0.67463055  1
  H+  H232  1  0.36483115  0.98582502  0.17092262  1
  H+  H233  1  0.37951989  0.31327714  0.89320883  1
  H+  H234  1  0.40473897  0.76132756  0.68443409  1
  H+  H235  1  0.23768394  0.60829372  0.32170154  1
  H+  H236  1  0.08596753  0.77442305  0.49342927  1
  H+  H237  1  0.16621303  0.83319658  0.89020359  1
  H+  H238  1  0.84595854  0.21226310  0.68230851  1
  H+  H239  1  0.51261817  0.37286840  0.16031763  1
  H+  H240  1  0.87760448  0.90876075  0.83197216  1
  H+  H241  1  0.75006894  0.36402813  0.32800357  1
  H+  H242  1  0.27524986  0.63252710  0.82435678  1
  H+  H243  1  0.21336251  0.53512281  0.89856626  1
  H+  H244  1  0.88722610  0.88635782  0.52130629  1
  H+  H245  1  0.96139249  0.33704823  0.66483845  1
  H+  H246  1  0.34359696  0.37677397  0.33381032  1
  H+  H247  1  0.94952857  0.11244625  0.90892390  1
  H+  H248  1  0.77440556  0.64321597  0.15541857  1
  H+  H249  1  0.73339699  0.88154144  0.84154224  1
  H+  H250  1  0.93828036  0.57421534  0.22617413  1
  H+  H251  1  0.63165258  0.50949806  0.64472065  1
  H+  H252  1  0.80077080  0.89454380  0.16659592  1
  H+  H253  1  0.62812258  0.88841050  0.48542561  1
  H+  H254  1  0.89018513  0.85054786  0.31394005  1
  H+  H255  1  0.51788647  0.89148145  0.15656442  1
  H+  H256  1  0.70851799  0.11159935  0.18891803  1
  H+  H257  1  0.60198798  0.23190866  0.16857460  1
  H+  H258  1  0.14205751  0.37882679  0.98492394  1
  H+  H259  1  0.11573929  0.84828135  0.33171933  1
  H+  H260  1  0.40325884  0.08399241  0.89726653  1
  H+  H261  1  0.42649393  0.86575239  0.46198839  1
  H+  H262  1  0.11573769  0.78419587  0.66451984  1
  H+  H263  1  0.88859071  0.61408785  0.66212917  1
  H+  H264  1  0.60379309  0.12048458  0.67659565  1
  H+  H265  1  0.12473771  0.87841002  0.84193891  1
  H+  H266  1  1.00193914  0.59310428  0.64407625  1
  H+  H267  1  0.20229356  0.88860525  0.52033301  1
  H+  H268  1  0.89410279  0.01731814  0.31085079  1
  H+  H269  1  0.11159342  0.36385685  0.67332298  1
  H+  H270  1  0.90324506  1.00368041  0.18313827  1
  H+  H271  1  0.13398565  0.53343779  0.51218327  1
  H+  H272  1  0.37108484  0.53782899  0.65709865  1
  H+  H273  1  0.66705753  0.31437670  0.49579305  1
  H+  H274  1  0.59768269  0.62214122  0.66944032  1
  H+  H275  1  0.56624150  0.19634590  0.48293579  1
  H+  H276  1  0.85926505  0.15448381  0.83199842  1
  H+  H277  1  0.34896930  0.11193495  0.66739099  1
  H+  H278  1  0.10472911  0.46376185  0.82945753  1
  H+  H279  1  0.90564837  0.13905112  0.34144059  1
  H+  H280  1  0.97302260  0.36387721  0.16729745  1
  H+  H281  1  0.10762767  0.75084364  0.82284624  1
  H+  H282  1  1.01886516  0.13864630  0.49132951  1
  H+  H283  1  0.63719255  0.49381383  0.35441190  1
  H+  H284  1  0.88777575  0.59721673  0.69390136  1
  H+  H285  1  0.63261315  0.36524020  0.86372335  1
  H+  H286  1  0.85691796  0.64649044  0.83921265  1
  H+  H287  1  0.37955515  0.36502342  0.49172012  1
  H+  H288  1  0.34254317  0.68053810  0.76986901  1
  H+  H289  1  0.57059154  0.46288780  0.76339010  1
  H+  H290  1  0.30685781  0.68355150  0.44121866  1
  H+  H291  1  0.62364929  0.06431023  0.23123006  1
  H+  H292  1  0.57336655  0.65571854  0.38678861  1
  H+  H293  1  0.58069872  0.90931692  0.06498904  1
  H+  H294  1  0.67205279  0.84735529  0.89828859  1
  H+  H295  1  0.85807694  0.15544560  0.40511898  1
  H+  H296  1  0.63199485  0.51111038  0.17438568  1
  H+  H297  1  0.43397700  0.33557739  0.30416056  1
  H+  H298  1  0.86797802  0.49137332  1.00335591  1
  H+  H299  1  0.46842569  0.10623696  0.98758156  1
  H+  H300  1  0.82869902  0.41807849  0.76808878  1
  H+  H301  1  0.48604145  0.89660367  0.63985956  1
  H+  H302  1  0.38871312  0.63404705  0.65696846  1
  H+  H303  1  0.59409793  0.62636010  0.48289930  1
  H+  H304  1  0.92260765  0.25973375  -0.00582713  1
  H+  H305  1  0.58558568  0.42411347  0.44492874  1
  H+  H306  1  0.90096490  0.90674924  -0.00547331  1
  H+  H307  1  0.32428632  0.91265592  0.73229382  1
  H+  H308  1  0.10661828  0.13638764  0.49056456  1
  H+  H309  1  0.86376341  0.20332566  0.04589133  1
  H+  H310  1  0.12687693  0.98038610  0.15119946  1
  H+  H311  1  0.08652589  0.41741877  0.05824689  1
  H+  H312  1  0.32280441  0.14766236  0.38891410  1
  H+  H313  1  0.73378728  0.11623771  0.84302543  1
  H+  H314  1  0.56629174  0.15134256  0.06265574  1
  H+  H315  1  0.16324898  0.33008583  0.22959344  1
  H+  H316  1  0.25941143  0.64336368  0.50225961  1
  H+  H317  1  0.32736174  0.15932898  0.76327664  1
  H+  H318  1  0.18267413  0.61864244  0.60042368  1
  H+  H319  1  0.08392344  0.15986070  0.39688260  1
  H+  H320  1  0.64894659  0.82241599  0.26244424  1
  H+  H321  1  0.07994887  0.16914372  0.10251309  1
  H+  H322  1  0.17427117  0.58257682  0.26578337  1
  H+  H323  1  0.19203742  0.53927292  1.01483047  1
  H+  H324  1  0.40598480  0.07764976  0.57047824  1
  H+  H325  1  0.52006646  0.37500798  0.01208032  1
  H+  H326  1  0.37991674  0.31723078  0.21894288  1
  H+  H327  1  0.16725368  0.84032735  0.23209769  1
  H+  H328  1  0.66209344  0.89749897  0.63275051  1
  H+  H329  1  0.09210703  0.42651039  0.43914758  1
  H+  H330  1  0.91347062  0.58527560  0.93370083  1
  H+  H331  1  0.61415342  0.46618869  0.76468714  1
  H+  H332  1  0.86185142  0.70785232  0.45733937  1
  H+  H333  1  0.94186655  0.82516743  0.22923680  1
  H+  H334  1  0.07925052  0.68396586  0.72930867  1
  H+  H335  1  0.91703976  0.50064301  0.64172251  1
  H+  H336  1  0.17077810  0.34589026  0.92483413  1
  H+  H337  1  0.10377258  0.24455925  -0.01727729  1
  H+  H338  1  0.33821125  0.97436892  0.51265298  1
  H+  H339  1  0.41897246  0.82660694  0.22759195  1
  H+  H340  1  0.36019110  0.13655199  0.82559532  1
  H+  H341  1  0.94014194  0.57251966  0.55783253  1
  H+  H342  1  0.85789455  0.41779814  0.39171577  1
  H+  H343  1  0.55341593  0.14611711  0.42153568  1
  H+  H344  1  0.70354040  0.25706523  0.60442207  1
  H+  H345  1  0.66276323  0.57095161  0.23332903  1
  H+  H346  1  0.09408720  0.67913060  0.43113560  1
  H+  H347  1  0.07606620  0.40691207  0.76802177  1
  H+  H348  1  0.91145809  0.09780333  0.16534200  1
  H+  H349  1  0.39932325  0.32212272  0.55030188  1
  H+  H350  1  0.91125905  0.32331256  0.60239190  1
  H+  H351  1  0.75218286  0.05454688  0.45860590  1
  H+  H352  1  0.62991357  1.01424321  -0.00376574  1
  H+  H353  1  0.91592739  0.09374171  0.57295846  1
  H+  H354  1  0.15475391  0.07805532  0.55940241  1
  H+  H355  1  0.39052780  0.56105920  0.90000667  1
  H+  H356  1  0.93413971  0.08700997  0.25901164  1
  H+  H357  1  0.91595755  0.32629153  0.22703042  1
  H+  H358  1  0.83543827  0.66368270  0.06102488  1
  H+  H359  1  0.57750743  0.40219561  0.07118696  1
  H+  H360  1  0.08697820  0.92404981  0.04073298  1
  H+  H361  1  0.83656903  0.42757449  0.06338083  1
  H+  H362  1  0.81495024  0.68045154  0.79062935  1
  H+  H363  1  0.36282792  0.64305791  0.38472279  1
  H+  H364  1  0.66639045  0.58757926  0.59734510  1
  H+  H365  1  0.67262891  0.10397242  0.60796105  1
  H+  H366  1  0.84264704  0.64120714  0.37878900  1
  H+  H367  1  0.63247598  0.29293782  0.56303495  1
  H+  H368  1  0.84585941  0.94119316  0.74509215  1
  H+  H369  1  0.09169979  0.93342585  0.78635808  1
  H+  H370  1  0.32888986  0.41999758  0.42753256  1
  H+  H371  1  0.78882023  0.96858512  0.40464200  1
  H+  H372  1  0.08715302  0.68086153  0.05584539  1
  H+  H373  1  0.82863801  0.96591370  0.39911110  1
  H+  H374  1  0.39343547  0.60403008  0.16039038  1
  H+  H375  1  0.54272230  0.75822621  0.19920453  1
  H+  H376  1  0.69986141  0.21863229  0.79307086  1
  H+  H377  1  0.07237932  0.87045883  0.42843178  1
  H+  H378  1  0.83417743  0.65637614  0.69687389  1
  H+  H379  1  0.33765360  0.41824084  0.73624772  1
  H+  H380  1  0.23604773  0.61330338  0.15045083  1
  H+  H381  1  0.56462049  0.39592246  0.35273760  1
  H+  H382  1  0.28800107  0.92863282  0.42680917  1
  H+  H383  1  0.29212407  0.22989753  -0.02052736  1
  O2-  O384  1  0.09790744  0.16766745  0.14543196  1
  O2-  O385  1  0.07768502  0.16779845  0.47311776  1
  O2-  O386  1  0.09009247  0.16553175  0.80886155  1
  O2-  O387  1  0.07783670  0.41192089  0.13796030  1
  O2-  O388  1  0.09520981  0.43113801  0.48428315  1
  O2-  O389  1  0.07208432  0.40489441  0.81306096  1
  O2-  O390  1  0.09223144  0.68054886  0.13753823  1
  O2-  O391  1  0.08993323  0.68332632  0.47640814  1
  O2-  O392  1  0.07643903  0.68662437  0.80494974  1
  O2-  O393  1  0.09867881  0.91903089  0.14172184  1
  O2-  O394  1  0.07748609  0.82599018  0.49846652  1
  O2-  O395  1  0.09017507  0.92880130  0.83052051  1
  O2-  O396  1  0.27897340  0.14755823  0.16319015  1
  O2-  O397  1  0.32410236  0.15481594  0.46424243  1
  O2-  O398  1  0.33063566  0.16856248  0.80761437  1
  O2-  O399  1  0.31932548  0.41100311  0.14063562  1
  O2-  O400  1  0.33034576  0.41669830  0.47300618  1
  O2-  O401  1  0.32398117  0.41279041  0.80570614  1
  O2-  O402  1  0.34715869  0.66197983  0.14355006  1
  O2-  O403  1  0.31897758  0.67431262  0.48290757  1
  O2-  O404  1  0.33642699  0.67008346  0.81464611  1
  O2-  O405  1  0.33951495  0.92594479  0.15711844  1
  O2-  O406  1  0.29879564  0.91202260  0.50071752  1
  O2-  O407  1  0.31912209  0.91535277  0.80884911  1
  O2-  O408  1  0.56086857  0.17026550  0.15921640  1
  O2-  O409  1  0.54997867  0.13899072  0.46666875  1
  O2-  O410  1  0.63966536  0.20027148  0.80087331  1
  O2-  O411  1  0.57367396  0.40498002  0.14847894  1
  O2-  O412  1  0.56634278  0.40873189  0.48934857  1
  O2-  O413  1  0.57564512  0.40506440  0.87573630  1
  O2-  O414  1  0.57326789  0.63724923  0.13821805  1
  O2-  O415  1  0.56067496  0.64895264  0.46234517  1
  O2-  O416  1  0.56352575  0.62057927  0.80896074  1
  O2-  O417  1  0.57946209  0.91798738  0.14405599  1
  O2-  O418  1  0.61159421  0.93195832  0.47066902  1
  O2-  O419  1  0.59132894  0.92111465  0.79806188  1
  O2-  O420  1  0.80672098  0.23673148  0.09030121  1
  O2-  O421  1  0.80261600  0.11147557  0.46522375  1
  O2-  O422  1  0.82559085  0.17890174  0.81513211  1
  O2-  O423  1  0.82756779  0.42061277  0.14116403  1
  O2-  O424  1  0.85912330  0.43085266  0.46853949  1
  O2-  O425  1  0.82894135  0.42131435  0.81310562  1
  O2-  O426  1  0.83147822  0.67012712  0.13658214  1
  O2-  O427  1  0.84675607  0.68180919  0.49766164  1
  O2-  O428  1  0.82544234  0.67872970  0.83441091  1
  O2-  O429  1  0.85762799  0.91792516  0.18432053  1
  O2-  O430  1  0.85394419  0.91335760  0.50713756  1
  O2-  O431  1  0.84634304  0.93911006  0.81745033  1
  O2-  O432  1  0.18855064  0.09711203  0.18383009  1
  O2-  O433  1  0.15316728  0.08332401  0.51477571  1
  O2-  O434  1  0.16754845  0.08847262  0.85760776  1
  O2-  O435  1  0.16638039  0.33165136  0.18414704  1
  O2-  O436  1  0.16548387  0.33195801  0.52031906  1
  O2-  O437  1  0.16358595  0.33120538  0.85105500  1
  O2-  O438  1  0.17477004  0.58656127  0.13732386  1
  O2-  O439  1  0.16264577  0.59466589  0.52665761  1
  O2-  O440  1  0.18262816  0.55796610  0.87566158  1
  O2-  O441  1  0.17548723  0.84249796  0.18750711  1
  O2-  O442  1  0.14872922  0.88638554  0.53722560  1
  O2-  O443  1  0.15413437  0.83716616  0.84655390  1
  O2-  O444  1  0.40485103  0.10161161  0.20605174  1
  O2-  O445  1  0.39692029  0.07510018  0.52483025  1
  O2-  O446  1  0.40239625  0.08747357  0.85153026  1
  O2-  O447  1  0.38855187  0.32243824  0.17408705  1
  O2-  O448  1  0.40891987  0.33167140  0.50510337  1
  O2-  O449  1  0.39622038  0.32733912  0.84967559  1
  O2-  O450  1  0.41661799  0.56550366  0.17274782  1
  O2-  O451  1  0.40171792  0.58161684  0.51502805  1
  O2-  O452  1  0.39833349  0.56788470  0.85507634  1
  O2-  O453  1  0.41519097  0.83102948  0.18305926  1
  O2-  O454  1  0.41476159  0.85103327  0.50490709  1
  O2-  O455  1  0.34044259  0.80327115  0.88241531  1
  O2-  O456  1  0.64596340  0.08121128  0.18743160  1
  O2-  O457  1  0.69625853  0.16211147  0.53569797  1
  O2-  O458  1  0.67211426  0.07725047  0.85885333  1
  O2-  O459  1  0.66914755  0.33850718  0.19011602  1
  O2-  O460  1  0.61579537  0.30032041  0.51951163  1
  O2-  O461  1  0.67088751  0.33802569  0.86706453  1
  O2-  O462  1  0.66182507  0.57192643  0.18839614  1
  O2-  O463  1  0.68411534  0.63743788  0.52756369  1
  O2-  O464  1  0.65739742  0.57781359  0.87407614  1
  O2-  O465  1  0.60356888  0.79695000  0.19135831  1
  O2-  O466  1  0.65345927  0.82043214  0.50335809  1
  O2-  O467  1  0.67213956  0.85158962  0.85329662  1
  O2-  O468  1  0.94186483  0.07529835  0.18896938  1
  O2-  O469  1  0.91366677  0.08417023  0.52775714  1
  O2-  O470  1  0.93467993  0.10275700  0.86577861  1
  O2-  O471  1  0.91304476  0.33620339  0.18323599  1
  O2-  O472  1  0.92631124  0.33785246  0.52878884  1
  O2-  O473  1  0.89870161  0.33069917  0.85108514  1
  O2-  O474  1  0.93154040  0.57162949  0.18167028  1
  O2-  O475  1  0.92988215  0.58507043  0.51384185  1
  O2-  O476  1  0.91121937  0.58959504  0.85154768  1
  O2-  O477  1  0.93969430  0.83226749  0.18502036  1
  O2-  O478  1  0.93317962  0.82757459  0.55199997  1
  O2-  O479  1  0.92885373  0.86010978  0.85593490  1
  O2-  O480  1  0.16608016  0.09109947  0.30164516  1
  O2-  O481  1  0.15127924  0.06851643  0.64544204  1
  O2-  O482  1  0.19573424  0.14302206  0.97494534  1
  O2-  O483  1  0.16016464  0.32975047  0.30895515  1
  O2-  O484  1  0.17560547  0.32975828  0.64324615  1
  O2-  O485  1  0.17410022  0.34940473  0.97059902  1
  O2-  O486  1  0.17613811  0.58296530  0.31015784  1
  O2-  O487  1  0.19727341  0.63804126  0.64398156  1
  O2-  O488  1  0.22221963  0.60325482  1.01816485  1
  O2-  O489  1  0.15651901  0.83199132  0.31476674  1
  O2-  O490  1  0.14304726  0.84758568  0.65460105  1
  O2-  O491  1  0.20938542  0.80772035  0.95533190  1
  O2-  O492  1  0.41612707  0.10620077  0.27365357  1
  O2-  O493  1  0.40801775  0.06977876  0.64511037  1
  O2-  O494  1  0.40777765  0.07746085  0.97287174  1
  O2-  O495  1  0.37223486  0.30958047  0.29794203  1
  O2-  O496  1  0.39622924  0.30844943  0.62589418  1
  O2-  O497  1  0.39108072  0.33749727  1.01728546  1
  O2-  O498  1  0.42351998  0.56815205  0.29355335  1
  O2-  O499  1  0.40541637  0.59383734  0.63725960  1
  O2-  O500  1  0.37011857  0.54612147  0.97729965  1
  O2-  O501  1  0.42918135  0.81312717  0.31098193  1
  O2-  O502  1  0.47867135  0.86513752  0.67768776  1
  O2-  O503  1  0.40906571  0.81148147  0.99386644  1
  O2-  O504  1  0.57529643  0.03357681  0.29208727  1
  O2-  O505  1  0.65912075  0.08476553  0.65066803  1
  O2-  O506  1  0.65989839  0.07608243  0.98554434  1
  O2-  O507  1  0.68755500  0.34016727  0.31764469  1
  O2-  O508  1  0.67214212  0.28273787  0.62359928  1
  O2-  O509  1  0.68420625  0.35282337  0.98374154  1
  O2-  O510  1  0.66892477  0.57674367  0.31587570  1
  O2-  O511  1  0.65936856  0.57229479  0.64127819  1
  O2-  O512  1  0.65753785  0.58487309  0.99687198  1
  O2-  O513  1  0.66606330  0.83010616  0.30632706  1
  O2-  O514  1  0.71578647  0.90848354  0.61351106  1
  O2-  O515  1  0.67053441  0.83194246  0.97970292  1
  O2-  O516  1  0.92866262  0.08194232  0.30560183  1
  O2-  O517  1  0.91920657  0.09763956  0.65090396  1
  O2-  O518  1  1.01927028  0.16757589  1.04191574  1
  O2-  O519  1  0.92657729  0.31729922  0.31455270  1
  O2-  O520  1  0.90360137  0.31748823  0.64817819  1
  O2-  O521  1  0.94005529  0.36161370  0.96824672  1
  O2-  O522  1  0.93426792  0.57274010  0.30731198  1
  O2-  O523  1  0.96590520  0.54375691  0.61701615  1
  O2-  O524  1  0.91448459  0.58406556  0.97874490  1
  O2-  O525  1  0.92144396  0.81691096  0.31572027  1
  O2-  O526  1  0.91422009  0.85017393  0.66790149  1
  O2-  O527  1  0.94210212  0.88812975  0.98327599  1
  O2-  O528  1  0.06154170  0.18074717  -0.01732597  1
  O2-  O529  1  0.08799786  0.16054588  0.35083943  1
  O2-  O530  1  0.08754095  0.16364260  0.68841690  1
  O2-  O531  1  0.09932423  0.43259530  0.01431537  1
  O2-  O532  1  0.08666966  0.41671569  0.35690553  1
  O2-  O533  1  0.07509871  0.38789905  0.68874530  1
  O2-  O534  1  0.08648544  0.67266970  0.01126574  1
  O2-  O535  1  0.09539562  0.67068849  0.35403478  1
  O2-  O536  1  0.08227335  0.68554283  0.68337769  1
  O2-  O537  1  0.13125736  0.95608741  0.01040827  1
  O2-  O538  1  0.06767319  0.89081935  0.38706903  1
  O2-  O539  1  0.07199327  0.92487198  0.69576224  1
  O2-  O540  1  0.35252863  0.27667906  -0.03304614  1
  O2-  O541  1  0.31633201  0.15085614  0.34330217  1
  O2-  O542  1  0.31547498  0.14123809  0.67895902  1
  O2-  O543  1  0.33697326  0.46059710  0.00473937  1
  O2-  O544  1  0.32384941  0.41579577  0.34987082  1
  O2-  O545  1  0.34912065  0.42237732  0.68974142  1
  O2-  O546  1  0.31499342  0.63251136  0.02684234  1
  O2-  O547  1  0.34517530  0.65134779  0.34451935  1
  O2-  O548  1  0.36008284  0.69923614  0.69101590  1
  O2-  O549  1  0.34272289  0.90812573  0.02795264  1
  O2-  O550  1  0.28669879  0.94724156  0.38404197  1
  O2-  O551  1  0.32244889  0.91345089  0.68658847  1
  O2-  O552  1  0.57114328  0.15294863  0.01841434  1
  O2-  O553  1  0.57029168  0.17191556  0.34312141  1
  O2-  O554  1  0.57266477  0.15367775  0.68858078  1
  O2-  O555  1  0.58021542  0.40316217  0.02573955  1
  O2-  O556  1  0.61550216  0.43545399  0.37598010  1
  O2-  O557  1  0.56870696  0.38640707  0.65675527  1
  O2-  O558  1  0.54409126  0.66864072  0.01270582  1
  O2-  O559  1  0.58535457  0.66083869  0.34197916  1
  O2-  O560  1  0.57470295  0.65661867  0.68735533  1
  O2-  O561  1  0.57948047  0.90487177  0.02002258  1
  O2-  O562  1  0.58172050  0.90489031  0.35304331  1
  O2-  O563  1  0.56483308  0.87811463  0.68804303  1
  O2-  O564  1  0.90491780  0.20442028  0.01517785  1
  O2-  O565  1  0.90120303  0.18291241  0.36996071  1
  O2-  O566  1  0.82042121  0.15438317  0.70068764  1
  O2-  O567  1  0.83586224  0.42799554  0.01769188  1
  O2-  O568  1  0.85378012  0.41009084  0.34661969  1
  O2-  O569  1  0.83491448  0.41103333  0.68452590  1
  O2-  O570  1  0.83193912  0.65477408  0.01590905  1
  O2-  O571  1  0.83974555  0.65238557  0.33583136  1
  O2-  O572  1  0.80317451  0.68679829  0.70669296  1
  O2-  O573  1  0.82403041  0.92931908  0.03882115  1
  O2-  O574  1  0.84458095  0.90970446  0.29825644  1
  O2-  O575  1  0.84792247  0.93855934  0.69877670  1
