# generated using pymatgen
data_H2O
_symmetry_space_group_name_H-M   'P 1'
_cell_length_a   17.98137134
_cell_length_b   17.98207143
_cell_length_c   21.99508559
_cell_angle_alpha   90.03197989
_cell_angle_beta   89.99568582
_cell_angle_gamma   120.00295409
_symmetry_Int_Tables_number   1
_chemical_formula_structural   H2O
_chemical_formula_sum   'H384 O192'
_cell_volume   6158.93765943
_cell_formula_units_Z   192
loop_
 _symmetry_equiv_pos_site_id
 _symmetry_equiv_pos_as_xyz
  1  'x, y, z'
loop_
 _atom_type_symbol
 _atom_type_oxidation_number
  H+  1.0
  O2-  -2.0
loop_
 _atom_site_type_symbol
 _atom_site_label
 _atom_site_symmetry_multiplicity
 _atom_site_fract_x
 _atom_site_fract_y
 _atom_site_fract_z
 _atom_site_occupancy
  H+  H0  1  0.98327298  0.61833156  0.49895878  1
  H+  H1  1  0.89222214  0.78128463  0.83970604  1
  H+  H2  1  0.84744677  0.93130714  0.05103772  1
  H+  H3  1  1.03143679  0.65371255  0.67994442  1
  H+  H4  1  0.63514571  0.89340291  0.65634380  1
  H+  H5  1  0.87056053  0.73301389  0.01270790  1
  H+  H6  1  0.38492044  0.76967420  0.01189064  1
  H+  H7  1  0.74275384  0.86771033  0.84005404  1
  H+  H8  1  0.80691430  0.07672767  0.16446337  1
  H+  H9  1  0.51423130  0.12815243  0.82437088  1
  H+  H10  1  0.75123932  0.12365038  0.82544642  1
  H+  H11  1  0.12323346  0.88478841  0.33675672  1
  H+  H12  1  0.06612509  0.30962059  0.77531436  1
  H+  H13  1  0.86123061  0.62803016  0.17225206  1
  H+  H14  1  0.13139599  0.11292269  0.49987060  1
  H+  H15  1  0.36050078  0.76766860  0.33688358  1
  H+  H16  1  0.41661986  0.80380657  0.84861698  1
  H+  H17  1  0.87467457  0.60757583  1.02047020  1
  H+  H18  1  0.00219892  0.12671627  -0.01436756  1
  H+  H19  1  0.62984901  1.01668540  -0.01139514  1
  H+  H20  1  0.26767332  0.87883245  1.01055934  1
  H+  H21  1  0.37610532  0.08643532  0.49703644  1
  H+  H22  1  0.22890465  0.12715149  0.16850262  1
  H+  H23  1  0.78161456  0.63942154  0.33094655  1
  H+  H24  1  0.12639267  0.22685733  0.99721386  1
  H+  H25  1  0.85480484  0.21762341  0.16638532  1
  H+  H26  1  0.62061847  0.47691890  0.33419642  1
  H+  H27  1  0.50457860  0.60350732  0.64769246  1
  H+  H28  1  0.60077926  0.59611724  0.17314316  1
  H+  H29  1  0.34860016  0.34578880  0.50726614  1
  H+  H30  1  0.64367061  0.27178670  0.32241599  1
  H+  H31  1  0.90954814  0.28209933  0.65304138  1
  H+  H32  1  0.39147352  0.61601535  0.49955957  1
  H+  H33  1  0.87600839  0.98923921  0.67576290  1
  H+  H34  1  0.89529616  0.12298856  0.66450990  1
  H+  H35  1  0.40842371  0.54388651  0.83787899  1
  H+  H36  1  0.53598071  0.85207213  0.79913236  1
  H+  H37  1  0.76536295  0.85634717  0.11862682  1
  H+  H38  1  0.78665501  0.90630444  -0.00668170  1
  H+  H39  1  0.48169710  0.36700813  0.32353830  1
  H+  H40  1  0.37835380  0.39497689  0.15915892  1
  H+  H41  1  0.68143124  0.09617230  0.58368503  1
  H+  H42  1  0.89876303  0.85293405  0.15904088  1
  H+  H43  1  0.87229228  0.77042237  0.50114762  1
  H+  H44  1  0.07044312  0.66569826  0.77441104  1
  H+  H45  1  0.54799298  0.51168791  0.21004176  1
  H+  H46  1  0.64235030  0.61308256  0.84071859  1
  H+  H47  1  0.86439550  0.47079818  0.32629616  1
  H+  H48  1  0.96149512  0.52260074  0.66290760  1
  H+  H49  1  0.08444533  0.16886675  0.40672836  1
  H+  H50  1  0.83187950  0.17285592  0.72959332  1
  H+  H51  1  0.35138873  0.88482706  0.83708158  1
  H+  H52  1  0.47612499  0.34869951  0.85077281  1
  H+  H53  1  0.12139889  0.00093729  0.14240570  1
  H+  H54  1  0.53921205  0.39392759  0.49195871  1
  H+  H55  1  0.62342907  0.65736898  1.00926042  1
  H+  H56  1  0.64373238  0.61783681  0.49520402  1
  H+  H57  1  0.17682389  0.32569740  0.22250885  1
  H+  H58  1  0.58209915  0.21848010  0.66772652  1
  H+  H59  1  0.87023043  0.11074555  0.84545653  1
  H+  H60  1  0.81839174  0.85904017  0.50401938  1
  H+  H61  1  0.87555055  0.89768226  0.82884521  1
  H+  H62  1  0.88703148  0.52229836  0.86409572  1
  H+  H63  1  0.12531431  0.76841860  0.98517553  1
  H+  H64  1  0.90998073  0.28189595  0.33735175  1
  H+  H65  1  0.25356735  0.61103946  0.83304144  1
  H+  H66  1  0.37844240  0.48684647  1.00557714  1
  H+  H67  1  0.58464334  0.13014189  0.16265803  1
  H+  H68  1  0.85393591  0.37458407  0.00026554  1
  H+  H69  1  0.21354677  0.09979603  0.49329477  1
  H+  H70  1  0.73451247  0.87190534  0.35167817  1
  H+  H71  1  0.94970245  0.28137759  0.87032874  1
  H+  H72  1  0.02517876  0.13662731  0.34914802  1
  H+  H73  1  0.63831130  0.74496890  0.67102486  1
  H+  H74  1  0.64232070  0.07902514  0.46659990  1
  H+  H75  1  0.51297617  0.36729300  0.01138213  1
  H+  H76  1  0.52334116  0.21247858  0.45755724  1
  H+  H77  1  0.61882880  0.75383496  0.17843024  1
  H+  H78  1  0.38542315  0.36058176  -0.00526584  1
  H+  H79  1  0.14985704  0.12242550  0.83068797  1
  H+  H80  1  0.38403478  0.52803827  0.17196722  1
  H+  H81  1  0.13976466  0.36723626  0.50598358  1
  H+  H82  1  0.88808210  0.13042579  0.50783461  1
  H+  H83  1  0.27373291  0.63437333  0.33630275  1
  H+  H84  1  0.11736331  0.98774731  0.82686913  1
  H+  H85  1  0.08406598  0.63549632  -0.02389357  1
  H+  H86  1  0.40345492  0.32050250  0.59999255  1
  H+  H87  1  0.39122346  0.27605154  0.17066157  1
  H+  H88  1  0.16426389  0.57775196  0.95418365  1
  H+  H89  1  0.63499893  0.27070141  0.48854480  1
  H+  H90  1  0.84846801  0.41250560  0.80053360  1
  H+  H91  1  0.35036994  0.35805608  0.68328140  1
  H+  H92  1  -0.02147647  0.12344573  0.22207216  1
  H+  H93  1  0.85438603  0.14319070  0.34605198  1
  H+  H94  1  0.83847416  0.23112075  1.00948764  1
  H+  H95  1  0.04037480  0.37382809  0.16586127  1
  H+  H96  1  0.26063822  0.63775006  0.17002756  1
  H+  H97  1  0.93245877  0.34471765  0.92961903  1
  H+  H98  1  0.89747431  0.87225807  0.98929984  1
  H+  H99  1  0.63225122  0.73030309  0.82735679  1
  H+  H100  1  0.15921679  0.50676018  1.00027608  1
  H+  H101  1  0.23380463  0.63172191  0.81442142  1
  H+  H102  1  0.08193218  0.97573928  0.48172273  1
  H+  H103  1  0.14516021  0.61274930  0.33308538  1
  H+  H104  1  0.14478361  0.37295414  0.66334419  1
  H+  H105  1  0.14028100  0.36181325  0.32341553  1
  H+  H106  1  0.86370711  0.64235958  0.83311828  1
  H+  H107  1  0.77570754  0.64188036  0.83164908  1
  H+  H108  1  0.68803665  0.97153251  0.15084185  1
  H+  H109  1  0.15239941  0.35780782  0.99554473  1
  H+  H110  1  0.64548344  0.87677380  -0.00888571  1
  H+  H111  1  0.26999395  0.39361025  0.48917378  1
  H+  H112  1  0.34351799  0.20353010  0.48836452  1
  H+  H113  1  0.51038418  0.63848211  0.15553396  1
  H+  H114  1  0.37148381  0.01260846  0.99397898  1
  H+  H115  1  0.73170287  0.63561964  0.00312515  1
  H+  H116  1  1.03041111  0.14634502  0.67224092  1
  H+  H117  1  0.73782302  0.42222391  0.68982392  1
  H+  H118  1  0.35093418  0.97305441  0.82868837  1
  H+  H119  1  0.64275301  0.52413024  0.85073044  1
  H+  H120  1  0.89685704  0.36492301  0.32389835  1
  H+  H121  1  0.03109612  0.38746272  0.49274854  1
  H+  H122  1  0.13644780  0.51350765  0.17796902  1
  H+  H123  1  0.59535158  0.87909804  0.35392928  1
  H+  H124  1  0.63911216  0.54415486  0.64337548  1
  H+  H125  1  0.77986004  0.64821605  0.67191511  1
  H+  H126  1  0.39180683  0.52846588  0.49226535  1
  H+  H127  1  0.60732789  0.68201909  0.73036048  1
  H+  H128  1  0.89532646  0.53053121  0.50399363  1
  H+  H129  1  0.23315846  0.85504938  0.65809319  1
  H+  H130  1  0.12667205  0.47983988  0.34039541  1
  H+  H131  1  0.50522568  0.85658989  0.50969342  1
  H+  H132  1  0.61757284  0.09836361  -0.01420140  1
  H+  H133  1  0.62269756  0.02882878  0.18104159  1
  H+  H134  1  0.66226265  0.02871610  0.63787786  1
  H+  H135  1  0.00464777  0.39639049  0.84058493  1
  H+  H136  1  0.65286000  0.63758053  0.65230525  1
  H+  H137  1  0.24477343  0.36509757  0.99606288  1
  H+  H138  1  0.34642692  0.97575687  0.16824512  1
  H+  H139  1  0.14228402  0.84906564  0.65647262  1
  H+  H140  1  0.61143527  0.88396757  0.16452319  1
  H+  H141  1  0.42359757  0.33777567  0.26328156  1
  H+  H142  1  0.90216607  0.77543683  0.30769182  1
  H+  H143  1  0.61620554  0.37195315  0.84239337  1
  H+  H144  1  1.03257014  0.89098913  0.99743284  1
  H+  H145  1  0.94456093  0.33411793  0.58936871  1
  H+  H146  1  0.37338737  0.74224026  0.49120530  1
  H+  H147  1  0.22854977  0.86516233  0.84199241  1
  H+  H148  1  0.10596626  0.62893009  0.69106947  1
  H+  H149  1  0.36803649  0.21491516  0.67101936  1
  H+  H150  1  0.26573403  0.36591233  0.68347871  1
  H+  H151  1  0.27452697  0.13272608  0.82216027  1
  H+  H152  1  0.45511720  0.10332822  0.16760928  1
  H+  H153  1  0.37974256  1.00844231  0.65404207  1
  H+  H154  1  0.13334108  0.38455313  0.15969756  1
  H+  H155  1  0.12395292  -0.02586002  0.32784796  1
  H+  H156  1  0.13994720  0.11377767  -0.01256899  1
  H+  H157  1  0.89464230  0.55061976  1.06482176  1
  H+  H158  1  0.14336743  0.13414510  0.16048676  1
  H+  H159  1  0.89565188  0.06606003  0.28872727  1
  H+  H160  1  0.21072385  0.84556373  0.17833382  1
  H+  H161  1  0.63119964  0.25462127  0.83866249  1
  H+  H162  1  0.37807783  0.88563026  0.67323275  1
  H+  H163  1  0.64747352  0.36256228  0.32258784  1
  H+  H164  1  0.24250411  0.84471418  0.50707711  1
  H+  H165  1  0.35645784  0.77141017  0.19561555  1
  H+  H166  1  0.62377642  0.48609782  0.48922475  1
  H+  H167  1  0.62038129  0.74532017  1.00932697  1
  H+  H168  1  0.81688773  -0.04988386  0.14660510  1
  H+  H169  1  0.12476571  0.15657241  0.66496325  1
  H+  H170  1  0.70705358  0.33320164  0.99660859  1
  H+  H171  1  0.11442190  0.89741943  0.83007368  1
  H+  H172  1  0.83870063  0.21471254  0.83348174  1
  H+  H173  1  0.35066032  0.42897982  0.06631400  1
  H+  H174  1  0.60901007  0.45961223  0.15565390  1
  H+  H175  1  0.37918221  0.10647120  0.83567114  1
  H+  H176  1  0.79237825  0.91228905  0.41019276  1
  H+  H177  1  0.14205266  0.51926401  0.51602727  1
  H+  H178  1  0.62168353  0.14340482  0.49722245  1
  H+  H179  1  0.38957111  0.11923403  0.32061207  1
  H+  H180  1  0.88053174  0.61503902  0.30896792  1
  H+  H181  1  0.49912265  0.87460314  0.65389879  1
  H+  H182  1  0.38109689  0.51988015  0.32524558  1
  H+  H183  1  0.47189721  0.10505950  0.49628005  1
  H+  H184  1  0.65603769  0.36783241  0.49344055  1
  H+  H185  1  0.35242181  0.64352836  0.17245597  1
  H+  H186  1  0.14145710  0.02473027  0.98450678  1
  H+  H187  1  0.62408220  0.01882061  0.34140014  1
  H+  H188  1  0.47038133  0.90065057  0.87278507  1
  H+  H189  1  0.84733954  0.41782514  0.42936165  1
  H+  H190  1  0.43433853  0.69619432  0.82440388  1
  H+  H191  1  0.88768654  0.78414624  0.65865854  1
  H+  H192  1  0.28970549  0.26493405  0.54691755  1
  H+  H193  1  0.03672123  0.27881102  0.79892915  1
  H+  H194  1  0.14590991  0.23772322  0.82376054  1
  H+  H195  1  0.91928469  0.66545055  0.65202658  1
  H+  H196  1  0.37496639  0.10405708  0.99225654  1
  H+  H197  1  0.53800057  0.65109614  0.48866244  1
  H+  H198  1  0.35942838  0.12189344  0.66750212  1
  H+  H199  1  0.74953496  0.87714797  0.65839904  1
  H+  H200  1  0.97514441  0.08125300  0.21287057  1
  H+  H201  1  0.11315207  0.62841496  0.50124146  1
  H+  H202  1  0.87614096  0.89933693  0.67332994  1
  H+  H203  1  1.01428383  0.65557548  0.83502594  1
  H+  H204  1  0.22724654  0.61063661  0.51699240  1
  H+  H205  1  0.12997132  0.77482224  0.84067244  1
  H+  H206  1  0.99154780  0.86220902  0.30904415  1
  H+  H207  1  0.81960116  0.44472189  0.15672178  1
  H+  H208  1  0.10582647  0.43584697  0.83875374  1
  H+  H209  1  0.41941037  0.86566504  0.50216852  1
  H+  H210  1  0.47659023  0.35769753  0.65157547  1
  H+  H211  1  0.03822474  0.39760465  0.67184488  1
  H+  H212  1  0.97126008  0.25587969  0.21619740  1
  H+  H213  1  0.11756356  0.71384602  0.34324447  1
  H+  H214  1  0.37316093  0.83110953  0.27194154  1
  H+  H215  1  0.60285942  0.95410161  0.81524627  1
  H+  H216  1  0.70291999  0.12151051  0.18200064  1
  H+  H217  1  0.90235934  0.26987060  0.50066115  1
  H+  H218  1  0.90493711  0.03538358  0.98556778  1
  H+  H219  1  0.61460027  0.09069325  0.83097067  1
  H+  H220  1  0.07424079  0.52899277  0.87705985  1
  H+  H221  1  0.70729527  0.83401378  0.20190344  1
  H+  H222  1  0.78682126  0.38283709  0.48710041  1
  H+  H223  1  0.93784241  0.83532878  0.21947779  1
  H+  H224  1  0.27421598  0.14172640  0.32984510  1
  H+  H225  1  0.78002587  0.63613375  0.48047998  1
  H+  H226  1  0.15206744  0.53919156  0.67484587  1
  H+  H227  1  0.79783339  0.15836647  0.49150854  1
  H+  H228  1  0.97565864  0.43328386  0.97046201  1
  H+  H229  1  0.64207123  0.96406302  0.51730820  1
  H+  H230  1  0.35953228  0.22089907  0.00635338  1
  H+  H231  1  0.15132855  0.27150620  0.15675311  1
  H+  H232  1  0.12721263  0.75271440  0.18130676  1
  H+  H233  1  0.38445071  0.26498604  0.83857141  1
  H+  H234  1  0.64989668  0.87908900  0.50508689  1
  H+  H235  1  0.47834161  0.12019802  0.31685661  1
  H+  H236  1  0.28641935  0.38919868  0.15739040  1
  H+  H237  1  0.56245648  0.48216831  0.72105645  1
  H+  H238  1  0.23426448  0.12805323  0.65098457  1
  H+  H239  1  0.39699145  0.62082801  0.99838707  1
  H+  H240  1  0.81842181  -0.00720856  0.32633976  1
  H+  H241  1  0.13897262  0.11168971  0.32187579  1
  H+  H242  1  0.50514657  0.12543724  0.67337909  1
  H+  H243  1  0.92985788  0.43179007  0.63558696  1
  H+  H244  1  0.48619026  0.35789984  0.16964466  1
  H+  H245  1  0.92309399  0.83609531  0.93242063  1
  H+  H246  1  0.37905801  0.96083528  0.48254553  1
  H+  H247  1  0.25324918  0.37387728  0.84235070  1
  H+  H248  1  0.51734007  0.62116051  0.34031872  1
  H+  H249  1  0.54028890  0.64501699  0.82609792  1
  H+  H250  1  0.17906395  0.59760049  0.61684723  1
  H+  H251  1  0.52207133  0.88370240  0.01611840  1
  H+  H252  1  0.10902579  0.22950528  0.49728499  1
  H+  H253  1  0.78928062  0.14715165  0.66289129  1
  H+  H254  1  0.94905836  0.63177446  0.59597887  1
  H+  H255  1  0.90341282  0.36324460  0.50199141  1
  H+  H256  1  0.67231030  0.37736322  0.16899959  1
  H+  H257  1  0.03573648  0.39246754  0.34025813  1
  H+  H258  1  0.83569494  0.45156568  0.00801895  1
  H+  H259  1  0.36331640  0.23179198  0.33443358  1
  H+  H260  1  0.13719086  0.27138083  0.32591585  1
  H+  H261  1  0.27228977  0.38214649  0.33319457  1
  H+  H262  1  0.61219377  0.75262884  0.33545375  1
  H+  H263  1  0.63495132  0.73508878  0.48715516  1
  H+  H264  1  0.87140404  0.64088860  0.48313571  1
  H+  H265  1  0.98278110  0.87120677  0.83968797  1
  H+  H266  1  0.86778250  0.37429427  0.85712658  1
  H+  H267  1  0.12490121  0.72275364  0.49609309  1
  H+  H268  1  0.27081149  0.13236196  0.00465101  1
  H+  H269  1  0.35541619  0.86245321  0.19100808  1
  H+  H270  1  0.70907447  0.39571605  0.71572090  1
  H+  H271  1  0.22631071  0.83582989  0.32844332  1
  H+  H272  1  0.60888430  0.13635812  0.34028837  1
  H+  H273  1  0.75343676  0.14053308  1.00474147  1
  H+  H274  1  0.38043037  0.74635390  0.67771705  1
  H+  H275  1  0.03521477  0.37761125  0.01094352  1
  H+  H276  1  0.63942479  0.60864436  0.32759348  1
  H+  H277  1  -0.00382726  0.60185714  0.22494366  1
  H+  H278  1  0.38435001  0.40085456  0.83200420  1
  H+  H279  1  0.35744571  0.13623536  0.16180962  1
  H+  H280  1  0.32654371  0.15625807  0.42435484  1
  H+  H281  1  0.65192390  0.86188577  0.83310391  1
  H+  H282  1  0.50411006  0.11491547  0.00075070  1
  H+  H283  1  0.10861106  0.58402841  0.18927032  1
  H+  H284  1  0.72320070  0.34180640  0.85156704  1
  H+  H285  1  0.63166830  0.35741810  0.63485796  1
  H+  H286  1  0.69857683  0.84156829  0.59431160  1
  H+  H287  1  0.03034435  0.88119130  0.66914384  1
  H+  H288  1  0.41346656  0.58554096  0.23234027  1
  H+  H289  1  0.80745903  0.17326057  0.10249822  1
  H+  H290  1  0.43434886  0.60046252  0.89845202  1
  H+  H291  1  0.33468935  0.67079159  0.39524044  1
  H+  H292  1  0.08360434  0.90755992  0.72983958  1
  H+  H293  1  -0.02792107  0.55189027  0.16440215  1
  H+  H294  1  0.58280830  0.65646214  0.39813075  1
  H+  H295  1  0.85981486  0.42970969  0.09910148  1
  H+  H296  1  0.16439509  0.83298518  0.91365558  1
  H+  H297  1  0.40900305  0.83073459  0.95292999  1
  H+  H298  1  0.93883307  0.31397580  0.24668586  1
  H+  H299  1  0.64852999  0.30472443  0.93731844  1
  H+  H300  1  0.87900747  0.03377918  0.51424205  1
  H+  H301  1  0.40708512  0.32227391  0.93556855  1
  H+  H302  1  0.09397431  0.65635156  0.40313589  1
  H+  H303  1  0.94705008  0.86724593  0.49614733  1
  H+  H304  1  0.18061477  0.82122103  0.56498794  1
  H+  H305  1  0.67807559  0.59582727  0.55531771  1
  H+  H306  1  0.67487107  0.60512953  0.94286182  1
  H+  H307  1  0.57421481  0.17588466  0.39194707  1
  H+  H308  1  0.57573050  0.39609731  0.78724891  1
  H+  H309  1  0.59723038  0.35975064  1.00982878  1
  H+  H310  1  0.60708671  0.92290425  0.71555380  1
  H+  H311  1  0.40377691  0.08084695  0.23163903  1
  H+  H312  1  0.04120650  0.90498669  0.14272156  1
  H+  H313  1  0.63278534  0.81346136  0.27832998  1
  H+  H314  1  0.84456618  0.66934704  0.38842774  1
  H+  H315  1  0.44538451  0.57147841  0.59083302  1
  H+  H316  1  0.34646149  0.41882332  0.77243172  1
  H+  H317  1  0.87405747  0.18755832  0.41325220  1
  H+  H318  1  0.70914382  0.35829275  0.22750084  1
  H+  H319  1  0.17064120  0.33989162  0.56641248  1
  H+  H320  1  0.48795384  0.62706231  0.99489674  1
  H+  H321  1  0.35708961  0.88081832  0.01805801  1
  H+  H322  1  0.88061809  0.38821199  0.73203074  1
  H+  H323  1  0.92732778  0.09518114  0.92026133  1
  H+  H324  1  0.90984486  0.83784681  0.59693346  1
  H+  H325  1  0.84624462  0.92828457  0.76913243  1
  H+  H326  1  0.62880497  0.30767051  0.57644037  1
  H+  H327  1  0.01601240  0.64260710  0.01574021  1
  H+  H328  1  0.16685384  0.09177717  0.25722374  1
  H+  H329  1  0.17395557  0.08753924  0.89199226  1
  H+  H330  1  0.07849458  0.43182572  0.73771328  1
  H+  H331  1  0.92034923  0.09251540  0.60340504  1
  H+  H332  1  0.66183223  0.57755155  0.26676626  1
  H+  H333  1  0.90546416  0.72894864  0.15726933  1
  H+  H334  1  0.67659129  0.84486824  0.93216233  1
  H+  H335  1  0.64365797  0.06184536  0.89144616  1
  H+  H336  1  0.17114506  0.57994596  0.27132421  1
  H+  H337  1  0.38713180  0.61273861  0.32656964  1
  H+  H338  1  0.40382395  0.07333046  0.89679845  1
  H+  H339  1  0.17386501  0.10050877  0.59071301  1
  H+  H340  1  0.32854413  0.41540429  0.42848932  1
  H+  H341  1  0.19217635  0.33578235  0.89983372  1
  H+  H342  1  0.39782372  0.72488318  0.76754175  1
  H+  H343  1  0.84675336  0.67486836  0.07355866  1
  H+  H344  1  0.91347311  0.58975271  0.91685844  1
  H+  H345  1  0.09542724  0.17345775  0.06058104  1
  H+  H346  1  0.09303972  0.40272144  0.07160816  1
  H+  H347  1  0.28634199  0.71796148  0.46046913  1
  H+  H348  1  0.09722644  0.92979338  0.05535560  1
  H+  H349  1  0.80094031  0.02188845  0.22368707  1
  H+  H350  1  0.29151782  0.66232650  0.69295643  1
  H+  H351  1  0.05501806  0.91709546  0.42212527  1
  H+  H352  1  0.88522322  0.02912388  0.84306586  1
  H+  H353  1  0.35100453  0.88880600  0.42804666  1
  H+  H354  1  0.01792999  0.14043618  0.49725348  1
  H+  H355  1  0.10765384  0.17853980  0.76409682  1
  H+  H356  1  0.77905279  0.38184073  0.33360964  1
  H+  H357  1  0.32204778  0.91280822  0.11027493  1
  H+  H358  1  0.33585960  0.16013336  0.76307086  1
  H+  H359  1  0.40777626  0.06491320  0.59241645  1
  H+  H360  1  0.09591900  0.42252908  0.43519685  1
  H+  H361  1  0.43533610  0.83876172  0.59761235  1
  H+  H362  1  0.58142508  0.39672937  0.09788693  1
  H+  H363  1  0.33934601  0.90892287  0.73205437  1
  H+  H364  1  0.59609505  0.92279018  0.06773235  1
  H+  H365  1  0.33370575  0.16867498  0.10073867  1
  H+  H366  1  0.64931000  0.07577800  0.28104754  1
  H+  H367  1  0.55519048  0.14430814  0.09764467  1
  H+  H368  1  0.83714813  0.38130204  0.72240867  1
  H+  H369  1  0.28495857  0.63260583  1.01620624  1
  H+  H370  1  0.57781585  0.67327020  0.09805173  1
  H+  H371  1  0.36470059  0.38756176  0.33420722  1
  H+  H372  1  0.63576936  0.45990179  0.70802867  1
  H+  H373  1  0.59417854  0.91819040  0.41692720  1
  H+  H374  1  0.04822832  0.16133199  0.14173747  1
  H+  H375  1  0.57023846  0.16113629  0.76275928  1
  H+  H376  1  0.09470683  0.62418419  0.87382335  1
  H+  H377  1  0.33630534  0.67040998  0.07883248  1
  H+  H378  1  0.13328876  0.86608686  0.98648529  1
  H+  H379  1  0.16193188  0.81547562  0.27165144  1
  H+  H380  1  0.58988757  0.41763978  0.39288044  1
  H+  H381  1  0.13562614  0.27956292  0.65931750  1
  H+  H382  1  0.59467458  0.20202943  0.00495400  1
  H+  H383  1  0.83540400  0.67577440  0.73411815  1
  O2-  O384  1  0.10698749  0.18750754  0.12700703  1
  O2-  O385  1  0.07838837  0.16961555  0.48075379  1
  O2-  O386  1  0.11445964  0.17691750  0.80887514  1
  O2-  O387  1  0.09779945  0.41193133  0.14755920  1
  O2-  O388  1  0.09461955  0.42142282  0.48057978  1
  O2-  O389  1  0.06115825  0.44833957  0.82599132  1
  O2-  O390  1  0.02218182  0.59753690  0.18687922  1
  O2-  O391  1  0.08916584  0.66079572  0.48056108  1
  O2-  O392  1  0.07425277  0.68395872  0.81999661  1
  O2-  O393  1  0.09680043  0.94361915  0.12229710  1
  O2-  O394  1  0.03633106  0.92151867  0.46359959  1
  O2-  O395  1  0.08221666  0.92448077  0.81487498  1
  O2-  O396  1  0.33411031  0.17357592  0.14598479  1
  O2-  O397  1  0.32164745  0.14640373  0.46964386  1
  O2-  O398  1  0.33676715  0.16248894  0.80884468  1
  O2-  O399  1  0.34827991  0.42598155  0.14473750  1
  O2-  O400  1  0.33090282  0.42024904  0.47394475  1
  O2-  O401  1  0.36221757  0.43786808  0.81632251  1
  O2-  O402  1  0.32276538  0.67501796  0.15896071  1
  O2-  O403  1  0.32112127  0.69190949  0.47099492  1
  O2-  O404  1  0.43406035  0.74686763  0.80647606  1
  O2-  O405  1  0.31774509  0.91260171  0.15528622  1
  O2-  O406  1  0.35870436  0.89917414  0.47340896  1
  O2-  O407  1  0.31934322  0.90994473  0.81665369  1
  O2-  O408  1  0.54946509  0.15085759  0.14185321  1
  O2-  O409  1  0.55789714  0.18524124  0.46413058  1
  O2-  O410  1  0.57453102  0.15680453  0.80904840  1
  O2-  O411  1  0.58594484  0.39895495  0.14442861  1
  O2-  O412  1  0.59599085  0.42484241  0.47362865  1
  O2-  O413  1  0.58663124  0.40524648  0.83093524  1
  O2-  O414  1  0.57271869  0.66565610  0.14393360  1
  O2-  O415  1  0.59728039  0.67409950  0.47257392  1
  O2-  O416  1  0.60083882  0.67069127  0.81020479  1
  O2-  O417  1  0.62468426  0.93788839  0.14358874  1
  O2-  O418  1  0.61312721  0.90868569  0.49675940  1
  O2-  O419  1  0.59533666  0.90105794  0.79469789  1
  O2-  O420  1  0.80595514  0.16556549  0.14796020  1
  O2-  O421  1  0.85840520  0.18134078  0.48205888  1
  O2-  O422  1  0.81325192  0.15730362  0.81385060  1
  O2-  O423  1  0.87309767  0.47308852  0.13083508  1
  O2-  O424  1  0.84827574  0.41664134  0.47453379  1
  O2-  O425  1  0.84049736  0.40841031  0.84478463  1
  O2-  O426  1  0.88362005  0.67089218  0.13925307  1
  O2-  O427  1  0.84028729  0.67003431  0.46596874  1
  O2-  O428  1  0.83617567  0.67331119  0.81567321  1
  O2-  O429  1  0.82346430  0.90264946  0.12704165  1
  O2-  O430  1  0.78522650  0.88943984  0.49347354  1
  O2-  O431  1  0.84421222  0.92763020  0.81486247  1
  O2-  O432  1  0.16711668  0.09890249  0.18097763  1
  O2-  O433  1  0.15609832  0.07663004  0.51274043  1
  O2-  O434  1  0.17507315  0.08504704  0.84669702  1
  O2-  O435  1  0.18288142  0.33338965  0.17783028  1
  O2-  O436  1  0.17064550  0.33652455  0.52066203  1
  O2-  O437  1  0.19213745  0.33819639  0.85470838  1
  O2-  O438  1  0.15758507  0.57254277  0.19452314  1
  O2-  O439  1  0.16952053  0.57793349  0.53503606  1
  O2-  O440  1  0.08751941  0.57931912  0.90356211  1
  O2-  O441  1  0.15338970  0.81074548  0.19764019  1
  O2-  O442  1  0.18188860  0.81726660  0.51924457  1
  O2-  O443  1  0.16662466  0.83580915  0.85959441  1
  O2-  O444  1  0.39456891  0.07477063  0.18554979  1
  O2-  O445  1  0.41199468  0.06272603  0.51218942  1
  O2-  O446  1  0.40641665  0.07258568  0.85124293  1
  O2-  O447  1  0.42595326  0.33716701  0.18545202  1
  O2-  O448  1  0.34787323  0.29680308  0.53027307  1
  O2-  O449  1  0.41367646  0.32323731  0.85824034  1
  O2-  O450  1  0.41049919  0.58882453  0.18697275  1
  O2-  O451  1  0.42745138  0.59018820  0.50471067  1
  O2-  O452  1  0.44016903  0.60464309  0.85322044  1
  O2-  O453  1  0.37858772  0.82942732  0.21472121  1
  O2-  O454  1  0.44311162  0.83012277  0.52086412  1
  O2-  O455  1  0.41306909  0.85021043  0.87453800  1
  O2-  O456  1  0.64368226  0.08670391  0.19842260  1
  O2-  O457  1  0.65373252  0.11252276  0.50377385  1
  O2-  O458  1  0.64152751  0.05682781  0.84583283  1
  O2-  O459  1  0.72043429  0.37023050  0.18358999  1
  O2-  O460  1  0.67728128  0.32972330  0.50771275  1
  O2-  O461  1  0.66046581  0.31306854  0.85900901  1
  O2-  O462  1  0.60619927  0.55059894  0.19582980  1
  O2-  O463  1  0.67301041  0.58623179  0.51041546  1
  O2-  O464  1  0.67449870  0.58637515  0.85952265  1
  O2-  O465  1  0.64565975  0.81206397  0.19988207  1
  O2-  O466  1  0.69764008  0.83321553  0.51884675  1
  O2-  O467  1  0.68142474  0.83480002  0.85455524  1
  O2-  O468  1  0.79236381  0.01735628  0.17824958  1
  O2-  O469  1  0.91660001  0.09358619  0.52635925  1
  O2-  O470  1  0.90735361  0.08798077  0.86056108  1
  O2-  O471  1  0.94850061  0.29321592  0.20525896  1
  O2-  O472  1  0.93625009  0.33507665  0.51558867  1
  O2-  O473  1  0.92223345  0.31642258  0.86997572  1
  O2-  O474  1  0.83013863  0.54828754  0.23753264  1
  O2-  O475  1  0.92193629  0.59293341  0.51221680  1
  O2-  O476  1  0.91071124  0.58446038  0.87257192  1
  O2-  O477  1  0.93905188  0.83472705  0.17263647  1
  O2-  O478  1  0.89020303  0.82869630  0.51771328  1
  O2-  O479  1  0.92197635  0.84116498  0.85588480  1
  O2-  O480  1  0.17098691  0.08650558  0.30267711  1
  O2-  O481  1  0.18507324  0.12853687  0.63113704  1
  O2-  O482  1  0.17237965  0.08605118  0.97087943  1
  O2-  O483  1  0.16834056  0.32943581  0.30720368  1
  O2-  O484  1  0.16930123  0.34056907  0.64340082  1
  O2-  O485  1  0.18530485  0.33096760  0.97913225  1
  O2-  O486  1  0.17772064  0.58263586  0.31666733  1
  O2-  O487  1  0.18087527  0.60076949  0.66194170  1
  O2-  O488  1  0.19689419  0.56607564  0.98505899  1
  O2-  O489  1  0.16582245  0.81918779  0.31744456  1
  O2-  O490  1  0.17523922  0.82241315  0.64025299  1
  O2-  O491  1  0.16095024  0.83105862  0.96995664  1
  O2-  O492  1  0.41740490  0.08890732  0.30258327  1
  O2-  O493  1  0.40541385  0.06818122  0.63765084  1
  O2-  O494  1  0.40104438  0.07057826  0.97446961  1
  O2-  O495  1  0.42072337  0.33896444  0.30890206  1
  O2-  O496  1  0.41520385  0.32026971  0.64413574  1
  O2-  O497  1  0.40778164  0.32236838  0.98108807  1
  O2-  O498  1  0.41551050  0.58087305  0.31082985  1
  O2-  O499  1  0.46039853  0.55106305  0.62762279  1
  O2-  O500  1  0.42760404  0.59344232  0.97911437  1
  O2-  O501  1  0.37845246  0.82918122  0.32457299  1
  O2-  O502  1  0.43661810  0.84482234  0.64284941  1
  O2-  O503  1  0.41314507  0.83193025  0.99806072  1
  O2-  O504  1  0.65377073  0.07914001  0.32590498  1
  O2-  O505  1  0.70253224  0.08724471  0.62264318  1
  O2-  O506  1  0.65364893  0.07422148  0.96892201  1
  O2-  O507  1  0.67993462  0.33410528  0.30970967  1
  O2-  O508  1  0.59712879  0.30200519  0.61544521  1
  O2-  O509  1  0.64585117  0.30265606  0.98251499  1
  O2-  O510  1  0.67273801  0.58195108  0.31126777  1
  O2-  O511  1  0.67992986  0.60425439  0.63366272  1
  O2-  O512  1  0.67255610  0.61359327  0.98698556  1
  O2-  O513  1  0.63441542  0.81400064  0.32337856  1
  O2-  O514  1  0.69056119  0.84364628  0.63972474  1
  O2-  O515  1  0.68043778  0.85040437  0.97759999  1
  O2-  O516  1  0.83461747  0.04258917  0.29617694  1
  O2-  O517  1  0.92356841  0.09073427  0.64902005  1
  O2-  O518  1  0.93851745  0.09652194  0.96966514  1
  O2-  O519  1  0.93284335  0.33834879  0.31370351  1
  O2-  O520  1  0.94906417  0.33941387  0.63519379  1
  O2-  O521  1  0.94232931  0.37110996  0.97595955  1
  O2-  O522  1  0.89317486  0.57564808  0.28213384  1
  O2-  O523  1  0.97023999  0.66935414  0.63204574  1
  O2-  O524  1  0.90199989  0.57030684  1.02177959  1
  O2-  O525  1  0.93369354  0.83344847  0.28952843  1
  O2-  O526  1  0.91742628  0.84370746  0.64205579  1
  O2-  O527  1  0.92526730  0.83824355  0.97810741  1
  O2-  O528  1  0.08992767  0.16631060  0.01242228  1
  O2-  O529  1  0.08555411  0.16694913  0.36055316  1
  O2-  O530  1  0.09151137  0.18145976  0.68542211  1
  O2-  O531  1  0.09479482  0.40037557  0.02601005  1
  O2-  O532  1  0.09670230  0.41851334  0.35474999  1
  O2-  O533  1  0.09421790  0.43166548  0.69482382  1
  O2-  O534  1  0.07834362  0.67320464  0.00581101  1
  O2-  O535  1  0.09544257  0.65375825  0.35774734  1
  O2-  O536  1  0.05653624  0.63014245  0.71052512  1
  O2-  O537  1  0.09500174  0.92003448  0.00836420  1
  O2-  O538  1  0.09058865  0.91534000  0.34473571  1
  O2-  O539  1  0.08816253  0.90045453  0.68582562  1
  O2-  O540  1  0.33074417  0.15990940  0.02134115  1
  O2-  O541  1  0.33252258  0.17120637  0.34912833  1
  O2-  O542  1  0.33400801  0.15500970  0.68641941  1
  O2-  O543  1  0.34852419  0.42636106  0.02086596  1
  O2-  O544  1  0.33221101  0.41556264  0.34992073  1
  O2-  O545  1  0.31294475  0.37007534  0.70917593  1
  O2-  O546  1  0.34433953  0.67100997  0.03393162  1
  O2-  O547  1  0.33679474  0.66970249  0.35002186  1
  O2-  O548  1  0.35313236  0.69462849  0.70426201  1
  O2-  O549  1  0.32555319  0.91217368  0.02850717  1
  O2-  O550  1  0.32058899  0.85120553  0.35692052  1
  O2-  O551  1  0.34269383  0.91124190  0.68726343  1
  O2-  O552  1  0.56387449  0.13957381  0.01693238  1
  O2-  O553  1  0.58178244  0.17354565  0.34634940  1
  O2-  O554  1  0.56232340  0.16507941  0.69161393  1
  O2-  O555  1  0.57249274  0.39352192  0.02727339  1
  O2-  O556  1  0.58725846  0.41545083  0.34777606  1
  O2-  O557  1  0.57589070  0.44274808  0.69970243  1
  O2-  O558  1  0.58882480  0.68523329  0.02477108  1
  O2-  O559  1  0.57917486  0.65080882  0.35263900  1
  O2-  O560  1  0.60972925  0.68367269  0.68507183  1
  O2-  O561  1  0.58566499  0.91656664  0.02281412  1
  O2-  O562  1  0.57840995  0.91778482  0.37389246  1
  O2-  O563  1  0.60495666  0.92464351  0.67046681  1
  O2-  O564  1  0.80873653  0.17393146  0.02723048  1
  O2-  O565  1  0.89189108  0.19658509  0.36801978  1
  O2-  O566  1  0.84539636  0.17898199  0.68562784  1
  O2-  O567  1  0.81101922  0.38951490  0.01622761  1
  O2-  O568  1  0.84162369  0.41458276  0.34638225  1
  O2-  O569  1  0.91870380  0.48017371  0.63518046  1
  O2-  O570  1  0.83527537  0.67342929  0.02824535  1
  O2-  O571  1  0.84348037  0.66844849  0.34273132  1
  O2-  O572  1  0.83868063  0.68087872  0.68909698  1
  O2-  O573  1  0.84903836  0.93581129  0.00580488  1
  O2-  O574  1  0.79426872  0.91332261  0.36536025  1
  O2-  O575  1  0.84595096  0.92865486  0.69172269  1
