# generated using pymatgen
data_H2O
_symmetry_space_group_name_H-M   'P 1'
_cell_length_a   17.98502814
_cell_length_b   17.98643799
_cell_length_c   21.99829401
_cell_angle_alpha   89.98970359
_cell_angle_beta   90.03662375
_cell_angle_gamma   119.97420351
_symmetry_Int_Tables_number   1
_chemical_formula_structural   H2O
_chemical_formula_sum   'H384 O192'
_cell_volume   6164.36944346
_cell_formula_units_Z   192
loop_
 _symmetry_equiv_pos_site_id
 _symmetry_equiv_pos_as_xyz
  1  'x, y, z'
loop_
 _atom_type_symbol
 _atom_type_oxidation_number
  H+  1.0
  O2-  -2.0
loop_
 _atom_site_type_symbol
 _atom_site_label
 _atom_site_symmetry_multiplicity
 _atom_site_fract_x
 _atom_site_fract_y
 _atom_site_fract_z
 _atom_site_occupancy
  H+  H0  1  0.88280026  0.61564822  0.32476912  1
  H+  H1  1  0.10634974  0.22413567  -0.00193797  1
  H+  H2  1  0.47591754  0.60163731  0.33875479  1
  H+  H3  1  0.47957040  0.86317690  0.66266432  1
  H+  H4  1  0.38867081  0.52588639  0.50358140  1
  H+  H5  1  0.80949130  0.92714956  0.40205900  1
  H+  H6  1  0.36418779  0.78547284  0.18201470  1
  H+  H7  1  0.39219143  0.28050169  0.99715291  1
  H+  H8  1  0.86259067  0.73226621  0.33857845  1
  H+  H9  1  0.75715903  0.98718383  0.44636432  1
  H+  H10  1  0.09585745  0.21958022  0.34755251  1
  H+  H11  1  0.89119631  0.77480721  0.66306723  1
  H+  H12  1  0.88059469  0.77730692  0.17235138  1
  H+  H13  1  0.11078895  0.13649760  0.99893689  1
  H+  H14  1  -0.02134191  0.57252909  0.16407488  1
  H+  H15  1  0.21793560  0.96134514  0.23330072  1
  H+  H16  1  0.11219761  0.63330531  0.49568065  1
  H+  H17  1  0.13866472  0.02759913  0.99234289  1
  H+  H18  1  0.46893717  0.60581288  0.83278441  1
  H+  H19  1  0.58690939  0.95022850  0.44503160  1
  H+  H20  1  0.13271086  1.02312703  0.83374080  1
  H+  H21  1  0.86502471  0.63789321  1.01737190  1
  H+  H22  1  0.88013429  0.86900796  0.33151224  1
  H+  H23  1  0.64321707  0.06322528  0.61990949  1
  H+  H24  1  0.36773855  0.72269111  1.00629873  1
  H+  H25  1  0.37945441  0.67989133  0.16060092  1
  H+  H26  1  0.35431759  0.63566025  0.49607423  1
  H+  H27  1  0.32727082  0.40383990  0.44335472  1
  H+  H28  1  0.84838681  0.38674926  0.32875934  1
  H+  H29  1  0.42354889  0.33023524  0.70939360  1
  H+  H30  1  0.36690872  0.34146500  0.33868966  1
  H+  H31  1  0.37796847  1.03373847  0.18458707  1
  H+  H32  1  0.35320045  0.89523189  0.16685775  1
  H+  H33  1  0.74233832  0.85404625  0.32934829  1
  H+  H34  1  0.68886621  0.87586606  0.97974689  1
  H+  H35  1  0.12218429  0.01943237  0.33066042  1
  H+  H36  1  0.36079257  -0.02465468  0.49618040  1
  H+  H37  1  0.84022727  0.67267037  0.21166487  1
  H+  H38  1  0.72179029  0.89764002  0.48349765  1
  H+  H39  1  0.88670884  0.11419443  0.82990785  1
  H+  H40  1  0.90631386  0.84071109  0.26935804  1
  H+  H41  1  0.58271037  0.90920629  0.77135680  1
  H+  H42  1  0.21019051  0.27567976  0.22268465  1
  H+  H43  1  0.25800678  0.87196562  0.34997561  1
  H+  H44  1  0.09751537  0.11586639  0.49754415  1
  H+  H45  1  0.61337029  0.63074622  0.83335649  1
  H+  H46  1  0.36138580  0.38925220  0.82599064  1
  H+  H47  1  0.77252757  0.63478197  0.83052594  1
  H+  H48  1  -0.03144369  0.36841949  0.17508899  1
  H+  H49  1  0.08626122  0.91887367  0.76399408  1
  H+  H50  1  0.98295708  0.10157026  0.17486088  1
  H+  H51  1  0.79760660  0.87661491  -0.01238672  1
  H+  H52  1  0.15277639  0.79359974  0.97494752  1
  H+  H53  1  0.11922186  0.72874251  0.66969908  1
  H+  H54  1  0.51558988  0.62182309  0.17300426  1
  H+  H55  1  0.27987975  0.90533754  0.00018476  1
  H+  H56  1  0.39273738  0.86753033  0.65801956  1
  H+  H57  1  0.65861310  0.05497841  1.00530594  1
  H+  H58  1  0.89882021  0.22099336  0.02247082  1
  H+  H59  1  0.06918666  0.69724693  0.05455904  1
  H+  H60  1  0.97457604  0.10784846  0.98430638  1
  H+  H61  1  0.71490887  0.34101151  0.65753309  1
  H+  H62  1  0.63542952  0.16113286  0.00125487  1
  H+  H63  1  0.90107659  0.32563224  0.57632495  1
  H+  H64  1  0.14344033  0.37956847  0.51583142  1
  H+  H65  1  0.64233346  0.52300413  1.00176462  1
  H+  H66  1  0.65837117  0.16856922  0.33855621  1
  H+  H67  1  0.12376035  0.89808238  0.02859037  1
  H+  H68  1  0.90029738  0.53258348  0.66204320  1
  H+  H69  1  0.22462890  0.61207503  0.50781088  1
  H+  H70  1  0.54079437  0.15065913  0.98880860  1
  H+  H71  1  0.95888870  0.35703374  0.33252207  1
  H+  H72  1  0.24144547  0.36038904  0.66084939  1
  H+  H73  1  0.98936729  0.62139763  0.66010138  1
  H+  H74  1  0.52469034  0.39014214  0.66941368  1
  H+  H75  1  0.87022231  0.88642139  0.83119974  1
  H+  H76  1  0.10830769  0.72308606  0.19621386  1
  H+  H77  1  -0.00029822  0.61848596  0.01412160  1
  H+  H78  1  0.59926302  0.89323130  0.02984526  1
  H+  H79  1  0.78012806  0.39091712  0.50132009  1
  H+  H80  1  0.77446372  0.64248851  0.33596251  1
  H+  H81  1  0.64840051  0.27789937  0.84196634  1
  H+  H82  1  0.63893808  0.52133304  0.84224651  1
  H+  H83  1  0.51986633  0.13297991  0.49697644  1
  H+  H84  1  0.12034997  0.53899685  0.85709311  1
  H+  H85  1  0.92236190  0.29964454  0.86855844  1
  H+  H86  1  0.38136981  0.60803557  0.82923591  1
  H+  H87  1  0.97871411  0.61367061  0.50627401  1
  H+  H88  1  0.11764148  0.48298147  0.50305306  1
  H+  H89  1  0.01441798  0.88588534  0.34461092  1
  H+  H90  1  0.16143776  0.34437803  0.93468899  1
  H+  H91  1  0.21690625  0.11814810  0.83393512  1
  H+  H92  1  0.35951225  0.56721445  0.19585478  1
  H+  H93  1  0.89856710  0.76967457  -0.00277571  1
  H+  H94  1  0.23861069  0.37599070  0.51200369  1
  H+  H95  1  0.87145478  0.39350158  0.83639221  1
  H+  H96  1  0.21703107  0.60536322  0.17685377  1
  H+  H97  1  0.50860244  0.35999639  0.18460529  1
  H+  H98  1  0.14765782  0.25771681  0.16875940  1
  H+  H99  1  0.37116114  0.89619148  0.81895887  1
  H+  H100  1  0.38144207  0.86153567  0.33133914  1
  H+  H101  1  0.65498026  0.56118416  0.12338071  1
  H+  H102  1  0.47583658  0.61690428  0.50089797  1
  H+  H103  1  0.12081840  0.85705875  0.33876255  1
  H+  H104  1  0.34639460  0.14042392  0.82370159  1
  H+  H105  1  0.36368369  0.22914020  0.66619624  1
  H+  H106  1  0.08067729  0.57228084  0.16458728  1
  H+  H107  1  0.46506914  0.84589247  0.99791463  1
  H+  H108  1  0.72724242  0.61302959  0.00032096  1
  H+  H109  1  0.37567066  0.52213742  0.65529458  1
  H+  H110  1  0.61416893  0.64846899  0.49289899  1
  H+  H111  1  0.10204596  0.71963012  0.34325510  1
  H+  H112  1  0.58515226  0.86561447  0.46863322  1
  H+  H113  1  0.27511736  0.63529512  0.32082086  1
  H+  H114  1  0.66361836  0.14579901  0.19036376  1
  H+  H115  1  0.12221974  0.36299241  0.33905905  1
  H+  H116  1  0.87589028  0.52306579  -0.00621339  1
  H+  H117  1  0.84831682  0.97904315  0.34053320  1
  H+  H118  1  0.12778209  1.03235248  0.17885961  1
  H+  H119  1  0.47372768  0.40787873  0.22327811  1
  H+  H120  1  0.61470771  0.72004751  0.83105698  1
  H+  H121  1  0.85086034  0.21907277  0.80424746  1
  H+  H122  1  0.61421664  0.85475817  0.19261993  1
  H+  H123  1  0.60536804  0.17101180  0.53370181  1
  H+  H124  1  0.10533695  0.90916314  0.17221841  1
  H+  H125  1  0.09786285  0.36852235  0.16014767  1
  H+  H126  1  0.38489479  0.02434477  0.82028829  1
  H+  H127  1  0.96666322  0.02495963  0.21623062  1
  H+  H128  1  -0.00966673  0.85664690  -0.00524218  1
  H+  H129  1  1.02043399  0.87881108  0.49560002  1
  H+  H130  1  0.33515263  0.11342593  0.35148413  1
  H+  H131  1  0.87006443  0.48259112  0.83409725  1
  H+  H132  1  0.61076564  0.63194540  0.34403447  1
  H+  H133  1  0.47334564  0.36731167  0.52050817  1
  H+  H134  1  0.02511798  0.88464154  0.67215487  1
  H+  H135  1  0.12697008  0.60644771  0.33303195  1
  H+  H136  1  0.59884549  0.43695081  0.41087310  1
  H+  H137  1  0.64419503  0.10561329  0.47472360  1
  H+  H138  1  0.81744344  0.41810301  0.06493808  1
  H+  H139  1  0.84630876  0.96260686  0.16463494  1
  H+  H140  1  0.86891928  0.23309371  0.16429947  1
  H+  H141  1  0.35956351  0.88475502  0.49869383  1
  H+  H142  1  0.60919939  0.63234342  0.16654126  1
  H+  H143  1  0.26564673  0.14969905  0.16965005  1
  H+  H144  1  0.46337997  0.85803758  0.49798365  1
  H+  H145  1  0.35633499  0.46285674  0.35243666  1
  H+  H146  1  0.23765242  0.87362549  0.82288224  1
  H+  H147  1  0.12098272  0.89415466  0.82321130  1
  H+  H148  1  0.89262118  0.77264995  0.50508957  1
  H+  H149  1  0.36129139  0.47883659  0.82219840  1
  H+  H150  1  0.86258236  0.72455001  0.82827791  1
  H+  H151  1  0.07471210  0.91256684  0.40470077  1
  H+  H152  1  0.11470739  0.73264862  0.16269186  1
  H+  H153  1  0.21108178  0.10731103  0.33469185  1
  H+  H154  1  0.78664701  0.89424373  0.68055999  1
  H+  H155  1  0.88570289  0.27011872  0.50794660  1
  H+  H156  1  0.22600591  0.86104093  0.50801225  1
  H+  H157  1  0.62241069  0.24779438  0.16446411  1
  H+  H158  1  0.11006258  0.62187580  0.84943773  1
  H+  H159  1  0.37394933  0.11941347  0.18673183  1
  H+  H160  1  0.88923150  0.01544845  0.97845276  1
  H+  H161  1  0.07334453  0.41383978  0.40819648  1
  H+  H162  1  0.05205776  0.47551738  0.77855627  1
  H+  H163  1  0.35845364  0.38025005  0.50636586  1
  H+  H164  1  0.75462922  0.38622867  0.15901211  1
  H+  H165  1  0.09961299  0.47139982  0.34797693  1
  H+  H166  1  0.87187817  0.12582516  1.00466905  1
  H+  H167  1  0.54057282  0.13912620  0.83949739  1
  H+  H168  1  0.87164348  0.47811573  0.50350113  1
  H+  H169  1  0.28756345  0.36564500  0.15452141  1
  H+  H170  1  0.62695181  0.40342169  0.35192998  1
  H+  H171  1  0.75425953  0.87888067  0.16930164  1
  H+  H172  1  0.64333751  0.27861144  0.31675640  1
  H+  H173  1  0.01970252  0.13382802  0.66850410  1
  H+  H174  1  0.13848819  0.50731034  0.17844778  1
  H+  H175  1  0.35491924  0.23274133  0.82575639  1
  H+  H176  1  0.87867212  0.60777446  0.17362479  1
  H+  H177  1  0.58723928  0.41922057  0.76192517  1
  H+  H178  1  0.72815993  0.62240937  0.50642024  1
  H+  H179  1  0.01154716  0.12562868  0.81714024  1
  H+  H180  1  0.86535503  0.03315729  0.50613101  1
  H+  H181  1  0.36226052  0.63386535  0.32289028  1
  H+  H182  1  0.73565166  0.37000545  0.84136187  1
  H+  H183  1  0.47635459  0.62604649  0.01189540  1
  H+  H184  1  0.22192417  0.10376651  0.50897850  1
  H+  H185  1  0.36124848  0.72460912  0.81985032  1
  H+  H186  1  0.39243405  0.51733608  0.00255110  1
  H+  H187  1  0.73435903  0.37093317  0.99206995  1
  H+  H188  1  0.85191229  0.25170695  0.65883697  1
  H+  H189  1  0.38189120  0.49672665  0.17512672  1
  H+  H190  1  0.88068704  0.36894799  0.51358818  1
  H+  H191  1  0.86556661  0.29775146  0.98730255  1
  H+  H192  1  0.38223528  0.39807769  -0.00133359  1
  H+  H193  1  0.36377875  0.01068449  0.33941702  1
  H+  H194  1  0.61955904  0.38425789  1.01345656  1
  H+  H195  1  0.81771813  0.15011301  0.75151585  1
  H+  H196  1  0.22715576  0.61843424  0.65786960  1
  H+  H197  1  0.61578464  0.38801522  0.82138021  1
  H+  H198  1  0.54605682  0.79446910  0.04655051  1
  H+  H199  1  0.10452826  0.12168515  0.81875330  1
  H+  H200  1  0.60785991  0.73677897  0.48622343  1
  H+  H201  1  0.47702391  0.86520703  0.83737069  1
  H+  H202  1  0.60980812  0.49110502  0.50351779  1
  H+  H203  1  0.38719109  0.11341308  0.50434346  1
  H+  H204  1  -0.03220572  0.10500819  0.50866257  1
  H+  H205  1  0.35029673  0.72205021  0.49786721  1
  H+  H206  1  0.13851558  0.86279042  0.65971620  1
  H+  H207  1  0.10936358  0.13526196  0.15232102  1
  H+  H208  1  0.86206159  0.63319889  0.49160533  1
  H+  H209  1  0.63478991  0.65289516  0.67873459  1
  H+  H210  1  0.40867411  0.04207497  0.97826565  1
  H+  H211  1  0.63687596  0.29032330  0.49811195  1
  H+  H212  1  0.37802738  0.60741126  1.00081699  1
  H+  H213  1  0.73102868  0.10741465  0.83577464  1
  H+  H214  1  0.85896527  0.39787490  1.00424604  1
  H+  H215  1  -0.04520463  0.11293841  0.33410843  1
  H+  H216  1  0.13365467  0.39207298  0.66953292  1
  H+  H217  1  0.27577652  0.15015389  0.00809405  1
  H+  H218  1  0.86595649  0.27203065  0.32264348  1
  H+  H219  1  0.86426607  0.50875886  0.17305355  1
  H+  H220  1  0.77987783  0.45240467  0.70117582  1
  H+  H221  1  0.17282401  0.62960439  0.93506976  1
  H+  H222  1  1.01457219  0.62981770  0.34194096  1
  H+  H223  1  0.35850550  0.23394818  0.17179805  1
  H+  H224  1  0.26184788  0.37952414  0.35234725  1
  H+  H225  1  0.84206378  0.12358001  0.66726926  1
  H+  H226  1  0.66863733  0.57719606  0.90425959  1
  H+  H227  1  0.83315959  0.66431898  0.43232111  1
  H+  H228  1  0.47842229  0.36347829  0.83710893  1
  H+  H229  1  0.43965235  0.11821154  0.79291917  1
  H+  H230  1  0.64612118  0.75146435  0.33000371  1
  H+  H231  1  0.50579867  0.88135797  0.18270951  1
  H+  H232  1  0.11222289  0.73855991  0.81740314  1
  H+  H233  1  0.36308195  -0.02100791  0.66594664  1
  H+  H234  1  0.74207798  0.60918012  0.16544517  1
  H+  H235  1  0.36073030  0.72703289  0.66603319  1
  H+  H236  1  0.38671711  0.86211748  0.99390761  1
  H+  H237  1  0.22995455  0.37539265  0.84480105  1
  H+  H238  1  0.21313588  0.36105993  -0.00357374  1
  H+  H239  1  0.60851925  0.12055050  0.68028634  1
  H+  H240  1  0.61238786  0.40335326  0.50351838  1
  H+  H241  1  0.22218245  0.11243171  0.65548555  1
  H+  H242  1  0.36975779  0.38616832  0.67257555  1
  H+  H243  1  0.98123670  0.86154958  0.83611543  1
  H+  H244  1  0.61141202  0.38512633  0.66589159  1
  H+  H245  1  0.85497402  0.34252686  0.66063993  1
  H+  H246  1  0.90715155  0.33952496  0.23308552  1
  H+  H247  1  1.00920357  0.39173597  1.01563666  1
  H+  H248  1  0.47565662  0.11290398  0.66136342  1
  H+  H249  1  0.83827153  0.66635363  0.73538415  1
  H+  H250  1  0.60950455  0.97461116  0.68466632  1
  H+  H251  1  0.13710957  0.77037633  0.50719808  1
  H+  H252  1  0.73525086  0.37663882  0.31596850  1
  H+  H253  1  0.23558877  0.90795254  0.18576552  1
  H+  H254  1  0.61497172  0.96811888  0.83125792  1
  H+  H255  1  0.14167797  0.52548309  0.65932595  1
  H+  H256  1  1.03046311  0.39104997  0.50781312  1
  H+  H257  1  0.57116593  0.90929928  0.33229974  1
  H+  H258  1  0.13391225  0.01216785  0.50709163  1
  H+  H259  1  0.97551824  0.62120544  0.84086767  1
  H+  H260  1  0.63644329  0.26257049  -0.00948243  1
  H+  H261  1  0.86636574  0.85961955  0.17163884  1
  H+  H262  1  0.62763577  0.13693506  0.83474846  1
  H+  H263  1  0.60947864  0.73824452  0.01713011  1
  H+  H264  1  0.33891559  0.20556664  0.35074797  1
  H+  H265  1  0.70752969  0.12109177  0.26630170  1
  H+  H266  1  0.74847054  0.13492264  0.18471521  1
  H+  H267  1  0.74203349  0.11327766  0.67301985  1
  H+  H268  1  0.14844007  0.64263366  0.00236733  1
  H+  H269  1  0.62593620  0.25365412  0.65837510  1
  H+  H270  1  0.75120672  0.13462256  -0.00037782  1
  H+  H271  1  0.64755335  0.45545281  0.17633659  1
  H+  H272  1  0.65463277  0.77961592  0.67649477  1
  H+  H273  1  0.88104758  0.15690861  0.49915025  1
  H+  H274  1  0.89088286  0.89022557  -0.01236610  1
  H+  H275  1  0.86829359  0.97543908  0.82927064  1
  H+  H276  1  0.48500260  0.36499877  0.99952349  1
  H+  H277  1  0.15027070  0.38907259  0.84555029  1
  H+  H278  1  0.87335949  0.64176149  0.67558792  1
  H+  H279  1  0.89396118  0.86552813  0.66225391  1
  H+  H280  1  0.65646517  0.99677014  0.32778562  1
  H+  H281  1  0.73579465  0.61694329  0.66155386  1
  H+  H282  1  0.11754939  0.63747100  0.67116710  1
  H+  H283  1  0.38336276  0.38118775  0.15091216  1
  H+  H284  1  0.85013192  0.47815190  0.32917439  1
  H+  H285  1  0.64042991  0.85853039  0.83851926  1
  H+  H286  1  0.14715997  0.27094906  0.65827831  1
  H+  H287  1  0.89070536  1.02682683  0.66214126  1
  H+  H288  1  0.07344953  0.40814835  0.10258471  1
  H+  H289  1  0.07411705  0.15166557  0.75049018  1
  H+  H290  1  0.33310930  0.41510140  0.72991784  1
  H+  H291  1  0.59831106  0.40146578  0.07961047  1
  H+  H292  1  0.15507699  0.33527820  0.28045070  1
  H+  H293  1  0.16329048  0.58308614  0.56770795  1
  H+  H294  1  0.32754337  0.93118398  0.10660649  1
  H+  H295  1  0.65897338  0.34588585  0.25368338  1
  H+  H296  1  0.42431094  0.33638891  0.89886416  1
  H+  H297  1  0.16656563  0.83233968  0.59939645  1
  H+  H298  1  0.15939359  0.07611885  0.59786736  1
  H+  H299  1  0.17689429  0.34203323  0.57743743  1
  H+  H300  1  0.07929928  0.16408583  0.09099861  1
  H+  H301  1  0.61954978  0.76715319  0.18577164  1
  H+  H302  1  0.67609647  0.81857668  0.92316039  1
  H+  H303  1  0.62463748  0.83417446  0.54139274  1
  H+  H304  1  0.32897600  0.66984541  0.09942727  1
  H+  H305  1  0.09767569  0.41751275  0.72632837  1
  H+  H306  1  0.58378817  0.66790003  0.40403502  1
  H+  H307  1  0.41800977  0.08489499  0.56383110  1
  H+  H308  1  0.27590061  0.64710494  0.00511664  1
  H+  H309  1  0.34058634  0.92198973  0.75630672  1
  H+  H310  1  0.84370921  0.38157671  0.15923053  1
  H+  H311  1  0.67296393  0.59906382  0.56783779  1
  H+  H312  1  0.09513313  0.13053971  0.34192430  1
  H+  H313  1  0.91621504  0.58786441  0.93620276  1
  H+  H314  1  0.40074829  0.30828148  0.28390952  1
  H+  H315  1  0.35907512  0.22127943  0.49830222  1
  H+  H316  1  0.35473128  0.63417470  0.66543858  1
  H+  H317  1  0.11341804  0.97468077  0.67081195  1
  H+  H318  1  0.40559690  0.58256583  0.59668553  1
  H+  H319  1  0.64451264  0.52991592  0.65856485  1
  H+  H320  1  0.21446098  0.75754789  0.96331550  1
  H+  H321  1  0.07945872  0.92685624  0.07769148  1
  H+  H322  1  0.11138710  0.88013564  0.49267777  1
  H+  H323  1  0.88370851  0.61456027  0.84323450  1
  H+  H324  1  0.41759106  0.83637880  0.56458746  1
  H+  H325  1  0.27474867  0.88778424  0.66731057  1
  H+  H326  1  0.67108862  0.05153168  0.51514150  1
  H+  H327  1  0.92193364  0.36196959  0.92563995  1
  H+  H328  1  0.34828443  0.41908671  0.05967316  1
  H+  H329  1  0.33056907  0.66651406  0.76125925  1
  H+  H330  1  0.10808698  0.12795548  0.66835386  1
  H+  H331  1  0.60893316  0.19139749  0.38875233  1
  H+  H332  1  0.66218524  0.33277222  0.56323522  1
  H+  H333  1  0.15630629  0.08884443  0.24003303  1
  H+  H334  1  0.84130127  0.16304913  0.11219192  1
  H+  H335  1  0.32536793  0.16769687  0.72357598  1
  H+  H336  1  0.91314503  0.08489629  0.60156653  1
  H+  H337  1  0.59973827  0.18211225  0.11034257  1
  H+  H338  1  0.61565623  0.88728123  0.68231332  1
  H+  H339  1  0.39497521  0.07783933  0.28451495  1
  H+  H340  1  0.68765083  0.84030043  0.61713117  1
  H+  H341  1  0.67369650  0.33971204  0.92745688  1
  H+  H342  1  0.29153148  0.99043185  0.03016639  1
  H+  H343  1  0.15288680  0.57128630  0.27483629  1
  H+  H344  1  0.15956198  0.83879082  0.28027935  1
  H+  H345  1  0.41240421  0.83680744  0.89314964  1
  H+  H346  1  0.92123709  0.58792892  0.56632018  1
  H+  H347  1  0.38735442  0.11637874  0.65690470  1
  H+  H348  1  0.16302490  0.08236381  0.93044845  1
  H+  H349  1  0.32232315  0.15835758  0.43937867  1
  H+  H350  1  1.01694405  0.40930762  0.83206127  1
  H+  H351  1  0.43713802  0.09442858  0.91586475  1
  H+  H352  1  0.41508127  0.33108306  0.57954842  1
  H+  H353  1  0.67270638  0.81798099  0.26624057  1
  H+  H354  1  0.82579701  0.12767758  0.32694820  1
  H+  H355  1  0.32896231  0.18042043  0.06978557  1
  H+  H356  1  0.92299011  0.83157540  0.56416069  1
  H+  H357  1  0.07949975  0.67168680  0.76198934  1
  H+  H358  1  0.40204166  0.84435424  0.24293892  1
  H+  H359  1  0.73183166  0.86061145  0.83585198  1
  H+  H360  1  0.58417196  0.16312577  0.73630735  1
  H+  H361  1  0.18967678  0.83643874  0.88466523  1
  H+  H362  1  0.60144684  0.67564060  0.74011783  1
  H+  H363  1  0.64526842  0.52951175  0.33224564  1
  H+  H364  1  0.00780795  0.89320741  0.16482280  1
  H+  H365  1  0.91841356  0.08887643  0.89201416  1
  H+  H366  1  0.09502531  0.38538873  0.01212733  1
  H+  H367  1  0.84110090  0.67123056  0.07743814  1
  H+  H368  1  0.38790444  0.77745423  0.31690530  1
  H+  H369  1  0.08047476  0.66239136  0.43645165  1
  H+  H370  1  0.32281168  0.90529558  0.40636317  1
  H+  H371  1  0.82925141  0.42243601  0.74375172  1
  H+  H372  1  0.90658992  0.07999684  0.27176535  1
  H+  H373  1  0.91048893  0.58101043  0.26617887  1
  H+  H374  1  0.55652394  0.88853466  0.12350426  1
  H+  H375  1  0.04030466  0.58957628  0.10004990  1
  H+  H376  1  0.79625197  0.15820745  0.47629449  1
  H+  H377  1  0.41748154  0.55862178  0.28074533  1
  H+  H378  1  0.57296873  0.69121045  0.08342441  1
  H+  H379  1  0.85026284  0.92341334  0.73660854  1
  H+  H380  1  0.66201531  0.57899682  0.26817329  1
  H+  H381  1  0.92688949  0.82827784  0.89738479  1
  H+  H382  1  0.06624776  0.14739346  0.44029324  1
  H+  H383  1  0.68275405  0.08629656  0.90025769  1
  O2-  O384  1  0.07970190  0.16608023  0.13673468  1
  O2-  O385  1  0.06335612  0.14291874  0.48516808  1
  O2-  O386  1  0.07192307  0.14954736  0.79919330  1
  O2-  O387  1  0.07770551  0.40806496  0.14970903  1
  O2-  O388  1  0.08899942  0.41919552  0.49056204  1
  O2-  O389  1  0.06931506  0.44357376  0.80528830  1
  O2-  O390  1  0.02622796  0.56105316  0.14163991  1
  O2-  O391  1  0.08196625  0.66468343  0.48190420  1
  O2-  O392  1  0.07535191  0.67653821  0.80723262  1
  O2-  O393  1  0.06931283  0.92884057  0.15049749  1
  O2-  O394  1  0.08159434  0.91117194  0.47819915  1
  O2-  O395  1  0.08711244  0.92154998  0.80987134  1
  O2-  O396  1  0.32477521  0.17818931  0.15195060  1
  O2-  O397  1  0.32962249  0.16036696  0.48527479  1
  O2-  O398  1  0.31920485  0.17297371  0.80870880  1
  O2-  O399  1  0.34626200  0.40439110  0.13732760  1
  O2-  O400  1  0.32790568  0.40949819  0.48886702  1
  O2-  O401  1  0.32856150  0.41524263  0.80921994  1
  O2-  O402  1  0.32535641  0.67230671  0.14498680  1
  O2-  O403  1  0.31841439  0.66112729  0.48441721  1
  O2-  O404  1  0.33239625  0.66440306  0.80644714  1
  O2-  O405  1  0.32340135  0.92685112  0.15115212  1
  O2-  O406  1  0.32745083  0.91414310  0.48333002  1
  O2-  O407  1  0.34136146  0.92689560  0.80226688  1
  O2-  O408  1  0.61003963  0.18869412  0.15398722  1
  O2-  O409  1  0.58510610  0.16565848  0.49189306  1
  O2-  O410  1  0.59893442  0.17064023  0.82262216  1
  O2-  O411  1  0.61251214  0.39394793  0.16411202  1
  O2-  O412  1  0.57781099  0.42939984  0.48989386  1
  O2-  O413  1  0.58452960  0.41730371  0.80750627  1
  O2-  O414  1  0.57455299  0.65997294  0.15731624  1
  O2-  O415  1  0.58001093  0.67194856  0.47373258  1
  O2-  O416  1  0.58327641  0.65987105  0.81613420  1
  O2-  O417  1  0.56438289  0.89865947  0.16746888  1
  O2-  O418  1  0.54780616  0.89053842  0.45587664  1
  O2-  O419  1  0.58380353  0.90744249  0.81761590  1
  O2-  O420  1  0.84304184  0.17049379  0.15643451  1
  O2-  O421  1  0.85934324  0.19451928  0.48098939  1
  O2-  O422  1  0.82620702  0.15734742  0.79881666  1
  O2-  O423  1  0.81520577  0.41262671  0.14194838  1
  O2-  O424  1  0.84227912  0.41532834  0.49282069  1
  O2-  O425  1  0.83993479  0.42172099  0.81874816  1
  O2-  O426  1  0.83373142  0.65737498  0.16850947  1
  O2-  O427  1  0.83198525  0.66408045  0.47755190  1
  O2-  O428  1  0.83283865  0.66343834  0.81425592  1
  O2-  O429  1  0.81206492  0.90260529  0.15076478  1
  O2-  O430  1  0.77972342  0.95284344  0.46441808  1
  O2-  O431  1  0.83848834  0.91488857  0.81496431  1
  O2-  O432  1  0.15994529  0.09277223  0.19404759  1
  O2-  O433  1  0.16131814  0.07220139  0.52382254  1
  O2-  O434  1  0.15593904  0.08387420  0.84890321  1
  O2-  O435  1  0.19312202  0.30628081  0.19431092  1
  O2-  O436  1  0.17681078  0.34996321  0.53005327  1
  O2-  O437  1  0.17090116  0.35258927  0.86228385  1
  O2-  O438  1  0.15837754  0.56753245  0.19287943  1
  O2-  O439  1  0.16149473  0.57966239  0.52203602  1
  O2-  O440  1  0.12300904  0.58787355  0.87917018  1
  O2-  O441  1  0.18808655  0.90714052  0.21110145  1
  O2-  O442  1  0.16485584  0.83059501  0.52289216  1
  O2-  O443  1  0.17869327  0.84364484  0.84159520  1
  O2-  O444  1  0.39820879  0.08769605  0.20736928  1
  O2-  O445  1  0.41978101  0.08435656  0.51836471  1
  O2-  O446  1  0.41417866  0.08865222  0.83107542  1
  O2-  O447  1  0.45353062  0.35754527  0.19711942  1
  O2-  O448  1  0.41255684  0.33173876  0.53475859  1
  O2-  O449  1  0.41881064  0.33315489  0.85370247  1
  O2-  O450  1  0.40577587  0.55376105  0.19653455  1
  O2-  O451  1  0.41528702  0.58659367  0.51631795  1
  O2-  O452  1  0.40767505  0.57396006  0.84461891  1
  O2-  O453  1  0.39751823  0.84543926  0.19550967  1
  O2-  O454  1  0.40644088  0.83257186  0.51992567  1
  O2-  O455  1  0.41516204  0.84166790  0.84837303  1
  O2-  O456  1  0.69318099  0.11598810  0.20780247  1
  O2-  O457  1  0.68181829  0.08008670  0.47587459  1
  O2-  O458  1  0.67313374  0.07936191  0.85590474  1
  O2-  O459  1  0.65956422  0.35199489  0.18925383  1
  O2-  O460  1  0.66818228  0.34640805  0.51877049  1
  O2-  O461  1  0.67435322  0.33892466  0.85586692  1
  O2-  O462  1  0.67203923  0.57155370  0.16609008  1
  O2-  O463  1  0.66829001  0.59685473  0.52240570  1
  O2-  O464  1  0.67054891  0.58085282  0.85866956  1
  O2-  O465  1  0.65018706  0.82633141  0.20226729  1
  O2-  O466  1  0.64289227  0.82928156  0.50079685  1
  O2-  O467  1  0.67190603  0.82844307  0.85227063  1
  O2-  O468  1  0.93889297  0.05642546  0.20191879  1
  O2-  O469  1  0.90842076  0.08848617  0.52544751  1
  O2-  O470  1  0.91949836  0.08711924  0.84612014  1
  O2-  O471  1  0.90739351  0.34106555  0.18757833  1
  O2-  O472  1  0.91213148  0.33458098  0.52966574  1
  O2-  O473  1  0.93002283  0.35698946  0.87198142  1
  O2-  O474  1  0.90605374  0.56942429  0.18664542  1
  O2-  O475  1  0.91759570  0.58292750  0.52110247  1
  O2-  O476  1  0.91686299  0.58699724  0.85918368  1
  O2-  O477  1  0.90555032  0.83731822  0.18718545  1
  O2-  O478  1  0.92610988  0.83306299  0.51917718  1
  O2-  O479  1  0.92126588  0.83087586  0.85231350  1
  O2-  O480  1  0.15146450  0.08008518  0.31553069  1
  O2-  O481  1  0.16007346  0.07984430  0.64393651  1
  O2-  O482  1  0.16636981  0.08662368  0.97563972  1
  O2-  O483  1  0.15399580  0.33276997  0.32493033  1
  O2-  O484  1  0.17966622  0.33088298  0.64324237  1
  O2-  O485  1  0.15430567  0.33357928  0.98052358  1
  O2-  O486  1  0.15434446  0.57226239  0.31987562  1
  O2-  O487  1  0.16462534  0.58601249  0.64458219  1
  O2-  O488  1  0.19892582  0.66195754  0.97561639  1
  O2-  O489  1  0.15028539  0.82501220  0.32407992  1
  O2-  O490  1  0.16962144  0.83299885  0.64516523  1
  O2-  O491  1  0.21085179  0.81272742  0.96046715  1
  O2-  O492  1  0.38769609  0.07242528  0.32958393  1
  O2-  O493  1  0.41701740  0.08486015  0.64272840  1
  O2-  O494  1  0.45749624  0.08851008  0.95600824  1
  O2-  O495  1  0.39307871  0.30581186  0.32788126  1
  O2-  O496  1  0.42303174  0.33528438  0.66520830  1
  O2-  O497  1  0.42756535  0.34083919  0.98029271  1
  O2-  O498  1  0.41489564  0.56450123  0.32515963  1
  O2-  O499  1  0.39860380  0.58195108  0.64144633  1
  O2-  O500  1  0.41889296  0.58460571  0.99224552  1
  O2-  O501  1  0.41643423  0.84067342  0.30985429  1
  O2-  O502  1  0.42151698  0.83595410  0.64319684  1
  O2-  O503  1  0.40957198  0.82778825  0.97649076  1
  O2-  O504  1  0.71069654  0.11651306  0.31819954  1
  O2-  O505  1  0.65128251  0.07051404  0.66362572  1
  O2-  O506  1  0.69045017  0.10982047  0.98426007  1
  O2-  O507  1  0.66600039  0.34163188  0.30228583  1
  O2-  O508  1  0.65655283  0.31344590  0.64042915  1
  O2-  O509  1  0.67178894  0.33568969  0.97413718  1
  O2-  O510  1  0.66905069  0.58875796  0.31197400  1
  O2-  O511  1  0.67603307  0.59119692  0.64544125  1
  O2-  O512  1  0.66894837  0.58027883  0.98274304  1
  O2-  O513  1  0.69398220  0.80224393  0.30551951  1
  O2-  O514  1  0.68310707  0.84371510  0.66105066  1
  O2-  O515  1  0.68233570  0.82020699  0.96958316  1
  O2-  O516  1  0.89593501  0.08332488  0.31577134  1
  O2-  O517  1  0.91684309  0.08761226  0.64734988  1
  O2-  O518  1  0.91421913  0.07930340  0.96840840  1
  O2-  O519  1  0.90246301  0.33416909  0.31173289  1
  O2-  O520  1  0.88205209  0.31222249  0.64288212  1
  O2-  O521  1  0.90872719  0.35785973  0.98146821  1
  O2-  O522  1  0.91073286  0.58196098  0.31151767  1
  O2-  O523  1  0.92736658  0.59143246  0.64577037  1
  O2-  O524  1  0.91350161  0.58509980  0.98203417  1
  O2-  O525  1  0.90927893  0.83873336  0.31456943  1
  O2-  O526  1  0.92344457  0.83460725  0.64687702  1
  O2-  O527  1  0.93327836  0.82507566  0.97493222  1
  O2-  O528  1  0.07693024  0.16353273  0.01345460  1
  O2-  O529  1  0.06248518  0.15777580  0.35820627  1
  O2-  O530  1  0.07994119  0.16008414  0.68587150  1
  O2-  O531  1  0.06757311  0.41395181  0.03351516  1
  O2-  O532  1  0.06843170  0.41030103  0.36310155  1
  O2-  O533  1  0.10344931  0.42306905  0.68196770  1
  O2-  O534  1  0.05582100  0.64106269  0.03920204  1
  O2-  O535  1  0.07474482  0.65864946  0.35757890  1
  O2-  O536  1  0.08688402  0.66853122  0.68582927  1
  O2-  O537  1  0.08851958  0.92492086  0.03211492  1
  O2-  O538  1  0.07525959  0.91452190  0.35848458  1
  O2-  O539  1  0.08611284  0.91505771  0.68766018  1
  O2-  O540  1  0.33462146  0.18185030  0.02490293  1
  O2-  O541  1  0.30398737  0.14518550  0.36646038  1
  O2-  O542  1  0.32957237  0.16571120  0.67869719  1
  O2-  O543  1  0.35132876  0.42843381  0.01479793  1
  O2-  O544  1  0.32181771  0.40178587  0.36670967  1
  O2-  O545  1  0.33311898  0.41296407  0.68433185  1
  O2-  O546  1  0.33417576  0.66274230  0.02202848  1
  O2-  O547  1  0.33577673  0.66685858  0.30778751  1
  O2-  O548  1  0.32585369  0.66701404  0.68097308  1
  O2-  O549  1  0.32097498  0.95790107  0.02346568  1
  O2-  O550  1  0.31995855  0.90243212  0.36087091  1
  O2-  O551  1  0.33578384  0.91901285  0.68211834  1
  O2-  O552  1  0.59958342  0.18850168  0.00947826  1
  O2-  O553  1  0.62013217  0.19392578  0.34527147  1
  O2-  O554  1  0.57887942  0.15679898  0.69165981  1
  O2-  O555  1  0.59109780  0.41067938  0.03610133  1
  O2-  O556  1  0.60928393  0.44401304  0.36621098  1
  O2-  O557  1  0.58890261  0.42134056  0.68186842  1
  O2-  O558  1  0.55751609  0.70694251  0.04349127  1
  O2-  O559  1  0.58269738  0.66536400  0.35697655  1
  O2-  O560  1  0.61391962  0.69007891  0.69608590  1
  O2-  O561  1  0.54290557  0.84884794  0.04362011  1
  O2-  O562  1  0.63357991  0.93464812  0.33277742  1
  O2-  O563  1  0.57974218  0.91102224  0.69767344  1
  O2-  O564  1  0.85005487  0.16268232  0.02490778  1
  O2-  O565  1  0.80128266  0.16508122  0.33762242  1
  O2-  O566  1  0.80926199  0.15002055  0.68410273  1
  O2-  O567  1  0.82019584  0.42262032  0.01924435  1
  O2-  O568  1  0.81423501  0.41529257  0.33839856  1
  O2-  O569  1  0.81644006  0.42662049  0.69940171  1
  O2-  O570  1  0.83861468  0.67166147  0.03271147  1
  O2-  O571  1  0.83505625  0.67064021  0.35099735  1
  O2-  O572  1  0.84003683  0.66910786  0.68994193  1
  O2-  O573  1  0.85781579  0.92012752  -0.00455744  1
  O2-  O574  1  0.82382768  0.91994240  0.35836944  1
  O2-  O575  1  0.84953716  0.92512677  0.69119906  1
