# generated using pymatgen
data_H2O
_symmetry_space_group_name_H-M   'P 1'
_cell_length_a   17.99180900
_cell_length_b   18.00092335
_cell_length_c   21.99981350
_cell_angle_alpha   90.00044749
_cell_angle_beta   89.99490033
_cell_angle_gamma   120.02519958
_symmetry_Int_Tables_number   1
_chemical_formula_structural   H2O
_chemical_formula_sum   'H384 O192'
_cell_volume   6168.91672732
_cell_formula_units_Z   192
loop_
 _symmetry_equiv_pos_site_id
 _symmetry_equiv_pos_as_xyz
  1  'x, y, z'
loop_
 _atom_type_symbol
 _atom_type_oxidation_number
  H+  1.0
  O2-  -2.0
loop_
 _atom_site_type_symbol
 _atom_site_label
 _atom_site_symmetry_multiplicity
 _atom_site_fract_x
 _atom_site_fract_y
 _atom_site_fract_z
 _atom_site_occupancy
  H+  H0  1  0.11189202  0.38666830  0.16103030  1
  H+  H1  1  0.38517864  0.02620981  0.66548339  1
  H+  H2  1  0.86437645  0.35768781  0.66316560  1
  H+  H3  1  0.84072756  0.18909941  0.40378821  1
  H+  H4  1  0.86220192  1.01306460  -0.02320631  1
  H+  H5  1  0.41728185  0.32127591  0.60510690  1
  H+  H6  1  0.87857123  0.62042442  0.32173307  1
  H+  H7  1  0.24816649  0.35915693  1.00076290  1
  H+  H8  1  1.00943439  0.63380278  0.49323405  1
  H+  H9  1  0.63404702  0.37088724  -0.01002281  1
  H+  H10  1  0.30419661  0.55828387  0.65645844  1
  H+  H11  1  0.65926951  0.86570161  0.18143649  1
  H+  H12  1  0.37562729  0.27478569  0.19726435  1
  H+  H13  1  0.33185675  0.45033468  0.00278354  1
  H+  H14  1  0.36200722  0.37294948  0.67742515  1
  H+  H15  1  0.50592254  0.30376921  0.87669732  1
  H+  H16  1  0.41172222  0.57572810  1.02463872  1
  H+  H17  1  0.88214843  0.28624892  0.32239441  1
  H+  H18  1  0.38526733  0.90159881  0.34981436  1
  H+  H19  1  0.23607749  0.37069137  0.66164775  1
  H+  H20  1  0.11248210  0.87157144  0.66868042  1
  H+  H21  1  0.84665294  0.22118350  0.01885466  1
  H+  H22  1  0.38158004  0.23511930  0.67640965  1
  H+  H23  1  0.64486463  0.54674959  0.82644839  1
  H+  H24  1  0.13435021  0.52448665  0.17722938  1
  H+  H25  1  0.11626746  0.89556329  0.15741714  1
  H+  H26  1  0.42744492  0.83613901  0.93005483  1
  H+  H27  1  0.12184698  -0.01216311  0.33491483  1
  H+  H28  1  0.49872221  0.61058285  0.12496695  1
  H+  H29  1  0.71107889  0.94630766  0.87752142  1
  H+  H30  1  0.13814294  0.27368742  0.16567312  1
  H+  H31  1  -0.00511322  0.86408149  0.66887489  1
  H+  H32  1  0.27964499  0.68679218  0.67658361  1
  H+  H33  1  0.38837722  0.10425346  0.51036948  1
  H+  H34  1  0.70009055  0.59455222  0.35829294  1
  H+  H35  1  0.65845722  0.07730086  -0.05999686  1
  H+  H36  1  0.51518715  0.65177469  0.50263601  1
  H+  H37  1  0.73819743  0.35910478  0.17287270  1
  H+  H38  1  0.74508034  0.38761717  0.83094361  1
  H+  H39  1  0.87901954  0.24858015  0.50023368  1
  H+  H40  1  0.92164347  0.08528060  0.40733934  1
  H+  H41  1  0.53804550  0.40447898  0.82193384  1
  H+  H42  1  0.37613242  0.26453318  0.98898653  1
  H+  H43  1  0.87086979  0.52941930  0.83639002  1
  H+  H44  1  0.10144915  0.46893739  0.83269951  1
  H+  H45  1  0.84539158  0.91782364  0.73337910  1
  H+  H46  1  0.85588977  0.63677045  0.49441232  1
  H+  H47  1  0.12719566  0.90058772  0.33913930  1
  H+  H48  1  0.35255616  0.88801940  0.16896086  1
  H+  H49  1  0.86006041  0.63417083  0.00184877  1
  H+  H50  1  0.61078832  0.97440460  0.02064242  1
  H+  H51  1  0.11278731  0.23779950  0.81808753  1
  H+  H52  1  0.37728895  0.90486959  0.67163975  1
  H+  H53  1  0.89841699  0.76786459  0.97951477  1
  H+  H54  1  -0.01345692  0.87658796  0.15871481  1
  H+  H55  1  0.14216506  0.77362499  0.84031274  1
  H+  H56  1  0.75530060  0.12694005  0.68714909  1
  H+  H57  1  0.11106180  0.48638957  0.67071970  1
  H+  H58  1  0.65330920  0.87373977  0.66900877  1
  H+  H59  1  0.35236227  0.97761132  0.16367971  1
  H+  H60  1  0.52185786  0.39337603  0.99285822  1
  H+  H61  1  0.91369840  0.33921194  0.21972386  1
  H+  H62  1  0.46358481  0.64589562  0.31819953  1
  H+  H63  1  0.12528405  0.23924537  0.33716974  1
  H+  H64  1  0.62725418  0.35899319  0.50863507  1
  H+  H65  1  0.89018309  0.52805309  0.66071562  1
  H+  H66  1  0.32933107  0.62526615  0.51345851  1
  H+  H67  1  0.55427335  0.89128266  0.19580414  1
  H+  H68  1  0.87663977  1.00003596  0.16040902  1
  H+  H69  1  0.88165208  0.37422395  0.15811540  1
  H+  H70  1  0.63346264  0.91127931  0.50056741  1
  H+  H71  1  0.67771987  0.58706635  0.58773632  1
  H+  H72  1  0.12442894  0.89011415  0.00233134  1
  H+  H73  1  0.08370912  0.41686701  0.06961149  1
  H+  H74  1  0.61036551  0.89615127  0.82518242  1
  H+  H75  1  0.65565642  0.33408462  0.90662736  1
  H+  H76  1  0.37320075  0.69744393  0.76592370  1
  H+  H77  1  1.00115310  0.87313875  0.31803954  1
  H+  H78  1  0.63368181  0.27267970  0.50831015  1
  H+  H79  1  0.27455256  0.13987129  0.34358740  1
  H+  H80  1  0.57516635  0.03013888  0.62695203  1
  H+  H81  1  0.86699011  0.73115769  0.14982810  1
  H+  H82  1  0.08302469  0.18219524  0.75607517  1
  H+  H83  1  0.34103413  0.42005177  0.76281399  1
  H+  H84  1  -0.00711141  0.39197008  0.34167618  1
  H+  H85  1  0.41624301  0.08460703  0.60458599  1
  H+  H86  1  0.63127532  0.98338283  0.17660052  1
  H+  H87  1  0.37451610  0.84998398  0.51454621  1
  H+  H88  1  0.52798087  0.13358760  0.50577640  1
  H+  H89  1  0.09555646  0.63488956  0.99729615  1
  H+  H90  1  0.73330414  0.60051085  0.17458987  1
  H+  H91  1  0.23036737  0.85744495  -0.00621151  1
  H+  H92  1  0.11950916  0.48474779  0.49741120  1
  H+  H93  1  0.74249457  0.09708969  0.32700967  1
  H+  H94  1  0.52229580  0.14452083  0.67746805  1
  H+  H95  1  0.87085066  0.36865964  1.01733589  1
  H+  H96  1  0.41478637  0.51906210  0.11568444  1
  H+  H97  1  0.27875688  0.88444270  0.82463855  1
  H+  H98  1  0.72759904  0.10963748  0.84794182  1
  H+  H99  1  0.27230681  0.88468744  0.49715326  1
  H+  H100  1  0.62517461  0.40858702  0.82062484  1
  H+  H101  1  0.76463609  0.39715436  0.66840316  1
  H+  H102  1  0.02841743  0.37015862  0.83782552  1
  H+  H103  1  0.86234064  0.26764594  0.66454257  1
  H+  H104  1  0.87820594  0.62103364  0.83404968  1
  H+  H105  1  0.34646471  0.72016502  -0.00124914  1
  H+  H106  1  0.51464316  0.62818687  0.82918559  1
  H+  H107  1  0.06034643  0.46232934  0.43996586  1
  H+  H108  1  0.52174046  0.04840938  0.11181550  1
  H+  H109  1  0.21563939  0.10932777  0.98357328  1
  H+  H110  1  0.58885394  0.63248386  0.35412397  1
  H+  H111  1  0.50930032  0.69402903  0.68332588  1
  H+  H112  1  0.90500222  0.86496417  0.83228633  1
  H+  H113  1  0.24176167  0.37857639  0.50708856  1
  H+  H114  1  0.16880261  0.38379308  0.30883565  1
  H+  H115  1  0.62134545  0.14193395  0.50056798  1
  H+  H116  1  0.86553443  0.23032092  0.15960975  1
  H+  H117  1  0.09912265  0.63508792  0.83549966  1
  H+  H118  1  0.63654354  0.10437797  0.16880968  1
  H+  H119  1  0.27624989  0.53960390  0.62897662  1
  H+  H120  1  0.36018000  0.36922589  0.35367832  1
  H+  H121  1  0.74467075  0.13343830  0.51140386  1
  H+  H122  1  0.64491437  0.76898267  0.32657359  1
  H+  H123  1  0.37419842  0.14397327  0.15310659  1
  H+  H124  1  0.61441145  0.39329953  0.66634668  1
  H+  H125  1  0.81046075  0.71800146  0.35144487  1
  H+  H126  1  0.20387402  0.60228057  0.84757503  1
  H+  H127  1  0.22762549  0.85293565  0.65537664  1
  H+  H128  1  0.12225167  0.24271726  0.66267256  1
  H+  H129  1  0.87984406  0.97333729  0.34901148  1
  H+  H130  1  0.86170757  1.00382520  0.64927156  1
  H+  H131  1  0.12157369  0.51688296  0.99684342  1
  H+  H132  1  0.59674631  0.92811733  0.74600946  1
  H+  H133  1  0.97535013  0.39185423  0.51753650  1
  H+  H134  1  0.46564433  0.10338805  0.16822631  1
  H+  H135  1  0.13343251  0.70299063  0.65296550  1
  H+  H136  1  0.87274968  0.73670894  0.81490101  1
  H+  H137  1  0.63618514  1.02339302  0.83902164  1
  H+  H138  1  0.77073929  0.39636682  0.50658686  1
  H+  H139  1  0.91274973  0.35971368  0.79232842  1
  H+  H140  1  0.93496050  0.82807768  0.88868583  1
  H+  H141  1  0.62989182  0.35023641  0.32637620  1
  H+  H142  1  0.49583039  0.57892130  0.64237591  1
  H+  H143  1  0.38033987  0.46521860  0.66266709  1
  H+  H144  1  0.37633030  0.12990337  0.82139795  1
  H+  H145  1  0.62709614  -0.02107688  0.67930789  1
  H+  H146  1  0.87024189  0.11932782  0.83106048  1
  H+  H147  1  0.14995366  0.86557204  0.83412406  1
  H+  H148  1  0.10660115  0.72779415  0.17302523  1
  H+  H149  1  0.12122796  0.61693761  0.32797774  1
  H+  H150  1  -0.00154627  0.12588613  0.49994075  1
  H+  H151  1  0.25390583  0.56296361  0.76888892  1
  H+  H152  1  0.33018204  0.62473902  0.00722850  1
  H+  H153  1  0.37237260  0.77251066  0.16802466  1
  H+  H154  1  0.86036519  0.39830792  0.50940777  1
  H+  H155  1  0.87735038  0.89937871  0.15720811  1
  H+  H156  1  0.73473233  0.86784986  0.50887873  1
  H+  H157  1  0.37253696  0.89132962  0.82379739  1
  H+  H158  1  0.49874464  0.89163922  0.83567952  1
  H+  H159  1  0.61206072  0.48193292  -0.01493613  1
  H+  H160  1  0.88560388  0.88805386  0.33648978  1
  H+  H161  1  0.62070494  0.95943065  0.34597783  1
  H+  H162  1  0.63382095  0.28041746  0.66014873  1
  H+  H163  1  0.37850629  0.12516614  0.32269321  1
  H+  H164  1  0.52354279  0.88483724  0.35479672  1
  H+  H165  1  0.36459085  0.52143410  0.49676468  1
  H+  H166  1  0.49644626  0.36041100  0.35656600  1
  H+  H167  1  0.36473927  0.20761698  0.49566990  1
  H+  H168  1  0.49890276  0.88104443  0.66965734  1
  H+  H169  1  0.71883525  0.62001191  0.49388568  1
  H+  H170  1  0.03840834  0.88551823  0.81752333  1
  H+  H171  1  0.13452602  0.85828864  0.50321986  1
  H+  H172  1  0.22791132  0.10482911  0.50396502  1
  H+  H173  1  0.62787785  0.62150070  0.49811877  1
  H+  H174  1  0.12856289  0.97602936  0.81751622  1
  H+  H175  1  0.24873084  0.64003215  0.35679238  1
  H+  H176  1  0.85695062  0.48011520  0.32808874  1
  H+  H177  1  0.36480944  0.38727243  0.82296168  1
  H+  H178  1  0.76823384  0.38888496  0.33119373  1
  H+  H179  1  0.86751995  0.47019988  0.15525014  1
  H+  H180  1  -0.03190916  0.61440083  -0.01213302  1
  H+  H181  1  0.17715963  0.83888216  0.93118096  1
  H+  H182  1  0.88250511  0.16077566  0.49356476  1
  H+  H183  1  0.73333732  0.11896574  0.17258951  1
  H+  H184  1  0.13289792  0.76821113  0.50324947  1
  H+  H185  1  0.64586491  0.35144816  0.17579375  1
  H+  H186  1  0.90477952  0.33337612  1.06808452  1
  H+  H187  1  0.85782468  0.13703898  0.01052425  1
  H+  H188  1  0.38222827  0.51758146  0.84809773  1
  H+  H189  1  0.87505430  0.15493323  0.35186887  1
  H+  H190  1  0.80624822  0.92390307  0.01368753  1
  H+  H191  1  0.64208365  0.78121601  0.66403485  1
  H+  H192  1  0.37656725  0.13747976  0.67544589  1
  H+  H193  1  0.88774698  -0.01995781  0.82125572  1
  H+  H194  1  0.90269568  0.58103608  0.93155211  1
  H+  H195  1  0.23570859  0.64100849  0.57397192  1
  H+  H196  1  0.62096446  0.14035207  0.83005847  1
  H+  H197  1  0.61720307  0.45953271  0.17211614  1
  H+  H198  1  0.11552812  -0.02494523  0.99847652  1
  H+  H199  1  0.11552042  0.97512997  0.49183248  1
  H+  H200  1  0.09328220  0.92421617  0.09323931  1
  H+  H201  1  0.61037423  0.14583761  0.67120395  1
  H+  H202  1  0.24600583  0.36624959  0.32687582  1
  H+  H203  1  0.97639335  0.11207008  0.16066117  1
  H+  H204  1  0.72444176  0.37046715  -0.00341807  1
  H+  H205  1  0.32975910  0.71272774  0.51485852  1
  H+  H206  1  0.11023209  0.13728196  0.15284124  1
  H+  H207  1  0.48311850  0.10878720  0.83373478  1
  H+  H208  1  0.61703474  0.23823646  1.00691102  1
  H+  H209  1  0.39153812  1.01884197  0.83256622  1
  H+  H210  1  0.62504723  0.27205638  0.84626681  1
  H+  H211  1  0.35831031  0.13653013  -0.00739985  1
  H+  H212  1  0.41818868  0.79776649  0.83681726  1
  H+  H213  1  0.37253941  0.77102287  0.34065172  1
  H+  H214  1  0.22958346  0.12249949  0.16484876  1
  H+  H215  1  0.78699562  0.64207604  0.65676277  1
  H+  H216  1  1.03029162  0.15926396  0.65916438  1
  H+  H217  1  0.21912721  0.56079956  0.74887566  1
  H+  H218  1  0.38521504  0.22262792  0.82821632  1
  H+  H219  1  0.01620655  0.65064873  0.33585113  1
  H+  H220  1  0.40058140  0.80680193  0.67413575  1
  H+  H221  1  0.51234548  0.11832669  0.34866550  1
  H+  H222  1  0.65157106  0.53172392  0.64777254  1
  H+  H223  1  0.13392738  0.23686011  0.49421304  1
  H+  H224  1  -0.00392143  0.11917182  0.82957627  1
  H+  H225  1  0.01682642  0.64486921  0.83215304  1
  H+  H226  1  0.10568561  0.18397839  0.39902132  1
  H+  H227  1  0.52746913  0.37693526  0.18163115  1
  H+  H228  1  0.37584755  0.33043638  0.50927150  1
  H+  H229  1  0.39828864  0.45879645  0.49652157  1
  H+  H230  1  0.36051760  0.86861904  1.01199251  1
  H+  H231  1  0.01497798  0.38615433  0.01694771  1
  H+  H232  1  0.59118581  0.83535351  -0.00338634  1
  H+  H233  1  0.60913155  0.64766797  0.81638880  1
  H+  H234  1  0.47981520  0.13245851  -0.01428111  1
  H+  H235  1  0.90535924  0.34505593  0.75976391  1
  H+  H236  1  0.47415359  0.35068274  0.50975462  1
  H+  H237  1  0.59500134  0.71325563  0.00352379  1
  H+  H238  1  0.46448721  0.71675099  0.79008750  1
  H+  H239  1  0.66087225  0.33503168  0.59736215  1
  H+  H240  1  0.59701196  0.93510374  0.44197281  1
  H+  H241  1  0.87646817  0.37419811  0.31816632  1
  H+  H242  1  0.22891266  0.36699852  0.83837854  1
  H+  H243  1  0.63983758  0.56783208  0.41461923  1
  H+  H244  1  0.07257209  0.38413559  0.36806444  1
  H+  H245  1  0.64559814  0.61991168  0.98389452  1
  H+  H246  1  0.11629194  0.52607469  0.33340702  1
  H+  H247  1  0.10241784  0.21669414  0.00199199  1
  H+  H248  1  0.83060656  0.41945142  0.07524584  1
  H+  H249  1  0.88513311  0.61371145  0.16978307  1
  H+  H250  1  0.26487347  0.64717873  0.16217280  1
  H+  H251  1  0.14121442  0.12171479  0.32208373  1
  H+  H252  1  0.42185445  0.09498794  0.92584840  1
  H+  H253  1  0.14093363  0.36982580  0.83680334  1
  H+  H254  1  0.89386267  0.76945409  0.66228567  1
  H+  H255  1  0.61001455  0.73572643  0.49915882  1
  H+  H256  1  0.73217710  0.63614712  0.82473097  1
  H+  H257  1  0.38050026  0.03750605  0.31801136  1
  H+  H258  1  0.12772717  0.10679458  0.65165496  1
  H+  H259  1  0.98872888  0.12135828  0.35455125  1
  H+  H260  1  0.48310774  0.36342085  0.66152602  1
  H+  H261  1  0.38909249  0.01644826  0.51690653  1
  H+  H262  1  0.39369630  0.61111664  0.84948412  1
  H+  H263  1  0.16802321  0.82271825  0.59629165  1
  H+  H264  1  0.43614415  0.32111142  0.90726299  1
  H+  H265  1  0.12769892  0.14336840  0.49159262  1
  H+  H266  1  0.37090953  0.35076299  -0.01577719  1
  H+  H267  1  0.64742541  0.60008696  0.18332003  1
  H+  H268  1  0.23536017  0.10475075  0.83421529  1
  H+  H269  1  0.80372585  0.01786302  0.60348550  1
  H+  H270  1  0.10814278  0.63952956  0.17247005  1
  H+  H271  1  0.78193065  0.89206253  0.16534632  1
  H+  H272  1  0.20756285  0.61039375  0.99428748  1
  H+  H273  1  0.54339899  0.62382381  0.03861957  1
  H+  H274  1  0.88017705  0.52813515  0.51134128  1
  H+  H275  1  0.22055101  0.86826140  0.17726443  1
  H+  H276  1  0.38568768  0.36456136  0.18249478  1
  H+  H277  1  0.59642607  0.46496784  0.49351116  1
  H+  H278  1  0.89089517  0.86027262  0.50235309  1
  H+  H279  1  0.90560776  0.24338228  0.86290863  1
  H+  H280  1  0.79644072  0.90010336  0.83101968  1
  H+  H281  1  0.12142836  0.35507830  0.99159771  1
  H+  H282  1  0.63552922  0.73002378  0.16732047  1
  H+  H283  1  0.85503950  0.47692290  1.00918871  1
  H+  H284  1  0.14056133  0.78068392  0.33401150  1
  H+  H285  1  0.74200174  0.85048027  0.32673195  1
  H+  H286  1  0.37653864  0.64112987  0.32843519  1
  H+  H287  1  0.45290404  0.86448045  0.15282924  1
  H+  H288  1  0.92659771  0.30739635  0.91856224  1
  H+  H289  1  0.67448728  0.59916430  0.91976999  1
  H+  H290  1  0.69104542  0.82993523  0.23754836  1
  H+  H291  1  0.67906535  0.84250077  0.57029622  1
  H+  H292  1  0.00971447  0.13404044  0.00354023  1
  H+  H293  1  0.18189165  0.34096270  0.56511331  1
  H+  H294  1  0.17050263  0.09110849  0.26251158  1
  H+  H295  1  0.28175167  0.73859116  0.73420968  1
  H+  H296  1  0.83576201  0.15475725  0.77791860  1
  H+  H297  1  0.43526448  0.99605008  0.37666825  1
  H+  H298  1  0.83819548  0.67519154  0.75559091  1
  H+  H299  1  0.34369739  0.92206493  0.44352439  1
  H+  H300  1  0.02147376  0.38689916  0.15932602  1
  H+  H301  1  0.82546527  0.66959258  0.40667310  1
  H+  H302  1  0.94253611  0.07380647  0.89185146  1
  H+  H303  1  0.15301241  0.32836506  0.93057699  1
  H+  H304  1  0.31556012  0.67776264  0.09913399  1
  H+  H305  1  0.83464038  0.66920292  0.09225331  1
  H+  H306  1  0.92091039  0.77921821  0.31067972  1
  H+  H307  1  0.58989013  0.43104127  0.72414837  1
  H+  H308  1  -0.01051998  0.85476113  -0.01917980  1
  H+  H309  1  0.40830989  0.09252641  0.22902102  1
  H+  H310  1  0.33568712  0.92056425  0.73093589  1
  H+  H311  1  0.78216282  0.87990660  0.67559451  1
  H+  H312  1  -0.02520980  0.61584889  0.17807048  1
  H+  H313  1  0.56468006  0.39577800  0.43702010  1
  H+  H314  1  0.83944550  0.90975842  0.43295454  1
  H+  H315  1  0.87903718  0.64574786  0.66470420  1
  H+  H316  1  0.09227377  0.90899493  0.73021778  1
  H+  H317  1  0.75957336  0.91559660  0.92218199  1
  H+  H318  1  0.23340614  0.86652741  0.33514891  1
  H+  H319  1  0.59213329  0.17277309  0.77041966  1
  H+  H320  1  0.59047373  0.91685098  0.08112932  1
  H+  H321  1  0.43536516  0.56495807  0.58524425  1
  H+  H322  1  0.16740025  0.07373322  0.88831518  1
  H+  H323  1  0.10271543  0.72684243  -0.00526436  1
  H+  H324  1  0.39754225  0.57073955  0.95026123  1
  H+  H325  1  0.66080542  0.08826484  0.59110816  1
  H+  H326  1  0.41083987  0.32877512  0.29381944  1
  H+  H327  1  0.89791081  0.86667345  0.66920267  1
  H+  H328  1  0.17681955  0.33184786  0.22532754  1
  H+  H329  1  0.87350276  0.97822127  0.48683443  1
  H+  H330  1  0.47526205  0.84773190  0.99365234  1
  H+  H331  1  0.88556704  0.11182531  0.16603453  1
  H+  H332  1  -0.02223091  0.85711232  0.49934038  1
  H+  H333  1  0.83393069  0.38994692  0.82446954  1
  H+  H334  1  0.07094349  0.67064917  0.39793378  1
  H+  H335  1  0.35258679  0.17237315  0.74243739  1
  H+  H336  1  0.12739556  0.01786463  0.65328390  1
  H+  H337  1  0.14688691  0.57264291  0.90842143  1
  H+  H338  1  0.32634726  0.39197416  0.09162851  1
  H+  H339  1  0.07801270  0.16316546  0.09245500  1
  H+  H340  1  0.61310824  0.14613804  0.00307453  1
  H+  H341  1  0.65649602  0.03775384  0.50629052  1
  H+  H342  1  0.33238899  0.42427972  0.39934652  1
  H+  H343  1  0.16116802  0.58203102  0.23776232  1
  H+  H344  1  0.81563940  0.42526455  0.73098715  1
  H+  H345  1  0.58865831  0.45122066  0.35979626  1
  H+  H346  1  0.32198176  0.15602724  0.05350855  1
  H+  H347  1  0.15005870  0.37793387  0.65931474  1
  H+  H348  1  0.08948937  0.42628175  0.72922220  1
  H+  H349  1  0.92697245  0.14556052  0.94401378  1
  H+  H350  1  0.92249396  0.08442693  0.55070843  1
  H+  H351  1  0.55292089  0.12191786  0.41341809  1
  H+  H352  1  0.86208788  0.72966743  0.49253061  1
  H+  H353  1  0.56757697  0.67921116  0.40484456  1
  H+  H354  1  0.56791393  0.14327539  0.08994698  1
  H+  H355  1  0.08859638  0.91978484  0.43110787  1
  H+  H356  1  0.66856068  0.32786209  0.26783476  1
  H+  H357  1  0.40042288  0.23415964  0.12248092  1
  H+  H358  1  0.93155244  0.84472430  0.21943039  1
  H+  H359  1  0.91851281  0.59490388  0.56629260  1
  H+  H360  1  0.68478728  0.06541017  0.26825491  1
  H+  H361  1  0.36487714  0.23562738  0.35015202  1
  H+  H362  1  0.77495719  0.64065683  0.99742010  1
  H+  H363  1  0.98666525  0.60667020  0.65717178  1
  H+  H364  1  0.33389920  0.15398202  0.43341876  1
  H+  H365  1  0.29749841  0.66410322  0.42084563  1
  H+  H366  1  0.55975593  0.67289090  0.73356186  1
  H+  H367  1  0.82931010  0.16371018  0.10331378  1
  H+  H368  1  0.14401659  0.03080379  0.16446781  1
  H+  H369  1  0.08584878  0.61514001  0.48460007  1
  H+  H370  1  0.41357629  0.82842077  0.57168390  1
  H+  H371  1  0.16448570  0.84405467  0.23756159  1
  H+  H372  1  0.91253304  0.59405022  0.26175475  1
  H+  H373  1  0.16313955  0.07800245  0.56147225  1
  H+  H374  1  0.91187367  0.33991567  0.57415153  1
  H+  H375  1  0.12440712  0.10506700  0.98390739  1
  H+  H376  1  0.62617961  0.81840174  0.93591521  1
  H+  H377  1  0.40910389  0.82254934  0.27830672  1
  H+  H378  1  0.27942099  0.38716585  0.15300286  1
  H+  H379  1  0.32748602  0.89937561  0.06950886  1
  H+  H380  1  0.83754118  0.12141827  0.67245536  1
  H+  H381  1  0.62434665  0.67874967  0.10691633  1
  H+  H382  1  0.43358618  0.66763175  0.55588585  1
  H+  H383  1  0.71734467  0.10915995  -0.00039812  1
  O2-  O384  1  0.07864972  0.16631743  0.13849657  1
  O2-  O385  1  0.09987186  0.17669362  0.47708540  1
  O2-  O386  1  0.07939553  0.17889140  0.80098558  1
  O2-  O387  1  0.08390960  0.41903235  0.14612073  1
  O2-  O388  1  0.06713510  0.48239845  0.48303237  1
  O2-  O389  1  0.08075775  0.41102303  0.81447673  1
  O2-  O390  1  0.07406868  0.66683277  0.16097706  1
  O2-  O391  1  0.06989764  0.65890566  0.47619676  1
  O2-  O392  1  0.07839855  0.67336183  0.82073162  1
  O2-  O393  1  0.09081057  0.92887207  0.13899707  1
  O2-  O394  1  0.08686242  0.91452028  0.47621792  1
  O2-  O395  1  0.09853270  0.91444961  0.80110745  1
  O2-  O396  1  0.35024360  0.18029142  0.13506265  1
  O2-  O397  1  0.33344510  0.14816107  0.47962397  1
  O2-  O398  1  0.35034031  0.16621407  0.80717596  1
  O2-  O399  1  0.33765616  0.40716996  0.13564699  1
  O2-  O400  1  0.34916625  0.46262825  0.48206633  1
  O2-  O401  1  0.33772469  0.41941544  0.80902220  1
  O2-  O402  1  0.32288670  0.68347284  0.14387903  1
  O2-  O403  1  0.28948153  0.64856193  0.50770681  1
  O2-  O404  1  0.40623111  0.69982540  0.80306870  1
  O2-  O405  1  0.32138982  0.91592660  0.15131414  1
  O2-  O406  1  0.33534191  0.91634680  0.48870220  1
  O2-  O407  1  0.33879371  0.91750740  0.80711289  1
  O2-  O408  1  0.55127216  0.10660182  0.12810536  1
  O2-  O409  1  0.58586354  0.16754821  0.48688277  1
  O2-  O410  1  0.58991933  0.17075406  0.81574611  1
  O2-  O411  1  0.58216284  0.39801364  0.15990903  1
  O2-  O412  1  0.56690372  0.40264119  0.48501419  1
  O2-  O413  1  0.59587410  0.43814863  0.80333555  1
  O2-  O414  1  0.60773468  0.67063047  0.15036368  1
  O2-  O415  1  0.57543175  0.67538879  0.48445541  1
  O2-  O416  1  0.56624594  0.66504019  0.80442324  1
  O2-  O417  1  0.60057038  0.91932614  0.16601937  1
  O2-  O418  1  0.61012615  0.94794520  0.48711407  1
  O2-  O419  1  0.59048798  0.93358082  0.80909841  1
  O2-  O420  1  0.83510702  0.16701195  0.14894965  1
  O2-  O421  1  0.84826878  0.18814478  0.48331547  1
  O2-  O422  1  0.83802918  0.15041209  0.82275636  1
  O2-  O423  1  0.84229011  0.41248221  0.13707274  1
  O2-  O424  1  0.83278260  0.43203251  0.49749489  1
  O2-  O425  1  0.80392324  0.41989591  0.81181249  1
  O2-  O426  1  0.83766931  0.67004282  0.13791416  1
  O2-  O427  1  0.82630464  0.66741897  0.47771353  1
  O2-  O428  1  0.83397177  0.67545667  0.80072618  1
  O2-  O429  1  0.84274894  0.92835952  0.14636519  1
  O2-  O430  1  0.83853684  0.91597692  0.47821911  1
  O2-  O431  1  0.85038033  0.91846584  0.80775162  1
  O2-  O432  1  0.17093580  0.09104282  0.18120443  1
  O2-  O433  1  0.16603399  0.07944361  0.51537048  1
  O2-  O434  1  0.17392394  0.06942824  0.84374663  1
  O2-  O435  1  0.17094675  0.33433278  0.18033216  1
  O2-  O436  1  0.18301755  0.33605856  0.52010166  1
  O2-  O437  1  0.16888764  0.33738514  0.85319122  1
  O2-  O438  1  0.16358727  0.58465657  0.19252694  1
  O2-  O439  1  0.22125554  0.65738551  0.61491674  1
  O2-  O440  1  0.14468496  0.57089974  0.86158888  1
  O2-  O441  1  0.15996084  0.84187511  0.19267063  1
  O2-  O442  1  0.16493287  0.82817874  0.51874349  1
  O2-  O443  1  0.17986798  0.83622534  0.85167069  1
  O2-  O444  1  0.40667141  0.08610030  0.18274769  1
  O2-  O445  1  0.41961234  0.07796865  0.53112228  1
  O2-  O446  1  0.42132046  0.08059830  0.84607575  1
  O2-  O447  1  0.41045920  0.33569405  0.20742443  1
  O2-  O448  1  0.41359137  0.31273505  0.52791624  1
  O2-  O449  1  0.45910124  0.31437582  0.86595708  1
  O2-  O450  1  0.45067686  0.57598981  0.09641283  1
  O2-  O451  1  0.42156288  0.61627848  0.53326578  1
  O2-  O452  1  0.41257722  0.57396988  0.86935526  1
  O2-  O453  1  0.40937651  0.83573342  0.18419789  1
  O2-  O454  1  0.39451019  0.81082450  0.52947536  1
  O2-  O455  1  0.43650733  0.85595986  0.85245268  1
  O2-  O456  1  0.67263262  0.08342407  0.18780477  1
  O2-  O457  1  0.68333881  0.10008710  0.52448234  1
  O2-  O458  1  0.66603405  0.08361285  0.85902948  1
  O2-  O459  1  0.67956090  0.32502371  0.19096447  1
  O2-  O460  1  0.66068099  0.33257996  0.52489446  1
  O2-  O461  1  0.64610010  0.33222829  0.86053878  1
  O2-  O462  1  0.67706604  0.56865902  0.19530969  1
  O2-  O463  1  0.65529131  0.58435731  0.50098043  1
  O2-  O464  1  0.67172010  0.60718374  0.84062069  1
  O2-  O465  1  0.69249490  0.83653790  0.19039257  1
  O2-  O466  1  0.67522099  0.84194342  0.52520194  1
  O2-  O467  1  0.71806258  0.89681162  0.88536774  1
  O2-  O468  1  0.91538657  0.07854924  0.17603233  1
  O2-  O469  1  0.93394248  0.09336668  0.50659771  1
  O2-  O470  1  0.93541594  0.07747045  0.84792260  1
  O2-  O471  1  0.91592339  0.33714923  0.17472660  1
  O2-  O472  1  0.91708135  0.34476489  0.52837066  1
  O2-  O473  1  0.95271035  0.29213318  0.88572659  1
  O2-  O474  1  0.91196449  0.58392337  0.19064796  1
  O2-  O475  1  0.91296845  0.59288944  0.52123100  1
  O2-  O476  1  0.90508058  0.58881583  0.85185487  1
  O2-  O477  1  0.92578462  0.84702191  0.17463725  1
  O2-  O478  1  0.91719293  0.82514661  0.51348166  1
  O2-  O479  1  0.93475668  0.83239695  0.84194000  1
  O2-  O480  1  0.16840054  0.08814159  0.30774880  1
  O2-  O481  1  0.15513278  0.07545723  0.63484234  1
  O2-  O482  1  0.15564045  0.07629029  0.96779431  1
  O2-  O483  1  0.18494581  0.33993698  0.30440300  1
  O2-  O484  1  0.17654307  0.34331553  0.64481704  1
  O2-  O485  1  0.14893339  0.32248975  0.97587806  1
  O2-  O486  1  0.15190786  0.58523575  0.31717557  1
  O2-  O487  1  0.13171410  0.59525966  0.62872419  1
  O2-  O488  1  0.14720925  0.57539261  0.97814687  1
  O2-  O489  1  0.17480510  0.84243176  0.31983072  1
  O2-  O490  1  0.16728061  0.81622120  0.64165780  1
  O2-  O491  1  0.17120072  0.83593146  0.97632283  1
  O2-  O492  1  0.40612595  0.09541348  0.30021062  1
  O2-  O493  1  0.41715258  0.08795307  0.65081385  1
  O2-  O494  1  0.42035998  0.10613621  0.96977400  1
  O2-  O495  1  0.40744717  0.32197281  0.33832750  1
  O2-  O496  1  0.42037720  0.32381942  0.65063264  1
  O2-  O497  1  0.40733374  0.32502808  0.97303069  1
  O2-  O498  1  0.41096679  0.63441195  0.29665052  1
  O2-  O499  1  0.44956652  0.53311807  0.61825336  1
  O2-  O500  1  0.36939421  0.55791450  0.99081236  1
  O2-  O501  1  0.40957051  0.82929491  0.32257476  1
  O2-  O502  1  0.43984952  0.86109775  0.65264787  1
  O2-  O503  1  0.41813923  0.82167783  0.97440298  1
  O2-  O504  1  0.69834928  0.04522201  0.30594073  1
  O2-  O505  1  0.63491159  0.07345291  0.63488696  1
  O2-  O506  1  0.65595945  0.07875077  0.98533992  1
  O2-  O507  1  0.66776457  0.32836395  0.31350788  1
  O2-  O508  1  0.66226061  0.33992002  0.64356200  1
  O2-  O509  1  0.66474339  0.33798306  0.97861318  1
  O2-  O510  1  0.63865228  0.56526106  0.36971983  1
  O2-  O511  1  0.68943183  0.59034654  0.63164561  1
  O2-  O512  1  0.67361712  0.58980060  0.96449922  1
  O2-  O513  1  0.68702744  0.82216133  0.30458910  1
  O2-  O514  1  0.68159690  0.84209987  0.65155992  1
  O2-  O515  1  0.58508203  0.78873756  0.96921944  1
  O2-  O516  1  0.92530243  0.08544352  0.36296608  1
  O2-  O517  1  0.85924996  0.04939163  0.62396159  1
  O2-  O518  1  0.91818901  0.11007864  0.97976064  1
  O2-  O519  1  0.91241772  0.34558092  0.30567385  1
  O2-  O520  1  0.89077237  0.32516547  0.64635705  1
  O2-  O521  1  0.90293159  0.33415203  1.02356444  1
  O2-  O522  1  0.91607918  0.59849120  0.30829127  1
  O2-  O523  1  0.92662868  0.58864451  0.64601575  1
  O2-  O524  1  0.90440825  0.57922052  0.97671141  1
  O2-  O525  1  0.94096890  0.83903400  0.29994774  1
  O2-  O526  1  0.92925858  0.83569973  0.65507640  1
  O2-  O527  1  0.93393346  0.82411563  0.95882510  1
  O2-  O528  1  0.07241685  0.15637189  0.01707862  1
  O2-  O529  1  0.09687609  0.17948407  0.35382007  1
  O2-  O530  1  0.08775624  0.17994848  0.67517368  1
  O2-  O531  1  0.07822800  0.41436418  0.02383016  1
  O2-  O532  1  0.05136094  0.42426816  0.36587306  1
  O2-  O533  1  0.10151306  0.43052851  0.68515698  1
  O2-  O534  1  0.06458726  0.66593362  0.00657031  1
  O2-  O535  1  0.07648930  0.67803748  0.35272156  1
  O2-  O536  1  0.10345682  0.64209260  0.66893365  1
  O2-  O537  1  0.09100990  0.91730475  0.01808416  1
  O2-  O538  1  0.09191995  0.92713995  0.35083003  1
  O2-  O539  1  0.08384426  0.90339867  0.68388332  1
  O2-  O540  1  0.32102323  0.16053214  0.00879777  1
  O2-  O541  1  0.33329885  0.16638927  0.36064998  1
  O2-  O542  1  0.35139557  0.17321522  0.69405135  1
  O2-  O543  1  0.31048831  0.38878559  0.01302616  1
  O2-  O544  1  0.32649324  0.40200942  0.35783766  1
  O2-  O545  1  0.34047957  0.41247530  0.68856032  1
  O2-  O546  1  0.30719845  0.66338027  0.01803221  1
  O2-  O547  1  0.30586006  0.67449256  0.37661144  1
  O2-  O548  1  0.31667417  0.71972423  0.71254387  1
  O2-  O549  1  0.32672906  0.89548926  0.02472749  1
  O2-  O550  1  0.37494664  0.94636750  0.36896591  1
  O2-  O551  1  0.33676000  0.92453570  0.68517919  1
  O2-  O552  1  0.58331531  0.17609215  0.01942778  1
  O2-  O553  1  0.52890228  0.08626858  0.37631599  1
  O2-  O554  1  0.58368522  0.17665150  0.69099205  1
  O2-  O555  1  0.58431327  0.42134324  -0.00084548  1
  O2-  O556  1  0.56178500  0.38964768  0.37063951  1
  O2-  O557  1  0.58419684  0.42525825  0.67907744  1
  O2-  O558  1  0.60114187  0.66639553  0.02429510  1
  O2-  O559  1  0.57027268  0.67528735  0.35968156  1
  O2-  O560  1  0.55720037  0.68370401  0.68809380  1
  O2-  O561  1  0.58230758  0.91453507  0.03658516  1
  O2-  O562  1  0.58136413  0.91043768  0.37242442  1
  O2-  O563  1  0.59966639  0.92084404  0.69681113  1
  O2-  O564  1  0.81807551  0.15862347  0.02784381  1
  O2-  O565  1  0.84250323  0.18510681  0.35860118  1
  O2-  O566  1  0.81645406  0.15359306  0.69672643  1
  O2-  O567  1  0.82291016  0.41726666  0.02559256  1
  O2-  O568  1  0.83180483  0.41987240  0.34096231  1
  O2-  O569  1  0.82389906  0.42663717  0.68632235  1
  O2-  O570  1  0.83380841  0.66957704  0.01549360  1
  O2-  O571  1  0.81824870  0.66929202  0.36014205  1
  O2-  O572  1  0.84647839  0.67578495  0.67578342  1
  O2-  O573  1  0.82606425  0.94680078  -0.02681910  1
  O2-  O574  1  0.85079203  0.91021184  0.35601926  1
  O2-  O575  1  0.84474533  0.91393722  0.68734853  1
