# generated using pymatgen
data_H2O
_symmetry_space_group_name_H-M   'P 1'
_cell_length_a   17.97898327
_cell_length_b   17.98190986
_cell_length_c   21.99070131
_cell_angle_alpha   89.99215218
_cell_angle_beta   89.99346104
_cell_angle_gamma   119.99166827
_symmetry_Int_Tables_number   1
_chemical_formula_structural   H2O
_chemical_formula_sum   'H384 O192'
_cell_volume   6157.53795927
_cell_formula_units_Z   192
loop_
 _symmetry_equiv_pos_site_id
 _symmetry_equiv_pos_as_xyz
  1  'x, y, z'
loop_
 _atom_type_symbol
 _atom_type_oxidation_number
  H+  1.0
  O2-  -2.0
loop_
 _atom_site_type_symbol
 _atom_site_label
 _atom_site_symmetry_multiplicity
 _atom_site_fract_x
 _atom_site_fract_y
 _atom_site_fract_z
 _atom_site_occupancy
  H+  H0  1  0.98876346  0.38219545  0.84603455  1
  H+  H1  1  0.30179325  0.58805848  0.47021676  1
  H+  H2  1  0.90994271  0.00306548  0.18579904  1
  H+  H3  1  0.02023717  0.94944876  -0.06790609  1
  H+  H4  1  0.85273322  0.62439312  0.15525370  1
  H+  H5  1  0.19621122  0.63604363  0.55200732  1
  H+  H6  1  0.61253724  -0.03203916  1.02874110  1
  H+  H7  1  0.36635147  0.63868406  0.82845778  1
  H+  H8  1  0.94121308  0.16829841  0.52962496  1
  H+  H9  1  0.32458727  0.67274055  0.39619347  1
  H+  H10  1  0.83216505  0.10180961  0.19961915  1
  H+  H11  1  0.86540093  0.83842236  0.17255981  1
  H+  H12  1  0.93863163  0.85482117  0.98896632  1
  H+  H13  1  0.91911198  0.58026161  0.09923215  1
  H+  H14  1  0.39709140  0.04434171  0.50878912  1
  H+  H15  1  0.34163981  0.77077803  0.32339836  1
  H+  H16  1  0.34515849  0.42109677  0.09931126  1
  H+  H17  1  0.36523714  0.97642030  0.66494370  1
  H+  H18  1  0.13114964  0.11550233  0.85185161  1
  H+  H19  1  0.87401721  0.28173504  0.33036551  1
  H+  H20  1  0.10805076  -0.03065430  0.67275380  1
  H+  H21  1  0.18390459  0.93139931  -0.01024516  1
  H+  H22  1  0.12907577  0.07780797  0.49319965  1
  H+  H23  1  0.08999017  0.70705336  0.33028080  1
  H+  H24  1  0.37520564  0.37162914  1.01401270  1
  H+  H25  1  0.00391228  0.19097526  0.18192328  1
  H+  H26  1  0.86151753  0.15214429  0.35055710  1
  H+  H27  1  0.98906162  0.15401722  0.16030569  1
  H+  H28  1  0.47522650  0.11013017  0.82765881  1
  H+  H29  1  0.39867406  0.53604626  0.83507172  1
  H+  H30  1  0.38982119  0.11489579  0.65334532  1
  H+  H31  1  0.89127160  0.12782687  0.99540552  1
  H+  H32  1  0.38531307  0.50051296  -0.00204498  1
  H+  H33  1  0.88618422  0.28002566  0.17849136  1
  H+  H34  1  0.61812276  0.49997155  0.48655540  1
  H+  H35  1  0.63215304  0.12441788  0.17668922  1
  H+  H36  1  0.70234290  0.09639064  0.64602617  1
  H+  H37  1  0.08229108  0.89734302  0.41264041  1
  H+  H38  1  0.39057258  0.12196876  0.33071443  1
  H+  H39  1  0.89623833  0.27161193  1.00098442  1
  H+  H40  1  0.36934920  0.39620243  0.81371810  1
  H+  H41  1  0.66363712  0.33908002  0.62756742  1
  H+  H42  1  0.07944607  0.66444171  0.06059266  1
  H+  H43  1  0.13580914  0.76880346  0.16107591  1
  H+  H44  1  0.91539074  0.20195399  0.05814258  1
  H+  H45  1  0.90552413  0.81563918  0.51616539  1
  H+  H46  1  0.60128136  0.42711845  0.39776319  1
  H+  H47  1  0.36268582  0.72704828  0.82214600  1
  H+  H48  1  0.38246239  0.02022193  0.17504470  1
  H+  H49  1  0.99284438  0.31926715  0.52649953  1
  H+  H50  1  0.72092422  0.63158081  0.66395716  1
  H+  H51  1  0.88799785  0.38241974  0.55860134  1
  H+  H52  1  0.54504873  0.40122460  0.48796990  1
  H+  H53  1  0.38722867  0.67323535  0.34521282  1
  H+  H54  1  0.08480625  0.41980446  0.06530539  1
  H+  H55  1  0.62181867  0.20593850  0.00175293  1
  H+  H56  1  -0.03020106  0.85562660  0.67180653  1
  H+  H57  1  0.38658699  0.54609849  0.33132198  1
  H+  H58  1  0.27680761  0.13395899  0.65663103  1
  H+  H59  1  0.02522475  0.38751776  0.00640012  1
  H+  H60  1  -0.03521693  0.61365473  0.33453253  1
  H+  H61  1  0.62602372  0.63038320  0.49890815  1
  H+  H62  1  0.85773285  0.48336263  0.83420434  1
  H+  H63  1  0.52777983  0.37863070  0.17481371  1
  H+  H64  1  0.42272756  0.83706668  0.88850055  1
  H+  H65  1  0.12895786  0.85579258  0.16872251  1
  H+  H66  1  0.39588652  0.27699198  0.49607196  1
  H+  H67  1  0.87842655  0.33669841  0.70064569  1
  H+  H68  1  0.47834687  0.63679903  0.32569510  1
  H+  H69  1  0.84069000  0.36146014  0.55166084  1
  H+  H70  1  0.03288849  0.63181974  0.15003771  1
  H+  H71  1  0.13665446  0.10652400  0.32863845  1
  H+  H72  1  0.38601688  0.27264320  0.82070398  1
  H+  H73  1  0.72501316  0.37423834  0.68170519  1
  H+  H74  1  0.40291896  0.13970803  0.98313933  1
  H+  H75  1  0.89384431  0.08617429  0.28928975  1
  H+  H76  1  0.60401584  0.73171321  0.15770947  1
  H+  H77  1  0.64551858  0.47888398  0.33791940  1
  H+  H78  1  0.48043971  0.62286057  0.86221813  1
  H+  H79  1  0.82449324  0.91527952  0.40025188  1
  H+  H80  1  0.60907727  0.47131943  0.83751706  1
  H+  H81  1  0.61606825  0.12056879  0.02128880  1
  H+  H82  1  0.87344846  0.60858800  0.67337201  1
  H+  H83  1  0.72500913  0.62935457  0.18401096  1
  H+  H84  1  0.76892856  0.14709527  0.34078201  1
  H+  H85  1  0.35109554  0.66471402  0.74395262  1
  H+  H86  1  0.13167684  0.53030383  0.82862300  1
  H+  H87  1  0.56025500  0.86762991  0.46861208  1
  H+  H88  1  0.84054013  0.99162782  0.49811363  1
  H+  H89  1  0.91585024  0.69451263  0.49955281  1
  H+  H90  1  0.58585456  0.67793907  0.93346245  1
  H+  H91  1  1.00690426  0.63363105  0.70694442  1
  H+  H92  1  0.38184315  0.52432288  0.49614765  1
  H+  H93  1  0.52290681  0.13924993  0.34159708  1
  H+  H94  1  0.16922784  0.78050440  0.46344114  1
  H+  H95  1  1.03022927  0.89702845  0.83473825  1
  H+  H96  1  -0.02181423  0.12620186  0.33404094  1
  H+  H97  1  0.28599375  0.40030402  0.15861425  1
  H+  H98  1  0.13914702  0.27828146  0.64278486  1
  H+  H99  1  0.28284937  0.37614395  0.00971610  1
  H+  H100  1  0.58482380  0.49509859  0.67948573  1
  H+  H101  1  0.87896473  0.09661415  0.65700066  1
  H+  H102  1  0.35777985  0.88679445  0.15729420  1
  H+  H103  1  0.37761407  0.14901469  0.81118444  1
  H+  H104  1  0.87541429  0.50553343  0.14625756  1
  H+  H105  1  0.46307901  0.85988631  0.17356618  1
  H+  H106  1  0.38807066  0.73652474  0.68668090  1
  H+  H107  1  0.86464152  0.52016149  0.33505079  1
  H+  H108  1  0.38982938  0.13559051  0.50132318  1
  H+  H109  1  0.43968407  0.84956121  0.73451343  1
  H+  H110  1  0.34698687  -0.10997865  0.34278270  1
  H+  H111  1  0.88942240  0.03521806  0.99168427  1
  H+  H112  1  0.82759962  0.62629702  0.82175866  1
  H+  H113  1  0.29077721  0.90550663  0.39068057  1
  H+  H114  1  0.74949082  0.11552020  1.01697916  1
  H+  H115  1  0.64308372  0.85125258  0.83372824  1
  H+  H116  1  0.75201651  0.17084715  0.85846133  1
  H+  H117  1  0.17445786  0.58342395  0.09346244  1
  H+  H118  1  0.84257004  0.72013915  0.67827992  1
  H+  H119  1  0.10365138  0.63331531  0.50091330  1
  H+  H120  1  0.76273248  0.39006784  0.33640002  1
  H+  H121  1  0.88764909  0.01173417  0.65960585  1
  H+  H122  1  0.91292586  0.09791498  0.90030694  1
  H+  H123  1  0.46012190  0.37033840  0.65454415  1
  H+  H124  1  0.18188592  0.58594787  0.38501484  1
  H+  H125  1  0.78348211  0.89988078  0.82914764  1
  H+  H126  1  0.61674301  0.76289448  0.33042093  1
  H+  H127  1  0.02269379  0.87390126  0.32452057  1
  H+  H128  1  0.86944882  0.88549111  0.68112090  1
  H+  H129  1  0.10624935  0.88195195  0.68881915  1
  H+  H130  1  0.38339109  0.26978842  0.16984665  1
  H+  H131  1  0.14869158  0.16065704  0.15200294  1
  H+  H132  1  0.66848275  0.76284244  0.63004884  1
  H+  H133  1  0.82576209  0.17180168  0.11111925  1
  H+  H134  1  0.88889767  0.86550567  0.32915134  1
  H+  H135  1  0.25177325  0.38134389  0.33008272  1
  H+  H136  1  0.14707826  0.13178759  -0.00385961  1
  H+  H137  1  0.63933465  0.35955873  0.32639629  1
  H+  H138  1  0.09915507  0.62620135  0.00084249  1
  H+  H139  1  0.67714237  0.30273633  0.91526650  1
  H+  H140  1  0.85775522  0.73137011  0.34197973  1
  H+  H141  1  0.96774208  0.60721683  0.99252949  1
  H+  H142  1  0.16391032  0.86412061  0.45839573  1
  H+  H143  1  0.36149551  0.22798132  0.65478907  1
  H+  H144  1  0.14318157  0.29389740  0.49616393  1
  H+  H145  1  0.82513288  0.11962444  0.48648078  1
  H+  H146  1  0.87899212  0.75934301  0.17738953  1
  H+  H147  1  0.60432188  0.11332010  0.65813548  1
  H+  H148  1  0.91142783  0.34290514  0.27127426  1
  H+  H149  1  0.61919269  0.14681709  0.82315580  1
  H+  H150  1  0.29054459  0.14544045  0.48833565  1
  H+  H151  1  0.75762745  0.62306866  0.00782767  1
  H+  H152  1  0.14488630  0.37456521  0.99441300  1
  H+  H153  1  0.36100664  0.63892621  0.16013395  1
  H+  H154  1  0.48496495  0.12773975  -0.01842756  1
  H+  H155  1  0.50864698  0.61499791  1.00558506  1
  H+  H156  1  0.13630128  0.23414047  0.33834029  1
  H+  H157  1  0.15331644  0.75629873  0.97827379  1
  H+  H158  1  0.39771407  0.52871361  0.65544441  1
  H+  H159  1  0.12291752  0.17831090  0.53217251  1
  H+  H160  1  0.08815739  0.37009349  0.35274898  1
  H+  H161  1  0.15149259  0.29529907  0.84555785  1
  H+  H162  1  0.37274408  0.23422415  0.01697116  1
  H+  H163  1  0.65108205  0.77449189  0.86707982  1
  H+  H164  1  0.86908959  0.39994851  0.83834119  1
  H+  H165  1  0.94237791  0.99751789  0.16763977  1
  H+  H166  1  0.38998688  0.36276331  0.16882772  1
  H+  H167  1  0.97739915  0.62569879  0.51644233  1
  H+  H168  1  0.33902712  0.92731728  0.72966337  1
  H+  H169  1  0.52598489  0.88268668  0.00647652  1
  H+  H170  1  0.87023864  -0.01531861  0.34913789  1
  H+  H171  1  0.37574206  0.77040219  0.17119143  1
  H+  H172  1  0.39195027  0.52806441  0.17345559  1
  H+  H173  1  0.84248020  0.19651192  0.67976790  1
  H+  H174  1  0.64032969  0.07248629  0.58677572  1
  H+  H175  1  0.13716878  0.02975579  0.84705134  1
  H+  H176  1  0.11374220  0.48682830  0.14623336  1
  H+  H177  1  0.61808770  -0.02871879  0.48442747  1
  H+  H178  1  0.27034368  0.88851730  0.15391090  1
  H+  H179  1  0.63488126  0.36005647  0.18013288  1
  H+  H180  1  0.84279145  0.87812323  0.00232409  1
  H+  H181  1  0.12489433  0.63131611  0.14069964  1
  H+  H182  1  0.08719145  0.45714016  0.67582902  1
  H+  H183  1  0.63143670  0.35900040  0.83418567  1
  H+  H184  1  0.95939243  0.61797593  0.83524778  1
  H+  H185  1  0.64803187  0.03312574  0.32366230  1
  H+  H186  1  0.27486681  0.39744763  0.66173503  1
  H+  H187  1  0.88925391  0.04335405  0.83813629  1
  H+  H188  1  0.72219882  0.36128226  0.83016953  1
  H+  H189  1  0.87888631  0.51577647  -0.00947856  1
  H+  H190  1  0.69828469  0.10348060  0.50070399  1
  H+  H191  1  0.86803945  0.38266909  0.00545768  1
  H+  H192  1  0.97658481  0.36983190  0.17542336  1
  H+  H193  1  0.27879483  0.13424301  0.34743349  1
  H+  H194  1  0.35846175  0.82083290  0.26021520  1
  H+  H195  1  0.02621500  0.14820510  0.00048135  1
  H+  H196  1  0.96377185  0.33020399  0.69731553  1
  H+  H197  1  0.14124265  0.38145775  0.50417102  1
  H+  H198  1  0.72111037  0.46323252  0.47343882  1
  H+  H199  1  0.62464386  0.60227435  0.99574516  1
  H+  H200  1  0.09965680  0.58707523  0.67454985  1
  H+  H201  1  0.35982915  0.39042018  0.65907052  1
  H+  H202  1  0.87476352  0.55867778  0.51568282  1
  H+  H203  1  0.71650507  0.36048880  0.52508026  1
  H+  H204  1  0.90841308  0.83714654  0.61354111  1
  H+  H205  1  0.63097057  0.90363760  0.32064021  1
  H+  H206  1  0.11112075  0.87076153  0.32097064  1
  H+  H207  1  0.60240437  0.55468357  0.32985212  1
  H+  H208  1  0.89547486  0.24548310  0.52071391  1
  H+  H209  1  0.64582246  0.89696203  0.98791197  1
  H+  H210  1  0.13655177  0.01704176  0.32281784  1
  H+  H211  1  0.87743214  0.16526699  0.82091148  1
  H+  H212  1  0.22868770  0.10878742  0.17215873  1
  H+  H213  1  0.36805175  0.42534942  0.34044205  1
  H+  H214  1  0.61439632  0.63777857  0.87735973  1
  H+  H215  1  0.52045729  0.38318451  0.83122198  1
  H+  H216  1  0.63317190  0.26871894  0.17580042  1
  H+  H217  1  0.11417353  0.39741027  0.16021687  1
  H+  H218  1  0.63855562  0.63635660  0.18063315  1
  H+  H219  1  0.51992777  0.63966543  0.15642059  1
  H+  H220  1  0.21719072  0.62071895  0.82847091  1
  H+  H221  1  0.36217776  0.13414064  0.16292087  1
  H+  H222  1  0.51443451  0.13519920  0.16127475  1
  H+  H223  1  0.31025685  0.90442261  0.49195012  1
  H+  H224  1  0.73439297  0.84390501  0.15331274  1
  H+  H225  1  0.60915259  0.46960618  0.02354835  1
  H+  H226  1  0.24194000  0.38288230  0.83465373  1
  H+  H227  1  0.26874629  0.63508053  0.14906038  1
  H+  H228  1  0.27509566  0.65639039  1.00594518  1
  H+  H229  1  0.75962079  0.15007409  0.16803892  1
  H+  H230  1  0.02739937  0.84111769  0.46860100  1
  H+  H231  1  0.29496286  0.87813532  -0.00433544  1
  H+  H232  1  0.61029967  0.22702552  0.81035784  1
  H+  H233  1  0.16571111  0.91574996  1.02086382  1
  H+  H234  1  0.10156225  0.48134321  0.51128665  1
  H+  H235  1  0.36210135  0.98004254  0.82309222  1
  H+  H236  1  0.39488922  0.64420272  0.67693719  1
  H+  H237  1  0.60816919  0.10000377  0.50060655  1
  H+  H238  1  0.76237860  0.37402624  0.15927639  1
  H+  H239  1  0.61877200  0.67501863  0.34163952  1
  H+  H240  1  0.64634720  0.26182320  0.52468026  1
  H+  H241  1  0.10529550  0.50518859  0.35602191  1
  H+  H242  1  0.60416025  0.56669519  0.81755988  1
  H+  H243  1  0.85927102  0.75651005  -0.00340518  1
  H+  H244  1  0.22217249  0.85934491  0.68157504  1
  H+  H245  1  0.68675824  0.90675098  0.48795071  1
  H+  H246  1  0.44339796  0.76260251  0.43142187  1
  H+  H247  1  0.01805269  0.12816744  0.65109490  1
  H+  H248  1  0.64002882  0.11997626  0.33175556  1
  H+  H249  1  0.13510067  0.86336851  0.83265127  1
  H+  H250  1  0.76764744  0.64613938  0.35454781  1
  H+  H251  1  0.13521391  0.77196909  0.69727146  1
  H+  H252  1  0.08177007  0.61590035  0.34998802  1
  H+  H253  1  0.51664957  0.14514196  0.49692192  1
  H+  H254  1  0.74209535  0.33016734  0.97252529  1
  H+  H255  1  0.01964590  0.15335239  0.84320861  1
  H+  H256  1  0.27284470  0.88901467  0.81837373  1
  H+  H257  1  0.35401248  0.26448450  0.32306456  1
  H+  H258  1  0.50795829  0.12050221  0.66386715  1
  H+  H259  1  0.66439313  0.60709151  0.27330213  1
  H+  H260  1  0.49329640  0.60947308  0.64983103  1
  H+  H261  1  0.52232192  0.38163364  1.03323163  1
  H+  H262  1  0.87257508  0.23139833  0.77066049  1
  H+  H263  1  0.09879508  0.63071039  0.80315751  1
  H+  H264  1  0.39820661  0.36857831  0.49361977  1
  H+  H265  1  0.28743528  0.40066930  0.48432741  1
  H+  H266  1  0.78254901  0.88567340  0.66995807  1
  H+  H267  1  0.84884049  0.62674100  1.00793594  1
  H+  H268  1  0.62892341  0.86330391  0.65573160  1
  H+  H269  1  0.12514711  0.40243916  0.82913361  1
  H+  H270  1  0.61375038  0.22664364  0.34159273  1
  H+  H271  1  0.41587564  0.33775998  0.58787800  1
  H+  H272  1  0.40836259  0.87780244  -0.01388327  1
  H+  H273  1  0.16362493  0.29759881  0.16676349  1
  H+  H274  1  0.89895802  0.29511641  0.84638206  1
  H+  H275  1  0.74815366  0.90692216  0.98654682  1
  H+  H276  1  0.13226321  0.52132673  -0.01305045  1
  H+  H277  1  0.70558358  0.84112605  0.58140780  1
  H+  H278  1  0.87030522  0.61874146  0.33860197  1
  H+  H279  1  0.01827323  0.88213727  0.16809448  1
  H+  H280  1  0.12880580  -0.01061547  0.49184642  1
  H+  H281  1  0.28150318  0.14367436  0.01170311  1
  H+  H282  1  0.73406960  0.62017718  0.82317624  1
  H+  H283  1  0.21630292  0.59349703  0.48133409  1
  H+  H284  1  0.72363727  0.87113435  0.31127827  1
  H+  H285  1  0.62570426  0.86023812  0.16835540  1
  H+  H286  1  0.54797468  0.87701494  0.66219130  1
  H+  H287  1  0.90060850  0.89176924  0.84437448  1
  H+  H288  1  0.57838866  0.17014720  0.43727421  1
  H+  H289  1  0.08461722  0.41567747  0.76790833  1
  H+  H290  1  0.83984249  0.93129487  0.76847493  1
  H+  H291  1  0.38662551  0.31985868  0.88295418  1
  H+  H292  1  0.10542006  0.37786706  0.67193848  1
  H+  H293  1  0.33488895  0.16337515  0.10132913  1
  H+  H294  1  0.85635852  0.40147136  0.34540660  1
  H+  H295  1  0.16941742  0.08451539  0.23133570  1
  H+  H296  1  0.18092519  0.35387328  0.93402422  1
  H+  H297  1  0.41801313  0.59147597  0.23204475  1
  H+  H298  1  0.12103202  0.19289032  0.09219939  1
  H+  H299  1  0.65444810  0.60076112  0.55790232  1
  H+  H300  1  0.59086293  0.41468467  0.11842180  1
  H+  H301  1  0.18854902  0.34759357  0.23005866  1
  H+  H302  1  0.03002301  0.13870172  0.50400509  1
  H+  H303  1  0.08472836  0.92500875  0.77325876  1
  H+  H304  1  0.06442934  0.65341228  0.43891989  1
  H+  H305  1  0.06882802  0.42045624  0.45176733  1
  H+  H306  1  0.59162015  0.87858965  0.75130821  1
  H+  H307  1  0.56107544  0.43067751  0.73484536  1
  H+  H308  1  0.81124333  0.16912616  0.43231882  1
  H+  H309  1  0.34960943  0.17792750  0.74976407  1
  H+  H310  1  0.65980122  0.83832386  0.23519157  1
  H+  H311  1  0.39066675  0.86588278  0.68225884  1
  H+  H312  1  0.84128507  0.41953862  0.74512843  1
  H+  H313  1  0.66891930  0.10186416  0.23668021  1
  H+  H314  1  0.39949985  0.78607250  0.98657197  1
  H+  H315  1  0.38998708  0.03282180  0.33494057  1
  H+  H316  1  0.20164198  0.79176067  0.56035091  1
  H+  H317  1  0.40492645  0.58687532  0.55422161  1
  H+  H318  1  0.41314009  0.08013361  0.23566918  1
  H+  H319  1  0.22680317  0.59116460  0.27725120  1
  H+  H320  1  0.08354882  0.18421858  0.78818243  1
  H+  H321  1  0.33595956  0.68379987  0.06402339  1
  H+  H322  1  0.92113421  0.59766702  0.61722668  1
  H+  H323  1  0.81000893  0.89887231  0.06325678  1
  H+  H324  1  0.37908647  0.31717628  0.25999848  1
  H+  H325  1  0.49077353  0.73875797  0.48077345  1
  H+  H326  1  0.87034597  0.88017470  0.52541944  1
  H+  H327  1  0.70771823  0.20436924  0.90567558  1
  H+  H328  1  0.68794251  0.87493800  0.91878573  1
  H+  H329  1  0.08406385  1.00001878  -0.01431057  1
  H+  H330  1  0.10790922  0.97016479  0.16566873  1
  H+  H331  1  0.90842175  0.58978373  0.89902275  1
  H+  H332  1  0.15586219  0.80831252  0.25111443  1
  H+  H333  1  0.57873867  0.66611441  0.05801059  1
  H+  H334  1  0.25969858  0.60824977  0.25214299  1
  H+  H335  1  0.52874756  0.85812540  0.81034134  1
  H+  H336  1  0.34303505  0.44039753  0.42111804  1
  H+  H337  1  0.92346746  0.33680954  0.94080133  1
  H+  H338  1  0.10045265  0.17804769  0.39865704  1
  H+  H339  1  0.17647935  0.09765083  0.93927948  1
  H+  H340  1  0.57622263  0.16390076  0.10187631  1
  H+  H341  1  0.90426827  0.83520588  0.89926626  1
  H+  H342  1  -0.00033749  0.37248838  0.34825225  1
  H+  H343  1  0.90548946  0.82658273  0.26759083  1
  H+  H344  1  0.88215384  0.71712157  0.43903672  1
  H+  H345  1  0.62448202  0.65984268  0.70685375  1
  H+  H346  1  0.13000591  0.77368658  0.81804109  1
  H+  H347  1  0.66798363  0.32737984  0.26592563  1
  H+  H348  1  0.38438418  0.86374863  0.83231458  1
  H+  H349  1  0.25421828  0.30809825  0.29750428  1
  H+  H350  1  0.34108546  0.43065593  0.75615803  1
  H+  H351  1  0.21484470  0.80800084  0.30355306  1
  H+  H352  1  0.09678108  0.15749571  0.69577165  1
  H+  H353  1  0.17083976  0.34751010  0.59017204  1
  H+  H354  1  0.82163070  0.40312847  0.05912402  1
  H+  H355  1  0.87242922  0.46844891  0.68220705  1
  H+  H356  1  0.61246581  0.93573985  0.38374209  1
  H+  H357  1  0.77042181  0.01920176  0.23714654  1
  H+  H358  1  0.81898559  0.65842130  0.10256261  1
  H+  H359  1  0.57536075  0.69123203  0.43050803  1
  H+  H360  1  0.16609230  0.05492375  0.58532048  1
  H+  H361  1  0.11946654  0.56135539  0.60866616  1
  H+  H362  1  0.34448822  0.91852276  0.05756036  1
  H+  H363  1  0.40430121  0.56510076  0.94154771  1
  H+  H364  1  0.18598012  0.81150708  0.91748542  1
  H+  H365  1  0.69371169  0.09595391  0.95812153  1
  H+  H366  1  0.85508685  0.37896956  0.15871759  1
  H+  H367  1  0.64995300  0.56618110  0.93768572  1
  H+  H368  1  0.92066771  0.08687363  0.56828175  1
  H+  H369  1  0.78918674  0.44905374  0.43720985  1
  H+  H370  1  0.50825796  0.63885649  0.48376598  1
  H+  H371  1  0.42180098  0.09765537  0.88821976  1
  H+  H372  1  0.44489066  0.33965161  0.96268091  1
  H+  H373  1  0.11535304  0.23908653  -0.00146367  1
  H+  H374  1  0.79825702  0.65386262  0.73601133  1
  H+  H375  1  0.75416528  0.78287343  0.11312771  1
  H+  H376  1  0.42098575  0.09219339  0.59166375  1
  H+  H377  1  0.57611798  0.15072880  0.72469370  1
  H+  H378  1  0.18481112  0.78726183  0.59224489  1
  H+  H379  1  0.38894505  0.94651959  0.45133179  1
  H+  H380  1  0.15783806  0.58353275  0.92847084  1
  H+  H381  1  0.13700793  0.09845696  0.63485879  1
  H+  H382  1  0.34342455  0.17308641  0.40713028  1
  H+  H383  1  0.79355874  0.11540821  0.72055064  1
  O2-  O384  1  0.14739161  0.21008626  0.13298192  1
  O2-  O385  1  0.09298634  0.16617496  0.49323753  1
  O2-  O386  1  0.08342435  0.18462207  0.83227573  1
  O2-  O387  1  0.07760276  0.41958524  0.14337216  1
  O2-  O388  1  0.07766686  0.42085859  0.49623859  1
  O2-  O389  1  0.08929691  0.42653568  0.81311028  1
  O2-  O390  1  0.09227384  0.66789090  0.13563604  1
  O2-  O391  1  0.07509504  0.66679841  0.48250604  1
  O2-  O392  1  0.06320522  0.65723332  0.78899275  1
  O2-  O393  1  0.07815413  0.90852805  0.15360462  1
  O2-  O394  1  0.08397938  0.89107424  0.45795656  1
  O2-  O395  1  0.09053295  0.92414163  0.81848161  1
  O2-  O396  1  0.33088592  0.16317352  0.14744145  1
  O2-  O397  1  0.35001475  0.17801817  0.47425488  1
  O2-  O398  1  0.35705815  0.18699988  0.79439607  1
  O2-  O399  1  0.34719224  0.42618721  0.14516993  1
  O2-  O400  1  0.34717546  0.43068743  0.46948982  1
  O2-  O401  1  0.34328756  0.43203451  0.80158012  1
  O2-  O402  1  0.33394196  0.67212708  0.14498503  1
  O2-  O403  1  0.25788210  0.59625309  0.44914211  1
  O2-  O404  1  0.33567780  0.66585214  0.80692180  1
  O2-  O405  1  0.33199275  0.92137048  0.14161010  1
  O2-  O406  1  0.37323111  0.94293873  0.49475735  1
  O2-  O407  1  0.33477916  0.91981482  0.80608867  1
  O2-  O408  1  0.57565309  0.16787258  0.14732940  1
  O2-  O409  1  0.57810836  0.16646712  0.48259904  1
  O2-  O410  1  0.58426528  0.16454322  0.79867323  1
  O2-  O411  1  0.58980913  0.40810464  0.16416864  1
  O2-  O412  1  0.60325587  0.44119699  0.47156093  1
  O2-  O413  1  0.58176117  0.41238827  0.81869257  1
  O2-  O414  1  0.58029033  0.67234995  0.14031820  1
  O2-  O415  1  0.56925098  0.68231163  0.47563732  1
  O2-  O416  1  0.58776479  0.67659825  0.88840476  1
  O2-  O417  1  0.56474653  0.89688299  0.13480273  1
  O2-  O418  1  0.61990696  0.92182230  0.46501672  1
  O2-  O419  1  0.58743749  0.87606304  0.79717006  1
  O2-  O420  1  0.82410159  0.17702219  0.15588474  1
  O2-  O421  1  0.80272530  0.15816394  0.47787054  1
  O2-  O422  1  0.84713034  0.19672165  0.80845605  1
  O2-  O423  1  0.82137856  0.40335018  0.13955864  1
  O2-  O424  1  0.77731631  0.46610869  0.47705192  1
  O2-  O425  1  0.83332304  0.42249243  0.82019655  1
  O2-  O426  1  0.82428205  0.65903599  0.14801433  1
  O2-  O427  1  0.91867180  0.74300118  0.47519239  1
  O2-  O428  1  0.79378077  0.64957950  0.80307732  1
  O2-  O429  1  0.78301367  0.84160755  0.12851404  1
  O2-  O430  1  0.81349459  0.93136992  0.48379402  1
  O2-  O431  1  0.84300506  0.93842677  0.81364518  1
  O2-  O432  1  0.16717289  0.08128876  0.18613958  1
  O2-  O433  1  0.15845926  0.04857861  0.50962368  1
  O2-  O434  1  0.16363592  0.08798683  0.86549235  1
  O2-  O435  1  0.18204835  0.35540132  0.18584498  1
  O2-  O436  1  0.17508413  0.35172998  0.51388214  1
  O2-  O437  1  0.18390213  0.35799696  0.85419423  1
  O2-  O438  1  0.16698294  0.58280449  0.13740582  1
  O2-  O439  1  0.14587543  0.58913247  0.53254253  1
  O2-  O440  1  0.15593246  0.59256404  0.84003988  1
  O2-  O441  1  0.16327153  0.82729273  0.18034183  1
  O2-  O442  1  0.20481158  0.84230121  0.45364875  1
  O2-  O443  1  0.16515184  0.82925671  0.83857558  1
  O2-  O444  1  0.41306462  0.08104747  0.19021028  1
  O2-  O445  1  0.42285822  0.10557879  0.52255482  1
  O2-  O446  1  0.41527441  0.08347133  0.84284032  1
  O2-  O447  1  0.41472807  0.32904497  0.18736193  1
  O2-  O448  1  0.42758554  0.33927829  0.51158594  1
  O2-  O449  1  0.40694197  0.33267218  0.84111956  1
  O2-  O450  1  0.41894596  0.58966058  0.18652961  1
  O2-  O451  1  0.39953572  0.58542659  0.50970217  1
  O2-  O452  1  0.41681806  0.59199688  0.85551412  1
  O2-  O453  1  0.40211275  0.83129558  0.18699949  1
  O2-  O454  1  0.47437832  0.78184607  0.47100480  1
  O2-  O455  1  0.41405307  0.83078814  0.84310448  1
  O2-  O456  1  0.66977521  0.10198475  0.19132440  1
  O2-  O457  1  0.63754878  0.06670720  0.51449374  1
  O2-  O458  1  0.69933676  0.15304498  0.88237134  1
  O2-  O459  1  0.66831804  0.32847020  0.19220787  1
  O2-  O460  1  0.68698979  0.30959632  0.55120282  1
  O2-  O461  1  0.66088124  0.32471063  0.84231378  1
  O2-  O462  1  0.67348968  0.61986976  0.20676053  1
  O2-  O463  1  0.65594991  0.59943358  0.51317796  1
  O2-  O464  1  0.64227796  0.57758947  0.85211244  1
  O2-  O465  1  0.65627735  0.83137210  0.18577362  1
  O2-  O466  1  0.72747088  0.88772010  0.51068675  1
  O2-  O467  1  0.68311727  0.83890557  0.85992698  1
  O2-  O468  1  0.83079282  0.05712775  0.22755242  1
  O2-  O469  1  0.92841277  0.10672669  0.52468654  1
  O2-  O470  1  0.91777236  0.10362233  0.85425551  1
  O2-  O471  1  0.91689331  0.34135573  0.19301164  1
  O2-  O472  1  0.94971327  0.26225432  0.54250198  1
  O2-  O473  1  0.92914550  0.35449669  0.86320001  1
  O2-  O474  1  0.91072458  0.57081051  0.14300300  1
  O2-  O475  1  0.92056302  0.61116300  0.53552144  1
  O2-  O476  1  0.90182012  0.58766670  0.85377109  1
  O2-  O477  1  0.90334323  0.81991423  0.19232528  1
  O2-  O478  1  0.90959423  0.86256099  0.54258662  1
  O2-  O479  1  0.93379789  0.86611882  0.86155644  1
  O2-  O480  1  0.16879196  0.07912083  0.31253034  1
  O2-  O481  1  0.16766019  0.06609716  0.63040234  1
  O2-  O482  1  0.17586051  0.09834811  0.98521875  1
  O2-  O483  1  0.20980990  0.32538778  0.30620760  1
  O2-  O484  1  0.16793583  0.34094389  0.63572940  1
  O2-  O485  1  0.17452460  0.34378569  0.97863313  1
  O2-  O486  1  0.13650734  0.56880571  0.35430134  1
  O2-  O487  1  0.12044966  0.55259333  0.65371151  1
  O2-  O488  1  0.15831111  0.58257085  0.97332857  1
  O2-  O489  1  0.15714533  0.80073293  0.29713134  1
  O2-  O490  1  0.15857268  0.83021183  0.68079287  1
  O2-  O491  1  0.20472440  0.80135478  0.95724436  1
  O2-  O492  1  0.41986161  0.09025710  0.31468916  1
  O2-  O493  1  0.41851521  0.08273312  0.63826114  1
  O2-  O494  1  0.44267487  0.13207120  0.95558403  1
  O2-  O495  1  0.35192912  0.31157841  0.30072928  1
  O2-  O496  1  0.40432347  0.33270258  0.63315477  1
  O2-  O497  1  0.42229779  0.32975759  1.00377574  1
  O2-  O498  1  0.41756085  0.60645761  0.31120465  1
  O2-  O499  1  0.43213068  0.59163307  0.64405236  1
  O2-  O500  1  0.41343941  0.56280598  0.98529160  1
  O2-  O501  1  0.32653265  0.80876230  0.29937869  1
  O2-  O502  1  0.42477253  0.83595687  0.69161658  1
  O2-  O503  1  0.43667954  0.84524265  0.96880575  1
  O2-  O504  1  0.67703816  0.09868359  0.31385151  1
  O2-  O505  1  0.64222408  0.07446800  0.63304124  1
  O2-  O506  1  0.68960706  0.08242348  1.00205774  1
  O2-  O507  1  0.67031276  0.32875236  0.31219450  1
  O2-  O508  1  0.66726453  0.36123614  0.66929375  1
  O2-  O509  1  0.69522511  0.28023184  0.95046989  1
  O2-  O510  1  0.66064947  0.60016971  0.32063531  1
  O2-  O511  1  0.65567481  0.60276551  0.64421079  1
  O2-  O512  1  0.65754599  0.57286223  0.98218308  1
  O2-  O513  1  0.66388992  0.84563788  0.29791162  1
  O2-  O514  1  0.69280280  0.82542181  0.62519674  1
  O2-  O515  1  0.69841454  0.90583070  0.96140993  1
  O2-  O516  1  0.91448479  0.09505616  0.33267735  1
  O2-  O517  1  0.91570548  0.07282218  0.64278639  1
  O2-  O518  1  0.91770673  0.09351095  0.97412824  1
  O2-  O519  1  0.90770736  0.34345738  0.31693102  1
  O2-  O520  1  0.90038672  0.29548732  0.70548080  1
  O2-  O521  1  0.92276266  0.33523129  0.98606311  1
  O2-  O522  1  0.89827958  0.58496172  0.32196600  1
  O2-  O523  1  0.91550457  0.59040706  0.66236771  1
  O2-  O524  1  0.90574340  0.57787754  0.97883334  1
  O2-  O525  1  0.91276215  0.82944467  0.31320807  1
  O2-  O526  1  0.90811479  0.82640389  0.65881721  1
  O2-  O527  1  0.87744874  0.81396323  0.97805322  1
  O2-  O528  1  0.08711635  0.17886046  0.01446105  1
  O2-  O529  1  0.09386690  0.17482698  0.35438659  1
  O2-  O530  1  0.08350403  0.16153458  0.65346777  1
  O2-  O531  1  0.08728172  0.42105781  0.01952961  1
  O2-  O532  1  0.05656264  0.39568568  0.37052723  1
  O2-  O533  1  0.07016387  0.39827964  0.69341049  1
  O2-  O534  1  0.06921736  0.65733287  0.01514093  1
  O2-  O535  1  0.05159379  0.65119415  0.35208412  1
  O2-  O536  1  0.06790816  0.65629265  0.72210052  1
  O2-  O537  1  0.02710123  0.94842323  -0.02388124  1
  O2-  O538  1  0.08463323  0.90377794  0.33683682  1
  O2-  O539  1  0.07472364  0.91459486  0.69562467  1
  O2-  O540  1  0.34119963  0.16893104  0.02752878  1
  O2-  O541  1  0.33986092  0.16993943  0.35894918  1
  O2-  O542  1  0.33699931  0.16805636  0.67122288  1
  O2-  O543  1  0.34226336  0.40623310  0.02538409  1
  O2-  O544  1  0.33766721  0.45312313  0.35786226  1
  O2-  O545  1  0.33570888  0.42631838  0.67594910  1
  O2-  O546  1  0.33491075  0.69165476  0.01928523  1
  O2-  O547  1  0.37178100  0.71204227  0.36847013  1
  O2-  O548  1  0.36191018  0.67198357  0.69545129  1
  O2-  O549  1  0.35260002  0.91824996  0.01302957  1
  O2-  O550  1  0.34741729  0.93490662  0.37064252  1
  O2-  O551  1  0.33763292  0.91820297  0.68437325  1
  O2-  O552  1  0.58498341  0.15298605  0.02587711  1
  O2-  O553  1  0.58277656  0.16711237  0.35866765  1
  O2-  O554  1  0.57086298  0.14527649  0.67888827  1
  O2-  O555  1  0.58518646  0.41376808  0.04450695  1
  O2-  O556  1  0.60411949  0.42130349  0.35220596  1
  O2-  O557  1  0.53665014  0.44623742  0.70023419  1
  O2-  O558  1  0.57323898  0.65230499  0.01382754  1
  O2-  O559  1  0.58496693  0.70244225  0.35251304  1
  O2-  O560  1  0.61691134  0.65514076  0.66256018  1
  O2-  O561  1  0.58429289  0.90452513  0.02695160  1
  O2-  O562  1  0.60751309  0.94075738  0.33941581  1
  O2-  O563  1  0.60434736  0.89312918  0.67907463  1
  O2-  O564  1  0.86742923  0.18426874  0.02997399  1
  O2-  O565  1  0.82883117  0.18212492  0.36024438  1
  O2-  O566  1  0.80790864  0.13158187  0.67784233  1
  O2-  O567  1  0.83063013  0.40869769  0.01417470  1
  O2-  O568  1  0.82195828  0.42942127  0.35562225  1
  O2-  O569  1  0.84492285  0.41050719  0.70038379  1
  O2-  O570  1  0.81799521  0.65546425  0.02463510  1
  O2-  O571  1  0.83020336  0.67336951  0.36281395  1
  O2-  O572  1  0.80280448  0.65817262  0.68829541  1
  O2-  O573  1  0.82411103  0.91822320  0.01979589  1
  O2-  O574  1  0.84078328  0.92160082  0.35698448  1
  O2-  O575  1  0.83948765  0.91957752  0.69047944  1
