# generated using pymatgen
data_H2O
_symmetry_space_group_name_H-M   'P 1'
_cell_length_a   17.99894409
_cell_length_b   17.99122776
_cell_length_c   22.01055781
_cell_angle_alpha   89.97475496
_cell_angle_beta   90.03710656
_cell_angle_gamma   120.00653782
_symmetry_Int_Tables_number   1
_chemical_formula_structural   H2O
_chemical_formula_sum   'H384 O192'
_cell_volume   6172.21151339
_cell_formula_units_Z   192
loop_
 _symmetry_equiv_pos_site_id
 _symmetry_equiv_pos_as_xyz
  1  'x, y, z'
loop_
 _atom_type_symbol
 _atom_type_oxidation_number
  H+  1.0
  O2-  -2.0
loop_
 _atom_site_type_symbol
 _atom_site_label
 _atom_site_symmetry_multiplicity
 _atom_site_fract_x
 _atom_site_fract_y
 _atom_site_fract_z
 _atom_site_occupancy
  H+  H0  1  0.89896013  0.37740618  0.99972096  1
  H+  H1  1  0.39797464  0.53648611  0.65158703  1
  H+  H2  1  0.10702565  0.87733413  0.16703043  1
  H+  H3  1  0.03640196  0.40627272  -0.00021989  1
  H+  H4  1  0.37467588  0.38678335  0.17570642  1
  H+  H5  1  0.82696201  -0.11742982  0.44234792  1
  H+  H6  1  0.36540581  0.20861441  0.15880662  1
  H+  H7  1  0.92059307  0.70577923  0.84151342  1
  H+  H8  1  0.35607072  0.39419494  1.02049255  1
  H+  H9  1  0.23169675  0.86065961  0.49279695  1
  H+  H10  1  0.63501706  0.52814697  0.83663908  1
  H+  H11  1  0.14506053  0.53875050  0.33147530  1
  H+  H12  1  -0.00272934  0.86345551  0.82901201  1
  H+  H13  1  0.61460439  0.13413513  0.66732497  1
  H+  H14  1  0.52740534  0.89266873  0.67611190  1
  H+  H15  1  -0.01503791  0.61127465  -0.00779436  1
  H+  H16  1  0.10943455  0.71853938  0.67835852  1
  H+  H17  1  0.63804551  0.27838109  0.49579263  1
  H+  H18  1  0.42071444  0.08175274  0.55958312  1
  H+  H19  1  0.53139756  0.38094600  0.66825985  1
  H+  H20  1  0.40480691  0.40182074  0.14901062  1
  H+  H21  1  0.11679816  0.38916842  0.00146400  1
  H+  H22  1  0.90326141  0.06772658  0.41385893  1
  H+  H23  1  0.63278821  0.20416591  0.81211462  1
  H+  H24  1  0.12364820  -0.02056353  0.49209215  1
  H+  H25  1  0.14709541  0.62275401  0.84170265  1
  H+  H26  1  0.64102332  0.61614554  -0.00613340  1
  H+  H27  1  0.11087734  0.96774949  0.17846933  1
  H+  H28  1  0.91061366  0.07030881  0.93959641  1
  H+  H29  1  0.09669717  0.40067601  0.82197868  1
  H+  H30  1  0.61521775  0.14088984  0.33810147  1
  H+  H31  1  0.39831589  0.68783172  0.02984849  1
  H+  H32  1  0.63336061  0.35818364  0.66957139  1
  H+  H33  1  0.27188488  0.87561250  0.16574954  1
  H+  H34  1  -0.02311901  0.62023361  0.31590724  1
  H+  H35  1  0.85150575  0.16885765  0.90329280  1
  H+  H36  1  0.88394365  1.01827984  0.15791041  1
  H+  H37  1  0.90971386  0.83237738  0.23486837  1
  H+  H38  1  0.73194483  0.10526912  0.84911659  1
  H+  H39  1  0.39513939  0.11899954  0.65141256  1
  H+  H40  1  0.38111304  0.61548491  0.65501282  1
  H+  H41  1  0.82835695  0.42018763  0.73710792  1
  H+  H42  1  0.23611880  0.11593763  0.50482407  1
  H+  H43  1  0.36533071  0.96773159  0.02134880  1
  H+  H44  1  0.37412651  0.14645637  0.33846549  1
  H+  H45  1  0.73140700  0.61952262  0.33107861  1
  H+  H46  1  0.02507529  0.39485894  0.50485324  1
  H+  H47  1  0.14184266  0.78396746  0.83024244  1
  H+  H48  1  0.11669620  0.73463864  0.49632421  1
  H+  H49  1  0.52490625  0.14198769  0.48971585  1
  H+  H50  1  0.11178819  0.71338744  0.01054250  1
  H+  H51  1  0.46719360  0.08648642  1.00437337  1
  H+  H52  1  0.61304853  0.63730235  0.16180885  1
  H+  H53  1  0.13564553  0.85733343  1.01633212  1
  H+  H54  1  0.57831990  0.14561776  0.08016787  1
  H+  H55  1  -0.05149220  0.10472190  0.78193834  1
  H+  H56  1  0.10813467  0.22979492  0.00883333  1
  H+  H57  1  0.10513662  0.64138957  0.32746602  1
  H+  H58  1  0.22810486  0.86011069  1.02321870  1
  H+  H59  1  0.37294362  0.76397925  0.99284372  1
  H+  H60  1  0.86359096  0.88701051  0.15932478  1
  H+  H61  1  -0.02076732  0.86365536  0.32684480  1
  H+  H62  1  0.63251760  0.02555917  0.32957380  1
  H+  H63  1  0.77505952  0.40705787  0.83220268  1
  H+  H64  1  0.88331144  0.11287495  0.99127972  1
  H+  H65  1  0.25984832  0.60777037  0.98590140  1
  H+  H66  1  0.63406516  0.60732333  0.51288931  1
  H+  H67  1  0.53180218  0.63968915  0.82423038  1
  H+  H68  1  0.77914439  0.14813918  0.99181770  1
  H+  H69  1  0.66035174  0.52312755  0.66780529  1
  H+  H70  1  0.11107538  0.18583020  0.43711537  1
  H+  H71  1  0.49171280  0.10133062  0.84078578  1
  H+  H72  1  0.12060594  0.23721346  0.33457394  1
  H+  H73  1  0.03424065  0.79521914  0.69436148  1
  H+  H74  1  0.14039705  0.11358155  0.17170256  1
  H+  H75  1  0.85887671  0.74548655  0.16082203  1
  H+  H76  1  0.77840802  0.70203886  0.11788301  1
  H+  H77  1  0.73990878  0.38734459  0.00168116  1
  H+  H78  1  0.09470621  0.61688783  0.16060026  1
  H+  H79  1  0.14912407  0.11917208  0.50455304  1
  H+  H80  1  0.86165410  0.87765218  -0.00042292  1
  H+  H81  1  0.52905902  0.64161549  0.33529661  1
  H+  H82  1  0.38451812  0.01484360  0.17794831  1
  H+  H83  1  0.72648330  0.86596259  0.17230338  1
  H+  H84  1  0.38992856  0.77760750  0.50724105  1
  H+  H85  1  0.11412258  0.49600084  0.82211831  1
  H+  H86  1  0.86633282  0.48030010  0.49038701  1
  H+  H87  1  0.38635927  0.54847336  0.17271020  1
  H+  H88  1  0.86595992  0.63539511  0.33766898  1
  H+  H89  1  0.88809981  0.28906845  0.85028154  1
  H+  H90  1  0.13978699  0.27811186  0.16799998  1
  H+  H91  1  0.26924900  0.89086431  0.80943349  1
  H+  H92  1  0.23424708  0.61704582  0.66267616  1
  H+  H93  1  0.63285574  0.52021479  0.18089723  1
  H+  H94  1  0.87616561  0.73517026  0.49944915  1
  H+  H95  1  0.35530771  0.42439070  0.72666922  1
  H+  H96  1  0.14387432  0.37392215  0.50999898  1
  H+  H97  1  0.17582540  0.08764067  0.22995818  1
  H+  H98  1  0.63880256  0.77874344  0.50755278  1
  H+  H99  1  0.62374688  0.40063120  0.82927124  1
  H+  H100  1  0.11815570  0.89177793  0.33467785  1
  H+  H101  1  0.26018028  0.14689278  0.00301688  1
  H+  H102  1  0.63742174  0.02750441  0.66306359  1
  H+  H103  1  0.79893119  0.73271753  0.46414676  1
  H+  H104  1  0.71893630  0.11751647  0.33234572  1
  H+  H105  1  -0.02879887  0.38091699  0.83666119  1
  H+  H106  1  0.16579152  0.24988167  0.85299755  1
  H+  H107  1  0.07384346  0.31887108  0.28524833  1
  H+  H108  1  0.61839475  0.89345082  0.49591984  1
  H+  H109  1  0.52968836  0.38658007  0.49835656  1
  H+  H110  1  0.39936790  0.76434537  0.29053424  1
  H+  H111  1  0.63755395  0.76797919  0.98516245  1
  H+  H112  1  0.78205860  0.39543781  0.33687228  1
  H+  H113  1  0.85150376  0.13176875  0.14286927  1
  H+  H114  1  0.63521313  0.86425254  0.17801571  1
  H+  H115  1  0.15787754  0.33326976  0.26055707  1
  H+  H116  1  0.37563617  0.49528717  0.33697869  1
  H+  H117  1  0.52412207  0.13601266  0.66570916  1
  H+  H118  1  0.90790840  0.59065843  0.22968196  1
  H+  H119  1  0.37075651  0.27688273  1.00070228  1
  H+  H120  1  0.39651612  0.36944121  0.50052460  1
  H+  H121  1  0.34275923  -0.07400374  0.72600764  1
  H+  H122  1  0.14674105  0.28571768  0.50920678  1
  H+  H123  1  0.87541958  0.48453400  0.00964668  1
  H+  H124  1  -0.00603653  0.11254324  0.65444760  1
  H+  H125  1  0.63811445  0.52646970  0.99720897  1
  H+  H126  1  0.37031564  0.14018594  0.49324977  1
  H+  H127  1  0.01716282  0.14080052  0.01133367  1
  H+  H128  1  0.39042306  0.53420728  0.50242491  1
  H+  H129  1  0.13028661  0.76043035  0.15251889  1
  H+  H130  1  0.88564923  0.79341119  0.66252903  1
  H+  H131  1  1.01828598  0.63865560  0.50353795  1
  H+  H132  1  0.64987212  0.85765853  0.83329760  1
  H+  H133  1  0.72970963  0.36923524  0.49468564  1
  H+  H134  1  0.54415468  0.87167262  0.82483244  1
  H+  H135  1  0.63444974  0.87108563  0.65600576  1
  H+  H136  1  0.38100515  0.60806281  0.97795987  1
  H+  H137  1  0.17148263  0.14344353  0.65870639  1
  H+  H138  1  0.39289818  0.37896940  0.82100833  1
  H+  H139  1  0.53245532  0.37948478  0.17050456  1
  H+  H140  1  1.04051360  0.13981028  0.48807327  1
  H+  H141  1  0.08141947  0.82634591  0.69080366  1
  H+  H142  1  0.40348764  0.51757796  0.83318003  1
  H+  H143  1  0.11559057  0.63496273  0.67745187  1
  H+  H144  1  0.03279596  0.64443867  0.83553451  1
  H+  H145  1  0.28304233  0.51726210  0.12437246  1
  H+  H146  1  0.77596465  0.63275848  1.00223770  1
  H+  H147  1  0.84774052  0.14130872  0.50419421  1
  H+  H148  1  0.13553021  0.11489579  0.84951858  1
  H+  H149  1  0.73198158  0.36023412  0.67178714  1
  H+  H150  1  0.72734593  0.84636918  0.32563074  1
  H+  H151  1  0.61857733  0.72939935  0.15899394  1
  H+  H152  1  0.85505143  0.71238605  0.74041403  1
  H+  H153  1  0.90812547  0.07750774  0.52749572  1
  H+  H154  1  0.34153263  0.64154085  0.15266719  1
  H+  H155  1  0.76256545  0.14423174  0.50164427  1
  H+  H156  1  0.47458845  0.25922197  0.22056695  1
  H+  H157  1  0.89821342  0.62185838  0.51336484  1
  H+  H158  1  0.11544211  0.63881894  0.50374981  1
  H+  H159  1  0.77428638  0.13895664  0.67602832  1
  H+  H160  1  0.85776127  0.38385467  0.67937174  1
  H+  H161  1  0.52853998  0.89200207  0.49576228  1
  H+  H162  1  0.22411521  0.36442539  -0.00149078  1
  H+  H163  1  0.27417581  0.64507945  0.49309185  1
  H+  H164  1  0.84792882  0.42322872  0.39191912  1
  H+  H165  1  0.63686329  0.26352068  0.66735449  1
  H+  H166  1  0.85987990  -0.03441927  1.00670567  1
  H+  H167  1  0.63959837  0.09172339  0.83147229  1
  H+  H168  1  0.64123926  0.27606478  0.17566728  1
  H+  H169  1  0.10621803  0.72977286  0.32446632  1
  H+  H170  1  0.63427081  0.02768217  0.50768807  1
  H+  H171  1  0.24596763  0.38945648  0.65835270  1
  H+  H172  1  0.36880052  0.88615872  0.49125083  1
  H+  H173  1  0.29365267  0.89191286  0.66141696  1
  H+  H174  1  0.16460199  0.82907966  0.10175662  1
  H+  H175  1  0.95359913  0.33993385  0.25072378  1
  H+  H176  1  0.52761592  0.37800421  0.82175413  1
  H+  H177  1  0.61850531  0.39043998  0.33161025  1
  H+  H178  1  0.28436679  0.14387642  0.65914036  1
  H+  H179  1  -0.02041624  0.60441478  0.65926899  1
  H+  H180  1  0.83020228  0.90696933  0.09662304  1
  H+  H181  1  0.63182915  -0.03615823  0.82563039  1
  H+  H182  1  0.88297241  0.76738842  0.98373686  1
  H+  H183  1  0.62480841  0.39319341  0.16412180  1
  H+  H184  1  0.26105759  0.10570131  0.82330217  1
  H+  H185  1  0.11737932  -0.02108957  0.82300910  1
  H+  H186  1  0.38395124  0.85886471  0.20989747  1
  H+  H187  1  0.22604543  0.63320792  0.32452613  1
  H+  H188  1  0.13664873  0.53444084  0.51201315  1
  H+  H189  1  0.34107231  0.17065545  0.43428766  1
  H+  H190  1  0.41186003  0.63852362  0.31996181  1
  H+  H191  1  0.89456305  0.61272241  0.99294822  1
  H+  H192  1  0.61378935  -0.10689959  0.34203638  1
  H+  H193  1  0.64833474  0.28132976  0.32829602  1
  H+  H194  1  0.11953546  0.10997413  1.00208421  1
  H+  H195  1  -0.00042081  0.83971209  0.51578488  1
  H+  H196  1  0.27077572  0.12764247  0.15407758  1
  H+  H197  1  0.64060283  0.03342461  0.99671030  1
  H+  H198  1  0.73129691  0.36572925  0.17413345  1
  H+  H199  1  -0.02399766  0.36945387  0.66182228  1
  H+  H200  1  0.89275598  0.55226589  0.83917314  1
  H+  H201  1  0.37814176  0.88590173  0.31218564  1
  H+  H202  1  0.83952028  0.94485065  0.35842721  1
  H+  H203  1  0.17372849  0.32850446  0.93657541  1
  H+  H204  1  0.78907995  0.65951815  0.68663235  1
  H+  H205  1  0.76517877  0.89859595  0.65760210  1
  H+  H206  1  0.63146509  0.77930253  0.65800548  1
  H+  H207  1  0.98173562  0.10587690  0.68744827  1
  H+  H208  1  0.86358194  0.48462612  0.16443675  1
  H+  H209  1  0.47544644  0.86875340  0.21619042  1
  H+  H210  1  0.61266036  0.12977658  1.01571134  1
  H+  H211  1  0.86863955  0.39909870  0.17146190  1
  H+  H212  1  0.03768659  0.41146962  0.34664684  1
  H+  H213  1  0.52486163  0.13767656  0.16773328  1
  H+  H214  1  0.25024952  0.42218136  0.15149274  1
  H+  H215  1  0.88767667  0.51803042  0.65648928  1
  H+  H216  1  0.88534034  0.28113762  0.51262959  1
  H+  H217  1  0.62123002  0.64154225  0.33878290  1
  H+  H218  1  0.30521612  0.64585223  0.08672491  1
  H+  H219  1  0.15959652  0.12426021  0.32535037  1
  H+  H220  1  0.36288700  0.64350801  0.48816863  1
  H+  H221  1  0.41092117  0.11019058  0.85679287  1
  H+  H222  1  0.19499798  0.58231093  0.16643195  1
  H+  H223  1  0.40964610  0.76170450  0.83523806  1
  H+  H224  1  0.87725312  0.61676416  0.16826907  1
  H+  H225  1  0.38021419  0.10157387  0.16620867  1
  H+  H226  1  0.52204949  0.63413773  1.00328916  1
  H+  H227  1  0.09388864  0.00839769  0.67771803  1
  H+  H228  1  0.10103724  0.96391773  0.01009793  1
  H+  H229  1  0.23515879  0.61747710  0.83297064  1
  H+  H230  1  0.85697478  0.11370404  0.61716700  1
  H+  H231  1  0.52473487  0.63990359  0.49504577  1
  H+  H232  1  0.36594311  -0.03140696  0.81893738  1
  H+  H233  1  0.56158189  0.91415812  0.12154202  1
  H+  H234  1  -0.02119215  0.86359360  0.18247607  1
  H+  H235  1  0.62116931  0.63847014  0.82522968  1
  H+  H236  1  0.39454623  0.27845699  0.50132654  1
  H+  H237  1  0.07710041  0.45088456  0.18523407  1
  H+  H238  1  0.39037993  0.23791002  0.83099443  1
  H+  H239  1  0.63891113  0.75748662  0.83481041  1
  H+  H240  1  0.39721935  0.03721302  0.32219221  1
  H+  H241  1  0.33014614  0.69754140  0.40124194  1
  H+  H242  1  0.08575991  0.42839748  0.44640887  1
  H+  H243  1  0.81869912  0.16514494  0.08951027  1
  H+  H244  1  0.39464721  0.37032667  0.32594767  1
  H+  H245  1  0.84226781  0.13558642  0.35746343  1
  H+  H246  1  0.36489855  0.62716776  0.82043641  1
  H+  H247  1  0.17339766  0.33624779  0.83061201  1
  H+  H248  1  0.72050977  0.11028874  0.17122849  1
  H+  H249  1  0.62896121  0.75027258  0.32661631  1
  H+  H250  1  0.30332839  0.37246971  0.82784258  1
  H+  H251  1  0.52062660  0.39279031  1.01562806  1
  H+  H252  1  0.05635613  0.12591091  0.87219132  1
  H+  H253  1  0.72802309  0.85443432  0.98491168  1
  H+  H254  1  0.48365944  0.62672855  0.17173028  1
  H+  H255  1  0.11961793  0.40403849  0.34848249  1
  H+  H256  1  0.36315831  0.87757711  0.02672571  1
  H+  H257  1  0.83456782  0.96392480  0.70552595  1
  H+  H258  1  0.71997468  0.61128377  0.18075975  1
  H+  H259  1  0.87177513  0.23976949  0.99524939  1
  H+  H260  1  0.62179908  0.47906642  0.50422790  1
  H+  H261  1  0.63808455  0.29969576  0.86516464  1
  H+  H262  1  0.72474954  0.61374223  0.51058461  1
  H+  H263  1  0.61426948  0.13788438  0.17070395  1
  H+  H264  1  0.62881836  0.38043252  0.49864157  1
  H+  H265  1  0.22315298  0.76777995  0.61762399  1
  H+  H266  1  1.02781442  0.13952717  0.15968281  1
  H+  H267  1  0.50268178  0.91150742  1.01811244  1
  H+  H268  1  0.88857847  0.27809954  0.66524506  1
  H+  H269  1  0.39068277  0.77793853  0.66513386  1
  H+  H270  1  0.28692160  0.40812815  0.33637476  1
  H+  H271  1  0.11884702  0.97989072  0.33595635  1
  H+  H272  1  0.15391787  0.50188467  -0.01326293  1
  H+  H273  1  0.39040755  0.02314021  0.49917610  1
  H+  H274  1  0.63171642  0.11647007  0.50685879  1
  H+  H275  1  0.60934658  0.97428327  0.17619847  1
  H+  H276  1  0.64934254  0.38759311  1.00315993  1
  H+  H277  1  0.86541581  0.39165208  0.49383856  1
  H+  H278  1  0.36569859  0.83345454  0.94661346  1
  H+  H279  1  0.24166969  0.11496931  0.32519982  1
  H+  H280  1  0.39737687  0.28013477  0.65235051  1
  H+  H281  1  0.43170480  0.59712042  0.26369680  1
  H+  H282  1  0.06661717  0.94011623  0.76022903  1
  H+  H283  1  0.39573167  0.02895984  0.65387990  1
  H+  H284  1  0.05624504  0.13913470  0.34448370  1
  H+  H285  1  0.86079887  0.35375172  0.30215531  1
  H+  H286  1  0.23452570  0.85673044  0.31454069  1
  H+  H287  1  0.53132544  0.14954867  0.33548664  1
  H+  H288  1  0.82086243  0.18297493  0.40717077  1
  H+  H289  1  0.66813903  0.58886916  0.27296191  1
  H+  H290  1  0.17667813  0.09502886  0.59708625  1
  H+  H291  1  0.58483988  0.67877329  0.72690112  1
  H+  H292  1  0.48422741  0.36865589  0.32822391  1
  H+  H293  1  0.59342535  0.91886710  0.73261980  1
  H+  H294  1  0.13660374  0.86897172  0.81852107  1
  H+  H295  1  0.08780609  0.17132536  0.10250805  1
  H+  H296  1  0.67792005  0.33887280  0.26791559  1
  H+  H297  1  0.44768555  0.81666118  0.89600934  1
  H+  H298  1  0.58130927  0.66591971  0.06316288  1
  H+  H299  1  0.13787272  0.53589848  0.65327252  1
  H+  H300  1  0.68189011  0.36857390  0.91710902  1
  H+  H301  1  0.11179015  0.18601582  0.72772826  1
  H+  H302  1  0.87889417  0.87709400  0.64390094  1
  H+  H303  1  0.58728564  0.66758670  0.43813193  1
  H+  H304  1  0.11698024  0.35298569  0.17697846  1
  H+  H305  1  0.43018656  0.34210126  0.59444532  1
  H+  H306  1  0.92433337  0.58181036  0.57024529  1
  H+  H307  1  0.85579914  0.86598716  0.34025183  1
  H+  H308  1  0.83837423  0.67087573  0.39748742  1
  H+  H309  1  0.28288967  0.39639004  0.49292426  1
  H+  H310  1  0.41720726  0.05163707  0.94255398  1
  H+  H311  1  0.66646270  0.82424890  0.26196647  1
  H+  H312  1  0.84558412  0.42552282  0.07036557  1
  H+  H313  1  0.40235999  0.35227798  0.94983370  1
  H+  H314  1  0.42234034  0.57654939  0.89173963  1
  H+  H315  1  0.58175739  0.42288996  0.07415994  1
  H+  H316  1  0.66628003  0.07663219  0.93079158  1
  H+  H317  1  0.41766975  0.59584479  0.56069271  1
  H+  H318  1  0.07590092  0.64269688  0.05963411  1
  H+  H319  1  0.09273483  0.92090610  0.43177818  1
  H+  H320  1  0.34211337  0.42772233  0.43336976  1
  H+  H321  1  0.08586313  0.66382753  0.77377520  1
  H+  H322  1  0.89253493  0.77065713  0.32762575  1
  H+  H323  1  0.58862729  0.92437746  0.40167257  1
  H+  H324  1  0.17565144  0.84562768  0.25752602  1
  H+  H325  1  0.92565136  0.59647752  0.90345311  1
  H+  H326  1  0.37974964  0.39750676  0.66482904  1
  H+  H327  1  0.92385186  0.08020010  0.34191087  1
  H+  H328  1  0.31806717  0.43999228  0.06659002  1
  H+  H329  1  0.66551564  0.83881762  0.56629145  1
  H+  H330  1  0.43476355  0.28406342  0.89211673  1
  H+  H331  1  0.43044094  0.30910241  0.24536773  1
  H+  H332  1  0.15403735  0.57437667  0.23241741  1
  H+  H333  1  0.84601902  0.25992779  0.30303385  1
  H+  H334  1  0.66660969  0.08641053  0.60273122  1
  H+  H335  1  0.85028540  0.14282454  0.71730898  1
  H+  H336  1  0.66551643  0.58504608  0.89662821  1
  H+  H337  1  0.84226555  0.01985822  0.61389681  1
  H+  H338  1  0.90279221  0.08254381  0.21222736  1
  H+  H339  1  0.12000189  0.40167104  0.66800696  1
  H+  H340  1  0.77983100  0.87947942  0.50266464  1
  H+  H341  1  0.93760102  0.81567636  0.57346683  1
  H+  H342  1  0.33163690  0.65674800  0.76225024  1
  H+  H343  1  0.32620723  0.17024295  0.05730805  1
  H+  H344  1  0.19612331  0.57730261  0.92236625  1
  H+  H345  1  0.86511558  0.14466813  0.83506384  1
  H+  H346  1  0.53928640  1.00276037  0.04892280  1
  H+  H347  1  0.33632322  0.09144077  0.78900834  1
  H+  H348  1  0.68139262  0.58644490  0.61352758  1
  H+  H349  1  0.14137098  0.07492418  0.94264880  1
  H+  H350  1  0.42002929  0.83569864  0.56751462  1
  H+  H351  1  0.38053449  0.52067432  0.98882219  1
  H+  H352  1  0.36994259  0.23332363  0.34304848  1
  H+  H353  1  0.18240830  0.35326989  0.60125441  1
  H+  H354  1  0.92689660  0.35553101  0.93642553  1
  H+  H355  1  0.66873370  0.08684671  0.23579783  1
  H+  H356  1  0.01741397  0.87470353  -0.00177392  1
  H+  H357  1  0.61580267  0.47798682  0.33552892  1
  H+  H358  1  0.01225417  0.62870469  0.15598054  1
  H+  H359  1  0.58329555  0.14884956  0.75532358  1
  H+  H360  1  0.34370551  0.90877530  0.42728712  1
  H+  H361  1  0.32284553  0.81119251  0.35457510  1
  H+  H362  1  0.14487458  0.86692398  0.49839750  1
  H+  H363  1  0.33937155  0.16962883  0.71949363  1
  H+  H364  1  -0.00035922  0.92345077  0.67737445  1
  H+  H365  1  0.91428430  0.34043957  0.57176063  1
  H+  H366  1  0.34605791  0.90964276  0.11983854  1
  H+  H367  1  0.52234030  0.65314307  0.66898336  1
  H+  H368  1  0.58597183  0.17232212  0.43093220  1
  H+  H369  1  0.17186820  0.59833415  0.56988554  1
  H+  H370  1  0.08418944  0.43128073  0.72426596  1
  H+  H371  1  0.88961359  0.52784542  0.31849403  1
  H+  H372  1  0.58631787  0.40740519  0.73156883  1
  H+  H373  1  0.16175396  0.26376853  0.68186338  1
  H+  H374  1  0.67239818  0.82259523  0.89956974  1
  H+  H375  1  0.28222719  0.56735807  0.70557112  1
  H+  H376  1  0.41925492  0.08845083  0.25973054  1
  H+  H377  1  0.39460711  0.86924271  0.66264773  1
  H+  H378  1  0.18702030  0.82093451  0.58632061  1
  H+  H379  1  0.19982018  0.04323165  0.88941362  1
  H+  H380  1  0.90463424  0.00297662  0.48957638  1
  H+  H381  1  0.86169946  0.40422192  0.82998753  1
  H+  H382  1  0.91699309  0.82536781  0.92404149  1
  H+  H383  1  0.84099835  0.66937811  0.05845247  1
  O2-  O384  1  0.08951975  0.17131830  0.14804717  1
  O2-  O385  1  0.10341743  0.18048803  0.48184406  1
  O2-  O386  1  0.10474185  0.14995291  0.84439486  1
  O2-  O387  1  0.04254378  0.38580702  0.18269119  1
  O2-  O388  1  0.08667869  0.42747991  0.49153596  1
  O2-  O389  1  0.07462070  0.43572396  0.80494734  1
  O2-  O390  1  0.07200474  0.65185284  0.14142998  1
  O2-  O391  1  0.08238129  0.66910711  0.48882928  1
  O2-  O392  1  0.09234989  0.66802317  0.81889527  1
  O2-  O393  1  0.07690371  0.90512742  0.18593115  1
  O2-  O394  1  0.09699642  0.91900596  0.47689024  1
  O2-  O395  1  0.07942377  0.92206561  0.80202304  1
  O2-  O396  1  0.33071619  0.15311329  0.13743964  1
  O2-  O397  1  0.34123008  0.17252080  0.47976944  1
  O2-  O398  1  0.32591550  0.13794968  0.80011397  1
  O2-  O399  1  0.29916200  0.47201019  0.13039254  1
  O2-  O400  1  0.34375969  0.42577401  0.47849566  1
  O2-  O401  1  0.36130375  0.40849857  0.80968812  1
  O2-  O402  1  0.28876743  0.61673516  0.12827669  1
  O2-  O403  1  0.33294871  0.67562637  0.47530138  1
  O2-  O404  1  0.33696728  0.66090268  0.80877020  1
  O2-  O405  1  0.33621930  0.90721440  0.16510540  1
  O2-  O406  1  0.33825919  0.91404522  0.47151148  1
  O2-  O407  1  0.33049700  0.91750914  0.79399280  1
  O2-  O408  1  0.58637378  0.17101286  0.15550036  1
  O2-  O409  1  0.58644768  0.17393055  0.47655275  1
  O2-  O410  1  0.58929856  0.14590931  0.80130714  1
  O2-  O411  1  0.58959162  0.42044806  0.15276988  1
  O2-  O412  1  0.59317094  0.41764971  0.48838555  1
  O2-  O413  1  0.58625968  0.41802177  0.80680682  1
  O2-  O414  1  0.58709011  0.66953128  0.14289650  1
  O2-  O415  1  0.58673136  0.66611323  0.48294281  1
  O2-  O416  1  0.59266955  0.67225492  0.81011101  1
  O2-  O417  1  0.57567002  0.91171587  0.16481460  1
  O2-  O418  1  0.58884911  0.92493577  0.48090249  1
  O2-  O419  1  0.60506385  0.90513927  0.80759539  1
  O2-  O420  1  0.81529490  0.15723432  0.13376783  1
  O2-  O421  1  0.82425939  0.17548723  0.48705848  1
  O2-  O422  1  0.84203552  0.17542452  0.86015083  1
  O2-  O423  1  0.83729489  0.42298437  0.15077692  1
  O2-  O424  1  0.83618527  0.42066162  0.47441496  1
  O2-  O425  1  0.83261466  0.43427501  0.81253079  1
  O2-  O426  1  0.81691515  0.68798738  0.13991856  1
  O2-  O427  1  0.82223811  0.69508906  0.47278767  1
  O2-  O428  1  0.89952479  0.74007567  0.81970574  1
  O2-  O429  1  0.83063078  0.91371042  0.14208939  1
  O2-  O430  1  0.83756870  0.89559537  0.48598804  1
  O2-  O431  1  0.83516867  1.00583642  0.77461441  1
  O2-  O432  1  0.17159277  0.08347056  0.18474850  1
  O2-  O433  1  0.17498466  0.08441860  0.51884859  1
  O2-  O434  1  0.18752371  0.06911255  0.85477557  1
  O2-  O435  1  0.16366686  0.33850339  0.18306551  1
  O2-  O436  1  0.17840007  0.34699642  0.52258447  1
  O2-  O437  1  0.19985799  0.31511851  0.85916362  1
  O2-  O438  1  0.13931440  0.55833914  0.18873434  1
  O2-  O439  1  0.16725134  0.59687660  0.52346110  1
  O2-  O440  1  0.17579050  0.58781773  0.85154136  1
  O2-  O441  1  0.16335366  0.82447025  0.14784999  1
  O2-  O442  1  0.17218844  0.83130731  0.51028123  1
  O2-  O443  1  0.17326408  0.84705740  0.83532222  1
  O2-  O444  1  0.41418904  0.07821131  0.18698489  1
  O2-  O445  1  0.42003361  0.08353226  0.51403219  1
  O2-  O446  1  0.43426409  0.07161537  0.86045530  1
  O2-  O447  1  0.44633812  0.29030056  0.20649720  1
  O2-  O448  1  0.42730248  0.33966005  0.51561485  1
  O2-  O449  1  0.42433583  0.29592515  0.85069238  1
  O2-  O450  1  0.42671546  0.60471963  0.19184264  1
  O2-  O451  1  0.41829931  0.59582976  0.51464833  1
  O2-  O452  1  0.42535259  0.57787700  0.84641237  1
  O2-  O453  1  0.42007325  0.84653426  0.23783385  1
  O2-  O454  1  0.42016821  0.83825455  0.52217991  1
  O2-  O455  1  0.45204787  0.81948760  0.85150954  1
  O2-  O456  1  0.66200695  0.08152164  0.19055089  1
  O2-  O457  1  0.66249615  0.08786212  0.52422510  1
  O2-  O458  1  0.66897129  0.06563166  0.85372412  1
  O2-  O459  1  0.67119485  0.33745108  0.18975953  1
  O2-  O460  1  0.66872238  0.34018374  0.50935490  1
  O2-  O461  1  0.67616805  0.36130562  0.86916329  1
  O2-  O462  1  0.66007333  0.58139419  0.19583333  1
  O2-  O463  1  0.66556930  0.57761567  0.52652788  1
  O2-  O464  1  0.66341850  0.58777469  0.85177515  1
  O2-  O465  1  0.66742164  0.83384036  0.19029189  1
  O2-  O466  1  0.66928253  0.83994101  0.52017586  1
  O2-  O467  1  0.67401379  0.82128876  0.85168547  1
  O2-  O468  1  0.91429343  0.08137270  0.16914300  1
  O2-  O469  1  0.93192489  0.06774699  0.48839084  1
  O2-  O470  1  0.89123654  0.09854292  0.77913481  1
  O2-  O471  1  1.01871831  0.36232976  0.24687571  1
  O2-  O472  1  0.91786403  0.34230722  0.52628631  1
  O2-  O473  1  0.91441888  0.35187176  0.85741720  1
  O2-  O474  1  0.90654165  0.58710868  0.18347622  1
  O2-  O475  1  0.92639683  0.58873289  0.52243864  1
  O2-  O476  1  0.92955405  0.60870618  0.85848498  1
  O2-  O477  1  0.91345797  0.83569194  0.18950324  1
  O2-  O478  1  0.95261002  0.79074475  0.53773227  1
  O2-  O479  1  0.93746225  0.82288345  0.85079359  1
  O2-  O480  1  0.18110004  0.08698529  0.30954386  1
  O2-  O481  1  0.18451052  0.09924551  0.64208328  1
  O2-  O482  1  0.14859308  0.07831077  0.98686187  1
  O2-  O483  1  0.12832470  0.32365212  0.30110819  1
  O2-  O484  1  0.18393831  0.35941146  0.64650801  1
  O2-  O485  1  0.16436805  0.33127039  0.98079120  1
  O2-  O486  1  0.16765760  0.59327679  0.30847598  1
  O2-  O487  1  0.17236864  0.59802425  0.64246266  1
  O2-  O488  1  0.20986101  0.55921893  0.96248222  1
  O2-  O489  1  0.17565310  0.84245067  0.30185612  1
  O2-  O490  1  0.20152045  0.80651403  0.62695878  1
  O2-  O491  1  0.16478215  0.82355605  1.02644641  1
  O2-  O492  1  0.42488489  0.09534288  0.30581669  1
  O2-  O493  1  0.42688333  0.08939176  0.63728389  1
  O2-  O494  1  0.40862368  0.05435483  0.98649982  1
  O2-  O495  1  0.42067104  0.33474137  0.31583241  1
  O2-  O496  1  0.43122202  0.34211617  0.63990160  1
  O2-  O497  1  0.40869810  0.34306529  0.99265490  1
  O2-  O498  1  0.43243519  0.59771260  0.31011336  1
  O2-  O499  1  0.41984781  0.59557011  0.63571677  1
  O2-  O500  1  0.41475205  0.57953756  0.97001077  1
  O2-  O501  1  0.39716082  0.72713900  0.32561114  1
  O2-  O502  1  0.42234691  0.83547132  0.64748429  1
  O2-  O503  1  0.40439256  0.82829000  0.97509854  1
  O2-  O504  1  0.66076984  0.08643117  0.31336994  1
  O2-  O505  1  0.66762248  0.08885217  0.64822659  1
  O2-  O506  1  0.67614652  0.08889569  0.97533198  1
  O2-  O507  1  0.67969912  0.34200820  0.31334004  1
  O2-  O508  1  0.66854872  0.32739975  0.65629851  1
  O2-  O509  1  0.68183462  0.36322128  0.98300366  1
  O2-  O510  1  0.66959443  0.59234998  0.31842776  1
  O2-  O511  1  0.69036322  0.58433627  0.65740678  1
  O2-  O512  1  0.67186085  0.58586675  0.98031311  1
  O2-  O513  1  0.66527929  0.81908631  0.30861651  1
  O2-  O514  1  0.66259242  0.83978360  0.63940295  1
  O2-  O515  1  0.66983293  0.82582016  0.96613680  1
  O2-  O516  1  0.87766359  0.05530190  0.37158625  1
  O2-  O517  1  0.85076288  0.06965954  0.58768389  1
  O2-  O518  1  0.91200044  0.07768633  0.98354273  1
  O2-  O519  1  0.86195997  0.30923331  0.27568685  1
  O2-  O520  1  0.91365470  0.33866608  0.65072682  1
  O2-  O521  1  0.93071354  0.34975600  0.98129814  1
  O2-  O522  1  0.91356983  0.58796189  0.30308507  1
  O2-  O523  1  0.92469166  0.57363170  0.63623016  1
  O2-  O524  1  0.92213382  0.58015206  0.97781181  1
  O2-  O525  1  0.91780046  0.83176030  0.31347861  1
  O2-  O526  1  0.91436247  0.84941282  0.63841127  1
  O2-  O527  1  0.91012091  0.82787436  0.96924621  1
  O2-  O528  1  0.07760929  0.17001722  0.02589402  1
  O2-  O529  1  0.11355188  0.18415602  0.35576915  1
  O2-  O530  1  0.16326849  0.21542518  0.70288800  1
  O2-  O531  1  0.09847092  0.43188754  0.01200603  1
  O2-  O532  1  0.09389786  0.43663780  0.36631784  1
  O2-  O533  1  0.08430295  0.42816949  0.67921437  1
  O2-  O534  1  0.07942816  0.64974955  0.01481179  1
  O2-  O535  1  0.07212064  0.66991459  0.33885879  1
  O2-  O536  1  0.08038606  0.65956461  0.69456027  1
  O2-  O537  1  0.07438738  0.90199687  0.01821879  1
  O2-  O538  1  0.08688295  0.91965974  0.35148003  1
  O2-  O539  1  0.04372510  0.97105639  0.70325256  1
  O2-  O540  1  0.32163168  0.18319092  0.01400693  1
  O2-  O541  1  0.34064468  0.17155830  0.35627820  1
  O2-  O542  1  0.34609745  0.17466086  0.67461337  1
  O2-  O543  1  0.32353309  0.42573584  0.02290885  1
  O2-  O544  1  0.34522014  0.43441613  0.35233340  1
  O2-  O545  1  0.35159169  0.42877023  0.68201239  1
  O2-  O546  1  0.34223884  0.67968161  0.01868617  1
  O2-  O547  1  0.31992938  0.71268178  0.35865500  1
  O2-  O548  1  0.30977800  0.62738388  0.69268815  1
  O2-  O549  1  0.33774317  0.91034997  0.04437199  1
  O2-  O550  1  0.33460982  0.87028745  0.34432531  1
  O2-  O551  1  0.35165610  0.92854140  0.67920683  1
  O2-  O552  1  0.56127986  0.11642198  0.03979928  1
  O2-  O553  1  0.58975097  0.17632365  0.35340841  1
  O2-  O554  1  0.58401524  0.16482888  0.68399296  1
  O2-  O555  1  0.58159707  0.42475389  0.02875971  1
  O2-  O556  1  0.58195337  0.41542370  0.34252367  1
  O2-  O557  1  0.59036993  0.40303213  0.68618927  1
  O2-  O558  1  0.58240367  0.66480396  0.01784878  1
  O2-  O559  1  0.59075723  0.67461467  0.35099684  1
  O2-  O560  1  0.58287461  0.68681263  0.68271615  1
  O2-  O561  1  0.55034536  0.95429281  0.04339946  1
  O2-  O562  1  0.58867235  0.92712377  0.35633924  1
  O2-  O563  1  0.58904526  0.92678662  0.68784096  1
  O2-  O564  1  0.84263169  0.17577796  0.00006608  1
  O2-  O565  1  0.82014452  0.17552013  0.36217294  1
  O2-  O566  1  0.83755945  0.17005738  0.68294339  1
  O2-  O567  1  0.84440977  0.42339600  0.02525295  1
  O2-  O568  1  0.84507193  0.42444110  0.34679003  1
  O2-  O569  1  0.82357909  0.41174407  0.69160834  1
  O2-  O570  1  0.83849915  0.66425618  0.01386872  1
  O2-  O571  1  0.83697611  0.66786980  0.35223406  1
  O2-  O572  1  0.84910328  0.70444667  0.69629184  1
  O2-  O573  1  0.83033251  0.90468119  0.01952368  1
  O2-  O574  1  0.81289979  0.88133685  0.35762429  1
  O2-  O575  1  0.82810233  0.94041163  0.66283371  1
