# generated using pymatgen
data_H2O
_symmetry_space_group_name_H-M   'P 1'
_cell_length_a   17.99097465
_cell_length_b   17.99241296
_cell_length_c   22.00938734
_cell_angle_alpha   90.03419847
_cell_angle_beta   89.99413073
_cell_angle_gamma   120.00004691
_symmetry_Int_Tables_number   1
_chemical_formula_structural   H2O
_chemical_formula_sum   'H384 O192'
_cell_volume   6169.96064090
_cell_formula_units_Z   192
loop_
 _symmetry_equiv_pos_site_id
 _symmetry_equiv_pos_as_xyz
  1  'x, y, z'
loop_
 _atom_type_symbol
 _atom_type_oxidation_number
  H+  1.0
  O2-  -2.0
loop_
 _atom_site_type_symbol
 _atom_site_label
 _atom_site_symmetry_multiplicity
 _atom_site_fract_x
 _atom_site_fract_y
 _atom_site_fract_z
 _atom_site_occupancy
  H+  H0  1  0.11742424  0.47931352  0.33056208  1
  H+  H1  1  0.38614030  0.52027488  0.51060676  1
  H+  H2  1  0.77967186  0.37729054  1.00076086  1
  H+  H3  1  0.48055677  0.11987018  0.83785464  1
  H+  H4  1  0.88890676  0.02104875  0.50854014  1
  H+  H5  1  0.72687212  0.62207604  -0.00431147  1
  H+  H6  1  0.76821492  0.13802876  0.82451583  1
  H+  H7  1  0.96601857  0.11599406  0.66095148  1
  H+  H8  1  0.15067685  0.09382533  0.59196257  1
  H+  H9  1  0.32856013  0.42066002  0.75536598  1
  H+  H10  1  0.39346569  0.61243004  0.82878399  1
  H+  H11  1  0.38719400  0.84738900  0.13042285  1
  H+  H12  1  0.36392106  0.38214216  1.01418393  1
  H+  H13  1  0.66402517  0.58734249  0.89871836  1
  H+  H14  1  0.99080470  0.37106999  0.81999472  1
  H+  H15  1  0.36491412  0.38064621  0.34065128  1
  H+  H16  1  0.64210023  0.61285519  0.18189074  1
  H+  H17  1  0.36803987  0.21710944  0.16739573  1
  H+  H18  1  0.38929478  0.75948929  0.12764345  1
  H+  H19  1  0.46744857  0.85311462  0.85008748  1
  H+  H20  1  0.14429890  1.00885190  0.84387303  1
  H+  H21  1  0.35964201  0.62687930  0.34029099  1
  H+  H22  1  0.87142966  0.38445330  0.00312573  1
  H+  H23  1  0.39477487  1.02875917  0.83613196  1
  H+  H24  1  0.38099292  0.25584623  1.01955548  1
  H+  H25  1  0.85942837  0.71947054  0.82728993  1
  H+  H26  1  0.61797684  0.64271607  0.00659247  1
  H+  H27  1  0.27135479  0.13419151  0.16751891  1
  H+  H28  1  0.62048167  -0.02049406  0.98735229  1
  H+  H29  1  0.68654614  0.85522246  0.57942796  1
  H+  H30  1  0.53964207  0.15222226  0.33442289  1
  H+  H31  1  0.35560066  0.97607224  -0.00421816  1
  H+  H32  1  0.14042669  0.86855506  0.32213781  1
  H+  H33  1  0.10862792  0.23037457  0.81660901  1
  H+  H34  1  0.12529424  0.48515056  0.48810540  1
  H+  H35  1  0.88509762  0.51865446  0.82700836  1
  H+  H36  1  0.02213203  0.62672336  0.82167482  1
  H+  H37  1  0.37399757  0.39280951  0.66419962  1
  H+  H38  1  0.09998642  0.13173847  0.51069557  1
  H+  H39  1  0.09042076  0.12451491  1.00133710  1
  H+  H40  1  0.86496995  0.88133173  0.67081564  1
  H+  H41  1  0.10593545  0.63379695  0.15787996  1
  H+  H42  1  0.86396921  0.46722528  0.66593494  1
  H+  H43  1  0.10603449  0.19958609  0.66296130  1
  H+  H44  1  0.59567738  0.42153808  0.75384943  1
  H+  H45  1  0.09593038  0.21501610  0.00465837  1
  H+  H46  1  0.27579109  0.12086152  0.01960694  1
  H+  H47  1  0.73147500  0.95275693  0.56453673  1
  H+  H48  1  0.37127606  0.24943426  0.67312795  1
  H+  H49  1  0.63449015  0.36823703  0.82938451  1
  H+  H50  1  0.61532190  0.14499630  0.83012457  1
  H+  H51  1  0.06964186  0.29974536  0.66620623  1
  H+  H52  1  0.14493732  0.86551894  0.16752336  1
  H+  H53  1  0.63523556  0.76659904  0.33316546  1
  H+  H54  1  0.22172697  0.35357630  -0.00210879  1
  H+  H55  1  0.87530980  0.10541599  0.66170941  1
  H+  H56  1  0.10400997  0.21983324  0.34889266  1
  H+  H57  1  0.16280161  0.87574191  0.64877800  1
  H+  H58  1  0.03323086  0.54764845  0.38258050  1
  H+  H59  1  0.32934579  0.92699152  0.39866303  1
  H+  H60  1  0.41406177  0.09693276  0.26800344  1
  H+  H61  1  0.54395171  0.88477323  0.13891167  1
  H+  H62  1  0.67882307  0.08823448  0.59785189  1
  H+  H63  1  0.41903316  0.82679808  0.04187866  1
  H+  H64  1  0.11952619  0.47825563  -0.02450596  1
  H+  H65  1  0.86135107  0.47526940  0.15860396  1
  H+  H66  1  0.27548895  0.88983875  0.33790659  1
  H+  H67  1  0.51334931  0.62381174  0.82167291  1
  H+  H68  1  0.38093134  0.49639354  0.15705555  1
  H+  H69  1  0.88306022  1.02128618  0.83467407  1
  H+  H70  1  0.10580412  0.96338836  0.60781327  1
  H+  H71  1  -0.02705921  0.85479517  0.64657434  1
  H+  H72  1  0.90458486  0.91623151  0.15056000  1
  H+  H73  1  0.34833517  0.71254176  0.66357634  1
  H+  H74  1  0.08022380  0.15726524  0.10466631  1
  H+  H75  1  0.18987197  0.07956211  0.53127379  1
  H+  H76  1  0.62393148  0.38353338  0.16724015  1
  H+  H77  1  0.57832171  0.66340885  0.44026216  1
  H+  H78  1  -0.02718407  0.60984741  0.17360113  1
  H+  H79  1  0.11003619  -0.01926650  0.34599716  1
  H+  H80  1  0.49283463  0.10499972  0.65686071  1
  H+  H81  1  0.77538589  0.88301857  0.82508770  1
  H+  H82  1  0.69780715  0.60295981  0.38258007  1
  H+  H83  1  0.66202009  0.82750376  0.89740363  1
  H+  H84  1  0.49912158  0.61803970  0.17375552  1
  H+  H85  1  0.78991421  0.13741542  0.16286990  1
  H+  H86  1  0.37449492  0.85885593  0.35973288  1
  H+  H87  1  0.02066814  0.63119111  0.49803839  1
  H+  H88  1  0.88393486  0.36788536  0.17929336  1
  H+  H89  1  0.13627407  0.35840582  -0.01067998  1
  H+  H90  1  0.84463873  0.17244225  0.06898479  1
  H+  H91  1  0.40802798  0.82848529  0.44536941  1
  H+  H92  1  0.35673200  0.62917442  0.66910836  1
  H+  H93  1  0.95990341  0.10064937  0.98875125  1
  H+  H94  1  0.09526740  0.95477569  0.49979471  1
  H+  H95  1  0.61262373  0.62916497  0.82505186  1
  H+  H96  1  0.41422229  0.62712876  0.17916383  1
  H+  H97  1  0.85080572  0.97530904  -0.00724940  1
  H+  H98  1  0.09132238  0.72933214  1.01204787  1
  H+  H99  1  0.63165331  0.77453802  0.83571717  1
  H+  H100  1  0.85630998  0.38299795  0.81879586  1
  H+  H101  1  1.01785676  0.14347319  0.81460631  1
  H+  H102  1  0.86187841  0.13141932  0.49832047  1
  H+  H103  1  0.51861995  0.13726420  0.00421993  1
  H+  H104  1  0.72303839  0.61404619  0.83843847  1
  H+  H105  1  0.42430242  0.57639420  0.92760313  1
  H+  H106  1  0.37256676  0.15302614  0.34343905  1
  H+  H107  1  0.64306072  0.11890120  1.00224681  1
  H+  H108  1  -0.02703794  0.37082323  0.33077354  1
  H+  H109  1  0.97073402  0.87307377  0.99985217  1
  H+  H110  1  0.86511221  0.88507851  0.49126888  1
  H+  H111  1  0.51820063  0.62637434  0.67520997  1
  H+  H112  1  0.48268864  0.36917683  0.81855674  1
  H+  H113  1  0.83872001  0.91752482  0.39967912  1
  H+  H114  1  -0.02159163  0.10719454  0.34276760  1
  H+  H115  1  0.72607864  0.84636402  0.66857129  1
  H+  H116  1  0.86145724  0.96933088  0.67450881  1
  H+  H117  1  0.52512729  0.40405127  0.02892563  1
  H+  H118  1  0.89419372  0.77371056  0.17517896  1
  H+  H119  1  0.89871665  0.62280679  0.32479790  1
  H+  H120  1  0.77835755  0.63874764  0.16818774  1
  H+  H121  1  0.62385150  0.38875374  0.49116838  1
  H+  H122  1  0.61595356  0.21186040  0.16967329  1
  H+  H123  1  -0.02050237  0.35983936  -0.02083329  1
  H+  H124  1  0.62007336  0.47815212  0.49003384  1
  H+  H125  1  0.63480434  0.77187920  0.99542906  1
  H+  H126  1  0.36654735  0.13779364  0.82082295  1
  H+  H127  1  0.52962406  0.89151742  -0.01240705  1
  H+  H128  1  0.72342680  0.85625057  0.32986496  1
  H+  H129  1  0.09124211  0.42526054  0.39355217  1
  H+  H130  1  0.62005647  0.72534171  0.16799848  1
  H+  H131  1  0.47924666  0.36419631  0.33257661  1
  H+  H132  1  0.09651427  0.61907081  0.66423834  1
  H+  H133  1  0.49507105  0.12064692  0.50048945  1
  H+  H134  1  0.15636657  0.39875888  0.18196050  1
  H+  H135  1  0.65314430  0.10296772  0.17532847  1
  H+  H136  1  0.10945423  -0.00933039  1.01249449  1
  H+  H137  1  1.01618810  0.13822613  0.50529790  1
  H+  H138  1  0.14026467  0.11605928  0.17636441  1
  H+  H139  1  0.87366347  0.23264591  0.34604350  1
  H+  H140  1  0.00784490  0.37600826  0.17300409  1
  H+  H141  1  0.25466597  0.61468145  0.14575896  1
  H+  H142  1  0.88778062  0.85851615  0.84082612  1
  H+  H143  1  0.78455948  0.90060106  0.49604641  1
  H+  H144  1  0.63344260  0.59837383  0.65767981  1
  H+  H145  1  0.65160660  0.27185803  -0.02444338  1
  H+  H146  1  0.27396328  0.87205990  0.15400312  1
  H+  H147  1  0.85087812  0.38817884  0.48495952  1
  H+  H148  1  0.87762887  0.23507813  0.67567862  1
  H+  H149  1  0.88538960  0.77975350  1.00089464  1
  H+  H150  1  0.13883479  0.11078363  0.69077096  1
  H+  H151  1  0.67253363  0.32886027  0.23395241  1
  H+  H152  1  0.22813045  0.35950307  0.83635119  1
  H+  H153  1  0.14322687  0.84996449  0.83797678  1
  H+  H154  1  0.88393990  0.76492073  0.65594585  1
  H+  H155  1  0.75324557  0.63676538  0.47847726  1
  H+  H156  1  0.38697488  0.97678409  0.66268467  1
  H+  H157  1  0.79486986  0.65316933  0.32354776  1
  H+  H158  1  -0.03353514  0.84736208  0.50200604  1
  H+  H159  1  0.36208861  0.99824475  0.18909224  1
  H+  H160  1  0.09384415  0.46385321  0.80699304  1
  H+  H161  1  0.39160733  0.52163895  0.82598339  1
  H+  H162  1  0.62453935  0.23963675  0.48654492  1
  H+  H163  1  0.85832243  0.47476519  0.34209633  1
  H+  H164  1  0.83936553  0.72867455  0.47668066  1
  H+  H165  1  0.73209082  0.36962586  0.32819666  1
  H+  H166  1  0.11535635  0.71205062  0.81902739  1
  H+  H167  1  0.62630401  0.15089358  0.48989309  1
  H+  H168  1  0.62439942  0.22103346  0.66983237  1
  H+  H169  1  0.15706191  0.37411120  0.50093905  1
  H+  H170  1  0.87715354  0.26514122  0.83283275  1
  H+  H171  1  0.61302572  0.71234467  0.67668833  1
  H+  H172  1  0.63714320  0.53356761  0.99922806  1
  H+  H173  1  0.87916827  0.38606683  0.67008929  1
  H+  H174  1  0.04748853  0.38897986  0.49258789  1
  H+  H175  1  0.64678255  0.35603624  0.65672870  1
  H+  H176  1  0.22710917  0.11161281  0.33782654  1
  H+  H177  1  0.77093034  0.63244856  0.66744479  1
  H+  H178  1  0.01727413  0.86720310  0.83611823  1
  H+  H179  1  0.64534764  0.27848250  0.32678875  1
  H+  H180  1  0.03246277  0.89036182  0.16123143  1
  H+  H181  1  0.47467749  0.19653130  0.27603079  1
  H+  H182  1  0.63872117  0.84839309  0.17359357  1
  H+  H183  1  0.89047434  0.27057365  -0.01159076  1
  H+  H184  1  0.28200691  0.38468518  0.49790938  1
  H+  H185  1  0.73347216  0.12153419  1.00094670  1
  H+  H186  1  0.23061993  0.61125726  0.31877861  1
  H+  H187  1  0.87849543  0.59864039  0.65681194  1
  H+  H188  1  1.00601294  0.64050657  1.00964718  1
  H+  H189  1  1.01002806  0.28793073  0.55203325  1
  H+  H190  1  0.86197729  0.50263061  0.98829722  1
  H+  H191  1  0.40546576  0.37570189  0.50939081  1
  H+  H192  1  0.41141757  0.12824558  0.50630990  1
  H+  H193  1  0.89269721  0.11346263  0.33900434  1
  H+  H194  1  0.31793086  0.16451004  0.51925120  1
  H+  H195  1  0.35563082  0.71287386  0.82377075  1
  H+  H196  1  0.86072945  0.13404856  1.00710068  1
  H+  H197  1  0.11975186  -0.01865770  0.16372603  1
  H+  H198  1  0.86536654  0.23489719  0.16254863  1
  H+  H199  1  0.64135827  1.03623627  0.50438160  1
  H+  H200  1  0.61757278  0.38616796  0.33848007  1
  H+  H201  1  0.31310197  0.57899412  0.12148810  1
  H+  H202  1  0.38092545  0.60720427  0.50970254  1
  H+  H203  1  0.36081072  0.71863245  0.48942771  1
  H+  H204  1  0.37183746  0.88822638  0.82574333  1
  H+  H205  1  0.85661663  0.63973236  1.01175345  1
  H+  H206  1  0.72472244  0.36884423  0.82558580  1
  H+  H207  1  0.07041899  0.64992329  0.72337449  1
  H+  H208  1  0.13591346  0.61533215  0.50712428  1
  H+  H209  1  0.83613282  0.41382328  0.09950657  1
  H+  H210  1  0.68722532  0.45737168  0.70688451  1
  H+  H211  1  0.88825679  0.51910799  0.49822542  1
  H+  H212  1  0.49790124  0.37811335  0.50601078  1
  H+  H213  1  0.28163338  0.38370607  0.65424839  1
  H+  H214  1  1.05544264  0.17069973  0.17121619  1
  H+  H215  1  0.12410890  0.51645837  0.16783109  1
  H+  H216  1  0.26253861  0.89066947  0.99609534  1
  H+  H217  1  0.62331539  0.47259752  0.17482328  1
  H+  H218  1  0.85375132  0.88263271  0.99822737  1
  H+  H219  1  -0.01043695  0.88009743  0.33659430  1
  H+  H220  1  0.60600957  0.88910681  0.83249916  1
  H+  H221  1  0.82909043  0.16728178  0.76412912  1
  H+  H222  1  0.51630669  0.86258550  0.65909436  1
  H+  H223  1  0.25038773  0.87325438  0.65027486  1
  H+  H224  1  0.37292088  0.76573540  0.35807975  1
  H+  H225  1  0.38787607  0.10980202  0.99523353  1
  H+  H226  1  0.36188729  0.89601822  0.49048184  1
  H+  H227  1  0.51608724  0.87185825  0.36397335  1
  H+  H228  1  0.64887871  1.10648476  0.66102216  1
  H+  H229  1  0.39550155  0.25371648  0.50142140  1
  H+  H230  1  0.06582072  0.26515165  0.27068327  1
  H+  H231  1  0.74244277  0.12118685  0.32706852  1
  H+  H232  1  0.14594594  0.28139444  0.51011934  1
  H+  H233  1  0.13541546  0.77212535  0.17066835  1
  H+  H234  1  0.27401191  0.37656124  0.34282024  1
  H+  H235  1  0.38589849  0.85316147  0.64752892  1
  H+  H236  1  0.61380960  0.23315955  0.82318692  1
  H+  H237  1  0.73258195  0.35124584  0.65233323  1
  H+  H238  1  0.73839082  0.37536855  0.49424484  1
  H+  H239  1  0.62680143  0.60724125  0.50461385  1
  H+  H240  1  0.78380141  0.14710200  0.66891903  1
  H+  H241  1  0.90807238  0.07450535  0.57200550  1
  H+  H242  1  0.12184426  0.87533615  0.99972117  1
  H+  H243  1  0.86552153  0.63538860  0.16476184  1
  H+  H244  1  0.33402994  0.66198094  0.75967724  1
  H+  H245  1  0.22992176  0.10110855  0.83757941  1
  H+  H246  1  0.21838959  0.59006508  0.81245452  1
  H+  H247  1  0.52068812  0.63315123  0.49947726  1
  H+  H248  1  0.38878948  0.60706067  0.98214702  1
  H+  H249  1  0.63089287  0.96774749  0.16033378  1
  H+  H250  1  0.36827156  -0.01232835  0.49511000  1
  H+  H251  1  0.73357717  0.12384793  0.50503770  1
  H+  H252  1  0.93647665  0.17967684  0.19595051  1
  H+  H253  1  0.52761206  0.63857336  0.00705900  1
  H+  H254  1  0.88148239  0.22566095  0.50459677  1
  H+  H255  1  0.36214897  0.22445880  0.81926058  1
  H+  H256  1  0.27794196  0.41454531  0.16538688  1
  H+  H257  1  0.47846105  0.86763682  0.49603795  1
  H+  H258  1  0.35824520  0.71881427  -0.00827694  1
  H+  H259  1  0.63305012  0.84021601  0.66498765  1
  H+  H260  1  0.13117261  0.59606052  0.81535406  1
  H+  H261  1  0.48533359  0.35049823  0.17898135  1
  H+  H262  1  0.36789936  0.47312254  0.00335073  1
  H+  H263  1  0.86901447  0.97870994  0.33994719  1
  H+  H264  1  0.62051814  0.90638364  0.50545584  1
  H+  H265  1  0.38423317  0.51492267  0.32745406  1
  H+  H266  1  0.65559326  0.12307731  0.32068859  1
  H+  H267  1  0.89363770  0.78384212  0.32934627  1
  H+  H268  1  0.22827484  0.60033645  0.96220993  1
  H+  H269  1  0.11575485  0.50429140  0.65403305  1
  H+  H270  1  0.34951956  0.07988782  0.18668589  1
  H+  H271  1  0.63334660  1.03050764  0.84821864  1
  H+  H272  1  0.64544765  0.51529240  0.65864364  1
  H+  H273  1  0.85807195  0.63008050  0.82259782  1
  H+  H274  1  0.10176712  0.34456635  0.31719208  1
  H+  H275  1  0.51819300  0.63095985  0.34303547  1
  H+  H276  1  0.88798761  0.87873276  0.33518093  1
  H+  H277  1  0.20912298  0.16292758  0.97255420  1
  H+  H278  1  0.13924443  0.11342221  0.33962420  1
  H+  H279  1  0.87819375  0.10843839  0.83430252  1
  H+  H280  1  0.36620979  0.39130938  0.80949589  1
  H+  H281  1  0.38829201  0.27586062  0.33577504  1
  H+  H282  1  0.72842818  0.35432522  0.17269916  1
  H+  H283  1  0.91304754  0.82887951  0.90237669  1
  H+  H284  1  0.60647080  0.47371024  0.81975614  1
  H+  H285  1  0.11053180  0.72474860  0.49384515  1
  H+  H286  1  0.50000410  0.38185642  0.66386442  1
  H+  H287  1  0.97553042  0.60237263  0.33062291  1
  H+  H288  1  0.90699266  0.57149463  0.88884498  1
  H+  H289  1  0.38839787  0.52478619  0.65808274  1
  H+  H290  1  0.88062947  0.36630837  0.33511785  1
  H+  H291  1  0.92468781  0.83930803  0.23113781  1
  H+  H292  1  0.90424786  0.81984044  0.55991876  1
  H+  H293  1  0.96733644  0.59746746  0.65700168  1
  H+  H294  1  0.17386165  0.83552556  0.56250070  1
  H+  H295  1  0.21021164  0.58871791  0.65984824  1
  H+  H296  1  0.90334700  0.07596427  0.92715302  1
  H+  H297  1  0.22491056  0.86729432  0.50044581  1
  H+  H298  1  0.42107741  0.57644075  0.26910704  1
  H+  H299  1  0.07046572  0.66519159  0.10258736  1
  H+  H300  1  0.18499742  0.36221848  0.23677570  1
  H+  H301  1  0.59279990  0.16630149  0.73158259  1
  H+  H302  1  0.56932589  0.91340609  0.77558317  1
  H+  H303  1  0.59077562  0.66316092  0.10681700  1
  H+  H304  1  0.57886669  0.65351556  0.75604594  1
  H+  H305  1  0.91104897  0.32637250  0.89308301  1
  H+  H306  1  0.06387352  0.19452138  0.72819883  1
  H+  H307  1  0.33215384  0.15029795  0.08201591  1
  H+  H308  1  0.59616498  0.17471689  0.39513737  1
  H+  H309  1  0.83670553  0.68000852  0.38816688  1
  H+  H310  1  0.07382432  0.88899007  0.77694290  1
  H+  H311  1  0.32848951  0.91326602  0.09422509  1
  H+  H312  1  0.68866573  0.08029029  0.23317367  1
  H+  H313  1  0.34124691  0.41541288  0.43853109  1
  H+  H314  1  0.95580276  0.13654215  0.25202691  1
  H+  H315  1  0.04244434  0.39255233  0.75030434  1
  H+  H316  1  0.83443955  0.67172359  0.07352154  1
  H+  H317  1  0.96024023  0.32702563  0.58334532  1
  H+  H318  1  0.82665177  0.41794631  0.40689121  1
  H+  H319  1  0.56332608  0.13394611  0.12409830  1
  H+  H320  1  0.28783652  0.89173653  0.81341495  1
  H+  H321  1  0.16505630  0.58126608  0.22381343  1
  H+  H322  1  0.42099512  0.58699080  0.60101490  1
  H+  H323  1  0.66507242  0.57776133  0.56040278  1
  H+  H324  1  0.08651257  0.43838850  0.04062599  1
  H+  H325  1  0.68111049  0.33716336  0.92053761  1
  H+  H326  1  0.60536280  0.95024709  0.66322573  1
  H+  H327  1  0.90893310  0.33711977  0.24226893  1
  H+  H328  1  0.37724329  0.86123420  0.99575175  1
  H+  H329  1  0.60682256  0.63026291  0.34803451  1
  H+  H330  1  0.40203684  0.81482779  0.58669897  1
  H+  H331  1  0.43561021  0.07916068  0.59687351  1
  H+  H332  1  0.58697717  0.41149402  0.40069326  1
  H+  H333  1  0.83696229  0.90974096  0.76712664  1
  H+  H334  1  0.91471857  0.57868751  0.23349578  1
  H+  H335  1  0.50214902  0.91835442  0.25759395  1
  H+  H336  1  0.44597227  0.35476461  0.60196513  1
  H+  H337  1  0.26912327  0.63199050  0.49613691  1
  H+  H338  1  0.11316032  0.97146418  0.67782349  1
  H+  H339  1  0.83443209  0.41250726  0.75586908  1
  H+  H340  1  0.40092892  0.81608198  0.90449791  1
  H+  H341  1  0.84537205  0.17452621  0.40620460  1
  H+  H342  1  0.13989209  0.60752924  0.32167482  1
  H+  H343  1  0.41793591  0.08745434  0.93098260  1
  H+  H344  1  0.67545915  0.33734930  0.55566032  1
  H+  H345  1  0.46386254  0.89420478  0.23723958  1
  H+  H346  1  0.59515199  0.43605189  0.07972641  1
  H+  H347  1  0.17494158  0.08438210  0.92701056  1
  H+  H348  1  0.07380603  0.63845719  0.41205880  1
  H+  H349  1  0.08587887  0.16902083  0.41312394  1
  H+  H350  1  0.23729079  0.16628277  0.66788225  1
  H+  H351  1  0.82841728  0.66227975  0.72792787  1
  H+  H352  1  0.63539960  0.86440435  0.98271437  1
  H+  H353  1  0.16118512  0.57678492  0.56441662  1
  H+  H354  1  0.19502358  0.82625538  0.88584149  1
  H+  H355  1  0.32224741  0.64651821  0.40051965  1
  H+  H356  1  0.17212837  0.32381050  0.89650908  1
  H+  H357  1  0.67294303  0.58867230  0.24278628  1
  H+  H358  1  0.80352370  0.52938384  0.95407883  1
  H+  H359  1  0.60536646  0.87354849  0.35152733  1
  H+  H360  1  0.31817882  0.64921682  0.04340988  1
  H+  H361  1  0.08322305  0.93059286  0.07214035  1
  H+  H362  1  0.42005521  0.34899966  0.87538970  1
  H+  H363  1  0.16792603  0.56574099  0.90289042  1
  H+  H364  1  0.42252641  0.32368074  0.23567394  1
  H+  H365  1  0.10785867  0.82102120  0.94150970  1
  H+  H366  1  0.33240274  0.17993213  0.72723755  1
  H+  H367  1  0.91609562  0.57173056  0.56053539  1
  H+  H368  1  0.17295571  0.84057686  0.26459418  1
  H+  H369  1  0.84926364  0.93859367  0.10902839  1
  H+  H370  1  0.07703704  0.91244489  0.40262040  1
  H+  H371  1  0.66002034  0.81616745  0.23615665  1
  H+  H372  1  0.10986258  0.87359705  0.49497852  1
  H+  H373  1  0.58103673  0.21092133  0.05018474  1
  H+  H374  1  0.67152067  0.09429916  0.90486596  1
  H+  H375  1  0.34186915  0.17296366  0.40748806  1
  H+  H376  1  0.05461348  0.36007450  0.11818825  1
  H+  H377  1  0.35558802  0.91670047  0.72237516  1
  H+  H378  1  0.16584795  0.08373308  0.23759728  1
  H+  H379  1  0.64006363  0.51793655  0.34512696  1
  H+  H380  1  0.33627662  0.42827820  0.09610303  1
  H+  H381  1  0.58884194  0.92066565  0.43983702  1
  H+  H382  1  0.75135192  0.87498911  0.99324164  1
  H+  H383  1  0.43773938  0.31332758  0.96644438  1
  O2-  O384  1  0.10250276  0.17260540  0.14639820  1
  O2-  O385  1  0.07806384  0.16683413  0.49215825  1
  O2-  O386  1  0.07323217  0.17594421  0.79304855  1
  O2-  O387  1  0.06668673  0.39918784  0.15219822  1
  O2-  O388  1  0.10157636  0.42627571  0.46990456  1
  O2-  O389  1  0.05113376  0.40056996  0.79624180  1
  O2-  O390  1  0.07468222  0.66489178  0.14809493  1
  O2-  O391  1  0.08309120  0.66309370  0.48197027  1
  O2-  O392  1  0.08155439  0.65185667  0.80488487  1
  O2-  O393  1  0.09213657  0.92285680  0.14438403  1
  O2-  O394  1  0.07296523  0.89915096  0.47961181  1
  O2-  O395  1  0.07848787  0.89164651  0.82109978  1
  O2-  O396  1  0.33101921  0.15634768  0.15138636  1
  O2-  O397  1  0.36290256  0.19031414  0.48884922  1
  O2-  O398  1  0.33198921  0.16363750  0.80570653  1
  O2-  O399  1  0.33830209  0.43537668  0.14257836  1
  O2-  O400  1  0.34413186  0.41642343  0.48356773  1
  O2-  O401  1  0.33600916  0.42403211  0.80030825  1
  O2-  O402  1  0.31189114  0.63233565  0.12536660  1
  O2-  O403  1  0.32909371  0.65606233  0.47966359  1
  O2-  O404  1  0.33273388  0.65497686  0.80524427  1
  O2-  O405  1  0.33415794  0.90185846  0.13748864  1
  O2-  O406  1  0.33060560  0.92707529  0.48098800  1
  O2-  O407  1  0.35042605  0.92359005  0.80570628  1
  O2-  O408  1  0.58768635  0.14837925  0.16473962  1
  O2-  O409  1  0.59411081  0.17789785  0.47228810  1
  O2-  O410  1  0.58285090  0.17083090  0.81157121  1
  O2-  O411  1  0.59350008  0.41532704  0.15522373  1
  O2-  O412  1  0.58986930  0.41677102  0.47548328  1
  O2-  O413  1  0.57829176  0.41533106  0.80231917  1
  O2-  O414  1  0.58971379  0.66033025  0.15193013  1
  O2-  O415  1  0.58099160  0.65990695  0.48512964  1
  O2-  O416  1  0.57845972  0.65596855  0.80594091  1
  O2-  O417  1  0.60631634  0.90944064  0.14211062  1
  O2-  O418  1  0.58730866  0.93013827  0.48626864  1
  O2-  O419  1  0.57177491  0.91639477  0.82031667  1
  O2-  O420  1  0.85020269  0.17695986  0.14732327  1
  O2-  O421  1  0.84018850  0.17018293  0.48475875  1
  O2-  O422  1  0.82901862  0.16670562  0.80996764  1
  O2-  O423  1  0.83337911  0.41402876  0.14482557  1
  O2-  O424  1  0.82360536  0.41968152  0.47010941  1
  O2-  O425  1  0.83097382  0.41650233  0.80177219  1
  O2-  O426  1  0.83731276  0.66859473  0.15041206  1
  O2-  O427  1  0.80288660  0.67649196  0.45205499  1
  O2-  O428  1  0.82603060  0.66008302  0.81071429  1
  O2-  O429  1  0.90416886  0.96461773  0.13008762  1
  O2-  O430  1  0.84061498  0.92087776  0.47514817  1
  O2-  O431  1  0.83668489  0.91107873  0.81276282  1
  O2-  O432  1  0.16827197  0.08293649  0.19264685  1
  O2-  O433  1  0.13522619  0.05978643  0.55195172  1
  O2-  O434  1  0.17345823  0.06840755  0.85871619  1
  O2-  O435  1  0.20784351  0.40144516  0.20102533  1
  O2-  O436  1  0.18340117  0.34275454  0.52011273  1
  O2-  O437  1  0.16902151  0.32467890  0.85180337  1
  O2-  O438  1  0.16031990  0.57790450  0.17805780  1
  O2-  O439  1  0.16710327  0.58404322  0.51929380  1
  O2-  O440  1  0.15652011  0.55828227  0.82431824  1
  O2-  O441  1  0.17323996  0.83347682  0.18235411  1
  O2-  O442  1  0.16481755  0.83360604  0.51653556  1
  O2-  O443  1  0.17971803  0.82270443  0.84297439  1
  O2-  O444  1  0.35685483  0.04052530  0.21447424  1
  O2-  O445  1  0.43484656  0.09057471  0.51728465  1
  O2-  O446  1  0.41947428  0.08812871  0.85282325  1
  O2-  O447  1  0.42416572  0.31564829  0.19133203  1
  O2-  O448  1  0.43854869  0.34858095  0.52566056  1
  O2-  O449  1  0.41872242  0.33880341  0.83189117  1
  O2-  O450  1  0.43480053  0.58725669  0.18825153  1
  O2-  O451  1  0.41354263  0.58025249  0.52685099  1
  O2-  O452  1  0.42582265  0.58275018  0.84228577  1
  O2-  O453  1  0.42111087  0.82003339  0.11561643  1
  O2-  O454  1  0.41425410  0.83214729  0.49185091  1
  O2-  O455  1  0.40480160  0.81886911  0.85998376  1
  O2-  O456  1  0.68813005  0.07632322  0.18703292  1
  O2-  O457  1  0.67322380  0.09678252  0.52018680  1
  O2-  O458  1  0.66777389  0.09202391  0.85938406  1
  O2-  O459  1  0.66832368  0.32319581  0.18839352  1
  O2-  O460  1  0.67319367  0.34101178  0.51072698  1
  O2-  O461  1  0.66594997  0.33854243  0.84373765  1
  O2-  O462  1  0.67420936  0.58467803  0.19853583  1
  O2-  O463  1  0.66094787  0.57746695  0.51518106  1
  O2-  O464  1  0.66201512  0.58758491  0.85307412  1
  O2-  O465  1  0.66036105  0.81074985  0.19117537  1
  O2-  O466  1  0.70540595  0.89675620  0.54466178  1
  O2-  O467  1  0.66300808  0.83332306  0.85201045  1
  O2-  O468  1  0.98392181  0.18290891  0.22121490  1
  O2-  O469  1  0.91286347  0.07982944  0.52636404  1
  O2-  O470  1  0.91021667  0.08087748  0.85100758  1
  O2-  O471  1  0.91378292  0.33803729  0.19655057  1
  O2-  O472  1  0.97136945  0.30929149  0.54133115  1
  O2-  O473  1  0.90901574  0.32739284  0.84718784  1
  O2-  O474  1  0.91150512  0.57823764  0.18789633  1
  O2-  O475  1  0.92520069  0.57823031  0.51599604  1
  O2-  O476  1  0.91532913  0.57869776  0.84424765  1
  O2-  O477  1  0.92930526  0.83560695  0.18693863  1
  O2-  O478  1  0.90549799  0.82456972  0.51458704  1
  O2-  O479  1  0.91596367  0.82646414  0.85718227  1
  O2-  O480  1  0.16637485  0.08083043  0.32314680  1
  O2-  O481  1  0.17242648  0.14242870  0.65540275  1
  O2-  O482  1  0.17714674  0.10025672  0.97275296  1
  O2-  O483  1  0.11564978  0.30262569  0.29724923  1
  O2-  O484  1  0.09041215  0.35868034  0.64790544  1
  O2-  O485  1  0.16259651  0.32185568  0.98154536  1
  O2-  O486  1  0.17171625  0.58358195  0.29978126  1
  O2-  O487  1  0.15219040  0.56460366  0.64142247  1
  O2-  O488  1  0.16802455  0.56656880  0.94801459  1
  O2-  O489  1  0.17219835  0.83991206  0.30966349  1
  O2-  O490  1  0.19088509  0.84489479  0.63348228  1
  O2-  O491  1  0.14213741  0.83839281  0.97861579  1
  O2-  O492  1  0.44655643  0.14388941  0.29998412  1
  O2-  O493  1  0.43285739  0.07144686  0.64164307  1
  O2-  O494  1  0.41877271  0.08218998  0.97644661  1
  O2-  O495  1  0.41820832  0.33515140  0.31816271  1
  O2-  O496  1  0.44140109  0.35558742  0.64758265  1
  O2-  O497  1  0.41021858  0.31680306  1.00356676  1
  O2-  O498  1  0.41532488  0.57615251  0.31396928  1
  O2-  O499  1  0.42180295  0.58684721  0.64716406  1
  O2-  O500  1  0.42100313  0.57626599  0.97259465  1
  O2-  O501  1  0.40518055  0.82585570  0.37258201  1
  O2-  O502  1  0.40754889  0.81446816  0.63103618  1
  O2-  O503  1  0.41101404  0.83068437  0.99635641  1
  O2-  O504  1  0.68666597  0.09427346  0.30575082  1
  O2-  O505  1  0.68031363  0.07908815  0.64275889  1
  O2-  O506  1  0.67381014  0.09199184  0.98372095  1
  O2-  O507  1  0.67159524  0.33912130  0.31093428  1
  O2-  O508  1  0.67175646  0.32233433  0.63805642  1
  O2-  O509  1  0.68827781  0.33270177  0.96512813  1
  O2-  O510  1  0.67266767  0.58342735  0.34207254  1
  O2-  O511  1  0.66807797  0.57523330  0.63987216  1
  O2-  O512  1  0.66810054  0.59149588  0.97794950  1
  O2-  O513  1  0.66316630  0.82612402  0.31620567  1
  O2-  O514  1  0.66631647  0.81173750  0.65192038  1
  O2-  O515  1  0.66718090  0.83013571  0.97533935  1
  O2-  O516  1  0.92050924  0.08042390  0.32332381  1
  O2-  O517  1  0.90534901  0.07392453  0.64804743  1
  O2-  O518  1  0.89920734  0.06978462  0.97290198  1
  O2-  O519  1  0.91167579  0.33655690  0.31810345  1
  O2-  O520  1  0.94781013  0.34394808  0.65352328  1
  O2-  O521  1  0.91709979  0.32843515  0.96840825  1
  O2-  O522  1  0.91917138  0.58380139  0.31044368  1
  O2-  O523  1  0.90513199  0.56532863  0.64215648  1
  O2-  O524  1  0.86329539  0.55355869  0.96672961  1
  O2-  O525  1  0.92425143  0.84853837  0.31891892  1
  O2-  O526  1  0.91049441  0.82482010  0.63858456  1
  O2-  O527  1  0.91132815  0.83886562  0.98284744  1
  O2-  O528  1  0.06033226  0.15355046  0.01729585  1
  O2-  O529  1  0.08472148  0.16285396  0.36792474  1
  O2-  O530  1  0.05819666  0.20297901  0.68176918  1
  O2-  O531  1  0.08639630  0.42012962  -0.00110463  1
  O2-  O532  1  0.08232094  0.42055334  0.34824643  1
  O2-  O533  1  0.03483927  0.38841680  0.67694189  1
  O2-  O534  1  0.06341485  0.66965194  0.02707670  1
  O2-  O535  1  0.06081617  0.60793781  0.37078347  1
  O2-  O536  1  0.06322894  0.64572323  0.67882188  1
  O2-  O537  1  0.07815293  0.93046479  0.02586512  1
  O2-  O538  1  0.07368105  0.91782327  0.35738231  1
  O2-  O539  1  0.09030183  0.92887163  0.64541707  1
  O2-  O540  1  0.33526582  0.15209679  0.03501178  1
  O2-  O541  1  0.33387017  0.17161320  0.36284325  1
  O2-  O542  1  0.32554918  0.19038610  0.68364322  1
  O2-  O543  1  0.33620745  0.41648414  0.02500160  1
  O2-  O544  1  0.33362278  0.41112675  0.35580741  1
  O2-  O545  1  0.33586968  0.41673857  0.67586509  1
  O2-  O546  1  0.33000348  0.65558002  -0.00090116  1
  O2-  O547  1  0.32399447  0.65133452  0.35514937  1
  O2-  O548  1  0.32172466  0.65481568  0.68349803  1
  O2-  O549  1  0.32229831  0.91498381  0.00991760  1
  O2-  O550  1  0.33498915  0.91777249  0.35489915  1
  O2-  O551  1  0.35348445  0.91402510  0.67740796  1
  O2-  O552  1  0.57889763  0.16910370  0.02107606  1
  O2-  O553  1  0.59936989  0.17680188  0.34959662  1
  O2-  O554  1  0.59757850  0.16143118  0.68681878  1
  O2-  O555  1  0.58649804  0.44322506  0.03567762  1
  O2-  O556  1  0.58610041  0.41530077  0.35485695  1
  O2-  O557  1  0.62697497  0.43083724  0.69469768  1
  O2-  O558  1  0.58698050  0.67187060  0.02341576  1
  O2-  O559  1  0.57817552  0.66336212  0.35909186  1
  O2-  O560  1  0.57818030  0.65194775  0.69341788  1
  O2-  O561  1  0.59174781  0.91642456  -0.01914839  1
  O2-  O562  1  0.57874370  0.90321847  0.37230866  1
  O2-  O563  1  0.57393255  0.89092210  0.67919629  1
  O2-  O564  1  0.83876287  0.17111616  0.02335923  1
  O2-  O565  1  0.84907421  0.17244035  0.36102650  1
  O2-  O566  1  0.84170064  0.17373458  0.68879822  1
  O2-  O567  1  0.83893157  0.41163256  0.01957862  1
  O2-  O568  1  0.82898698  0.41493326  0.35724963  1
  O2-  O569  1  0.83870579  0.40652064  0.68217600  1
  O2-  O570  1  0.83415562  0.67601417  0.02779853  1
  O2-  O571  1  0.85206492  0.68645467  0.34244980  1
  O2-  O572  1  0.83168823  0.66390411  0.68284242  1
  O2-  O573  1  0.81866416  0.91181450  0.00725782  1
  O2-  O574  1  0.84119969  0.91633088  0.35382269  1
  O2-  O575  1  0.83349399  0.90855518  0.68932206  1
