# generated using pymatgen
data_H2O
_symmetry_space_group_name_H-M   'P 1'
_cell_length_a   17.98619821
_cell_length_b   17.99007439
_cell_length_c   22.00477834
_cell_angle_alpha   89.99939917
_cell_angle_beta   90.00528984
_cell_angle_gamma   119.99769517
_symmetry_Int_Tables_number   1
_chemical_formula_structural   H2O
_chemical_formula_sum   'H384 O192'
_cell_volume   6166.37664301
_cell_formula_units_Z   192
loop_
 _symmetry_equiv_pos_site_id
 _symmetry_equiv_pos_as_xyz
  1  'x, y, z'
loop_
 _atom_type_symbol
 _atom_type_oxidation_number
  H+  1.0
  O2-  -2.0
loop_
 _atom_site_type_symbol
 _atom_site_label
 _atom_site_symmetry_multiplicity
 _atom_site_fract_x
 _atom_site_fract_y
 _atom_site_fract_z
 _atom_site_occupancy
  H+  H0  1  1.02131318  0.13427468  0.35257197  1
  H+  H1  1  0.52471723  0.88710789  0.69222407  1
  H+  H2  1  0.39223940  0.28026935  0.64193779  1
  H+  H3  1  0.61535299  0.63592582  0.34344735  1
  H+  H4  1  0.91493820  0.13352335  0.83496505  1
  H+  H5  1  0.55129081  0.35496564  0.71712536  1
  H+  H6  1  0.72158560  0.76268832  0.14138142  1
  H+  H7  1  0.23021302  0.36841904  0.99729971  1
  H+  H8  1  0.61630830  0.63728396  0.00521155  1
  H+  H9  1  0.80468364  0.70960969  0.13375663  1
  H+  H10  1  0.28153927  0.65164451  0.16239549  1
  H+  H11  1  0.12173036  0.73827311  0.51045492  1
  H+  H12  1  0.47270616  0.10558770  0.84667219  1
  H+  H13  1  0.14362116  0.53912611  0.50564204  1
  H+  H14  1  0.37218180  0.49101926  0.85560390  1
  H+  H15  1  0.28050366  0.16228035  0.66342206  1
  H+  H16  1  0.39325356  0.03209014  0.66378358  1
  H+  H17  1  0.38980976  0.61599386  0.50581401  1
  H+  H18  1  0.12041871  0.84109726  0.31707550  1
  H+  H19  1  0.88673442  0.15416700  0.19247664  1
  H+  H20  1  0.89323155  0.28476772  0.32548637  1
  H+  H21  1  0.38365185  0.12072722  0.31817954  1
  H+  H22  1  0.58197896  0.41885092  0.39483340  1
  H+  H23  1  0.47399992  0.60065762  0.33344902  1
  H+  H24  1  0.86540381  0.90174902  0.35106398  1
  H+  H25  1  0.88566959  0.60595500  0.99108238  1
  H+  H26  1  0.97515875  0.38558240  0.31737281  1
  H+  H27  1  0.89198568  0.27466694  0.66210184  1
  H+  H28  1  0.85044468  0.38604423  0.34028265  1
  H+  H29  1  0.71957293  0.59578978  0.16964860  1
  H+  H30  1  0.39112587  0.26941111  0.17174974  1
  H+  H31  1  0.88515557  0.40960649  0.49542195  1
  H+  H32  1  0.72690076  0.61104794  0.50634782  1
  H+  H33  1  0.62306920  0.35486003  0.50021949  1
  H+  H34  1  0.89098219  0.53075907  0.66128462  1
  H+  H35  1  0.61580598  0.63961248  0.49783989  1
  H+  H36  1  0.39684988  0.78147739  0.67029758  1
  H+  H37  1  0.65573510  0.87114403  0.99825212  1
  H+  H38  1  0.88108506  0.77397752  0.33882224  1
  H+  H39  1  0.77906691  0.38781598  0.66456704  1
  H+  H40  1  1.00397556  0.60903838  0.32829131  1
  H+  H41  1  0.86695729  0.33978613  0.82192435  1
  H+  H42  1  0.17782627  0.10455801  0.59444900  1
  H+  H43  1  0.32716163  0.93510137  0.45417622  1
  H+  H44  1  0.19324673  0.19647932  0.61775832  1
  H+  H45  1  0.23273329  0.09528093  0.51283693  1
  H+  H46  1  0.17700563  0.49723880  0.79455008  1
  H+  H47  1  0.03330158  0.14068669  0.51040780  1
  H+  H48  1  0.96898826  0.85430375  0.50846021  1
  H+  H49  1  0.11518661  0.21551154  0.34577143  1
  H+  H50  1  0.37150711  0.73686879  1.01165550  1
  H+  H51  1  0.58783915  0.75309672  0.32289763  1
  H+  H52  1  0.85450186  0.92837601  0.05063361  1
  H+  H53  1  0.02346102  0.07845651  0.16677753  1
  H+  H54  1  0.10222296  0.38882940  0.17376018  1
  H+  H55  1  0.14240629  1.00746333  0.51732893  1
  H+  H56  1  0.67307165  0.02196012  0.61380379  1
  H+  H57  1  0.86458259  0.82420858  0.17700027  1
  H+  H58  1  0.27622040  0.15594847  0.00235845  1
  H+  H59  1  0.43431018  0.76839826  0.52000030  1
  H+  H60  1  1.00826121  0.08449984  0.13612391  1
  H+  H61  1  0.10059045  0.68425479  0.32253334  1
  H+  H62  1  -0.02749997  0.36072838  0.03795381  1
  H+  H63  1  0.60650199  0.37552981  0.15638354  1
  H+  H64  1  0.14225036  0.40852431  0.02782063  1
  H+  H65  1  0.26929577  0.13308055  0.34179716  1
  H+  H66  1  0.11703047  0.23577195  0.00693285  1
  H+  H67  1  0.34399683  0.69304458  0.33197323  1
  H+  H68  1  0.47850088  0.62146400  0.84714634  1
  H+  H69  1  0.38854398  0.89562334  0.17469013  1
  H+  H70  1  0.47235523  0.11792316  0.31656726  1
  H+  H71  1  0.27945035  0.65330939  0.83621484  1
  H+  H72  1  0.63438808  0.26490678  0.16660905  1
  H+  H73  1  0.52778276  0.38596839  0.00106200  1
  H+  H74  1  0.64241296  0.37952656  0.83612286  1
  H+  H75  1  0.63810445  0.77692918  0.51739882  1
  H+  H76  1  0.38091373  0.35919807  0.32508597  1
  H+  H77  1  0.60153860  0.12428618  0.83166921  1
  H+  H78  1  -0.01270021  0.37375659  0.17296345  1
  H+  H79  1  0.64455157  0.26041415  0.98513469  1
  H+  H80  1  0.87708457  0.52784350  0.16968237  1
  H+  H81  1  0.64742019  1.03348241  0.17069093  1
  H+  H82  1  0.88839349  0.84621124  1.00298276  1
  H+  H83  1  0.14796090  0.88337479  0.84260762  1
  H+  H84  1  0.38739218  0.86872230  0.99831773  1
  H+  H85  1  0.19544734  0.82286357  0.93086119  1
  H+  H86  1  1.01200145  0.63927254  0.16198338  1
  H+  H87  1  0.86409714  0.63172902  0.82483979  1
  H+  H88  1  0.10539111  0.97519749  0.67127985  1
  H+  H89  1  0.37532157  0.85803058  0.50371836  1
  H+  H90  1  0.38620219  0.78040772  0.84710819  1
  H+  H91  1  0.99066393  0.34982721  1.01112499  1
  H+  H92  1  0.86990014  0.15928227  0.62685359  1
  H+  H93  1  0.61444743  0.62837201  0.15939094  1
  H+  H94  1  0.36357802  0.15010347  0.00177176  1
  H+  H95  1  0.24880882  0.89181142  0.01409674  1
  H+  H96  1  0.59867995  0.22157059  0.48562469  1
  H+  H97  1  0.13490483  0.02052801  0.84304491  1
  H+  H98  1  0.14134015  0.11300774  0.84112225  1
  H+  H99  1  0.89964838  0.77537289  0.84502452  1
  H+  H100  1  0.88183329  0.12085470  0.99744398  1
  H+  H101  1  0.57985477  0.91684391  0.78771009  1
  H+  H102  1  0.09962972  0.87493813  0.49864765  1
  H+  H103  1  0.64133078  0.02721909  0.50373387  1
  H+  H104  1  0.66802338  0.57366153  0.23280277  1
  H+  H105  1  0.85993601  0.88065230  0.50209218  1
  H+  H106  1  0.61878904  0.96974635  0.69517410  1
  H+  H107  1  0.58813087  0.84209437  0.33331101  1
  H+  H108  1  0.92319147  0.70923174  0.37630453  1
  H+  H109  1  0.35379634  0.36840995  0.15610248  1
  H+  H110  1  0.22200253  0.37134496  0.17499810  1
  H+  H111  1  0.25823984  0.60222037  0.34997300  1
  H+  H112  1  0.24659919  0.61914092  0.65707888  1
  H+  H113  1  0.11656537  -0.01398479  1.01249209  1
  H+  H114  1  0.38175323  0.39178961  0.64892618  1
  H+  H115  1  0.52357187  0.85601051  0.52241600  1
  H+  H116  1  0.49525903  0.64441154  0.17714886  1
  H+  H117  1  0.62609596  0.90009526  0.16561583  1
  H+  H118  1  0.11591247  -0.01318631  0.16822573  1
  H+  H119  1  -0.01538422  0.85888277  0.00137964  1
  H+  H120  1  0.14701505  0.65126136  0.85449127  1
  H+  H121  1  0.02493156  0.64171323  0.50964008  1
  H+  H122  1  0.01689106  0.88732125  0.67168767  1
  H+  H123  1  0.36741218  0.15081133  0.49442992  1
  H+  H124  1  0.01763478  0.40118482  0.67667776  1
  H+  H125  1  0.86020173  0.24732394  0.82308203  1
  H+  H126  1  0.86546611  0.64361325  0.67408659  1
  H+  H127  1  0.89049870  0.28771692  0.50389616  1
  H+  H128  1  1.02186125  0.90447957  0.16764550  1
  H+  H129  1  0.53491558  0.13609288  0.67095680  1
  H+  H130  1  0.67078701  0.58596130  0.93622823  1
  H+  H131  1  0.90639324  0.53716870  0.50836482  1
  H+  H132  1  0.53279449  0.90334282  0.00685399  1
  H+  H133  1  0.34469465  0.03074472  1.00691477  1
  H+  H134  1  0.71717395  0.35947270  0.32531112  1
  H+  H135  1  0.84464379  0.22043877  1.00068530  1
  H+  H136  1  -0.00052345  0.32660670  0.81327456  1
  H+  H137  1  0.64905018  0.26952249  0.65467854  1
  H+  H138  1  0.14379128  0.53598599  0.18346974  1
  H+  H139  1  0.88470345  0.03523827  0.98454988  1
  H+  H140  1  0.38676186  0.52552379  0.50631116  1
  H+  H141  1  0.88617576  0.03460029  0.34734406  1
  H+  H142  1  0.33535953  0.18276791  0.72449030  1
  H+  H143  1  0.36476039  0.64509897  0.83654929  1
  H+  H144  1  0.74816893  0.09120617  0.65592342  1
  H+  H145  1  0.47033911  0.78400251  0.28789511  1
  H+  H146  1  0.36674863  0.48555714  0.00811907  1
  H+  H147  1  0.50099116  0.87586594  0.36881141  1
  H+  H148  1  0.61141415  0.47860352  0.49030757  1
  H+  H149  1  0.85865964  0.39444384  0.16075687  1
  H+  H150  1  0.14676456  0.50034080  0.02860611  1
  H+  H151  1  0.37580966  0.64533892  0.67861203  1
  H+  H152  1  0.88122699  0.51379024  -0.00618337  1
  H+  H153  1  0.22371334  0.26206626  0.12799150  1
  H+  H154  1  0.64147025  0.52216494  0.99360446  1
  H+  H155  1  0.26760951  0.38951158  0.49344357  1
  H+  H156  1  0.66010651  0.82543331  0.61648430  1
  H+  H157  1  0.83570861  0.92770363  0.41100396  1
  H+  H158  1  0.12807748  0.76025043  0.83609791  1
  H+  H159  1  0.35874395  0.47035632  0.33761320  1
  H+  H160  1  0.88380464  0.36020016  0.66104372  1
  H+  H161  1  0.64605199  0.13067983  0.32314093  1
  H+  H162  1  0.76892273  0.16085048  0.49250620  1
  H+  H163  1  0.87949471  0.76466662  0.50966046  1
  H+  H164  1  0.23850690  0.88287212  0.83686172  1
  H+  H165  1  0.16392539  0.45493941  0.33687588  1
  H+  H166  1  0.91502031  0.77772190  0.19129799  1
  H+  H167  1  0.73744993  0.85428620  0.00352567  1
  H+  H168  1  0.57556188  0.91533175  0.41962930  1
  H+  H169  1  0.23644735  0.81830154  0.18443577  1
  H+  H170  1  0.85364430  0.46257687  0.82179739  1
  H+  H171  1  0.34913803  0.84529401  0.53240200  1
  H+  H172  1  0.36838276  0.98333359  0.82967739  1
  H+  H173  1  0.18288802  0.48480960  0.82611177  1
  H+  H174  1  0.38864705  0.37229229  0.89821124  1
  H+  H175  1  0.77444607  0.88594686  0.50788095  1
  H+  H176  1  0.23130817  0.87068987  0.66582846  1
  H+  H177  1  0.80400033  0.06898828  0.79658191  1
  H+  H178  1  0.38310172  0.59769401  0.33266229  1
  H+  H179  1  0.52655898  0.63917215  0.49695911  1
  H+  H180  1  0.28381155  0.64825293  0.49614271  1
  H+  H181  1  0.64367809  0.12039965  0.16547371  1
  H+  H182  1  0.47607676  0.12266879  0.50650706  1
  H+  H183  1  0.41319446  0.33069127  0.26591439  1
  H+  H184  1  0.65776326  0.32359441  0.55605384  1
  H+  H185  1  0.93069563  0.83084454  0.90569978  1
  H+  H186  1  0.62049961  0.49480333  0.83279626  1
  H+  H187  1  0.03657624  0.67159120  0.84123983  1
  H+  H188  1  0.35623800  0.79291528  0.16714878  1
  H+  H189  1  0.89982921  1.01882088  0.52065445  1
  H+  H190  1  0.59936546  0.13222424  0.48478227  1
  H+  H191  1  0.23767718  0.63086873  1.00739042  1
  H+  H192  1  0.07951383  0.68101551  0.74403519  1
  H+  H193  1  0.10973246  0.73184087  0.68221221  1
  H+  H194  1  0.09230833  0.31596625  0.31879238  1
  H+  H195  1  0.62913227  0.84902966  0.67820720  1
  H+  H196  1  0.84848072  0.34040550  0.97644548  1
  H+  H197  1  0.37995313  0.36691107  0.49593348  1
  H+  H198  1  0.77849700  0.63342825  0.00011464  1
  H+  H199  1  0.88540702  0.78401766  0.66490730  1
  H+  H200  1  0.62996039  0.36209466  0.32148388  1
  H+  H201  1  0.68286913  0.10672461  0.26535781  1
  H+  H202  1  0.39564996  0.12304821  0.66429456  1
  H+  H203  1  0.40199590  0.06673332  0.22514266  1
  H+  H204  1  0.35592011  0.90024383  0.29683949  1
  H+  H205  1  0.86334596  0.63696330  0.49619793  1
  H+  H206  1  0.17009547  0.08806023  0.93610419  1
  H+  H207  1  0.11981347  0.23413998  0.68140711  1
  H+  H208  1  0.03843824  0.15027295  0.83130861  1
  H+  H209  1  0.62017330  0.12921950  0.67150518  1
  H+  H210  1  0.86908292  0.15839034  0.35081936  1
  H+  H211  1  0.13708009  0.37000243  0.50825203  1
  H+  H212  1  1.02878696  0.14581241  1.01236133  1
  H+  H213  1  0.24178129  0.34931172  0.64903837  1
  H+  H214  1  -0.02246720  0.62234702  0.66877339  1
  H+  H215  1  0.47597401  0.36031704  0.17145348  1
  H+  H216  1  0.77022202  0.15196733  0.16023515  1
  H+  H217  1  0.40114426  0.80473998  0.25912680  1
  H+  H218  1  0.53307150  0.11302278  0.14098849  1
  H+  H219  1  0.39345009  0.53012197  0.65355102  1
  H+  H220  1  0.73643243  0.90812509  0.20956277  1
  H+  H221  1  0.02460515  0.88571623  0.83332000  1
  H+  H222  1  0.61361793  0.72068373  0.68095189  1
  H+  H223  1  0.15557190  0.53214628  0.65383723  1
  H+  H224  1  0.10838909  0.96009836  0.34258522  1
  H+  H225  1  0.38052947  0.27636644  0.49341950  1
  H+  H226  1  0.66704640  0.33670267  0.89066782  1
  H+  H227  1  0.64598300  0.86993399  0.52274338  1
  H+  H228  1  0.03058331  0.40136194  0.49062407  1
  H+  H229  1  0.36703332  0.39626181  0.00272049  1
  H+  H230  1  0.73269968  0.62490711  0.84250568  1
  H+  H231  1  0.08020132  0.54414662  0.32572306  1
  H+  H232  1  0.67796889  0.95865535  0.46649214  1
  H+  H233  1  0.12470820  0.64350028  0.50729787  1
  H+  H234  1  0.86300790  0.96201853  0.16027035  1
  H+  H235  1  0.60858788  0.46540047  0.15941759  1
  H+  H236  1  0.10759163  0.14151580  0.68207829  1
  H+  H237  1  0.37786197  0.66692827  0.16502829  1
  H+  H238  1  0.84108126  -0.01944529  0.14148226  1
  H+  H239  1  0.13476709  0.23357933  0.83076292  1
  H+  H240  1  0.37025270  0.13071390  0.14484049  1
  H+  H241  1  0.20771974  0.94356890  0.03849198  1
  H+  H242  1  0.64304633  0.62629433  0.84448447  1
  H+  H243  1  0.87704241  0.61650656  0.16975322  1
  H+  H244  1  0.60795381  0.97601064  0.84771489  1
  H+  H245  1  0.60358160  0.15947066  0.08730891  1
  H+  H246  1  0.88279376  0.27768045  0.17090150  1
  H+  H247  1  0.35212553  0.98482380  0.30767241  1
  H+  H248  1  0.51953243  0.37396014  0.65587504  1
  H+  H249  1  0.63839405  0.52263413  0.66322700  1
  H+  H250  1  0.34185560  0.00787918  0.50075912  1
  H+  H251  1  0.14133515  0.28338356  0.17295375  1
  H+  H252  1  0.76052470  0.37956334  0.82015505  1
  H+  H253  1  0.87243590  0.72070156  0.00278665  1
  H+  H254  1  0.21388129  0.85296455  0.30930017  1
  H+  H255  1  0.62616942  0.85833486  0.85391221  1
  H+  H256  1  0.13156463  0.09981273  0.33584512  1
  H+  H257  1  0.26356629  0.12310108  0.82333130  1
  H+  H258  1  0.35734637  0.22524857  0.33771103  1
  H+  H259  1  1.01514070  0.87648021  0.34333109  1
  H+  H260  1  0.15955353  0.75983594  -0.01280984  1
  H+  H261  1  0.74780713  0.91926387  0.81725639  1
  H+  H262  1  0.87542236  0.91976458  0.66819993  1
  H+  H263  1  0.48167794  0.62019791  0.99893744  1
  H+  H264  1  0.14082395  0.86982591  0.66674375  1
  H+  H265  1  0.76373646  0.38178412  0.00270712  1
  H+  H266  1  0.26695952  0.38373718  0.33891858  1
  H+  H267  1  0.52175991  0.38987391  0.33570986  1
  H+  H268  1  0.33808066  0.66567982  0.43577008  1
  H+  H269  1  0.96723428  0.54897795  0.85511501  1
  H+  H270  1  0.52543863  0.63201426  0.67699274  1
  H+  H271  1  0.11023738  0.63316008  0.01834812  1
  H+  H272  1  0.17351550  0.13168405  0.17807458  1
  H+  H273  1  0.37197779  0.89495612  0.67177233  1
  H+  H274  1  0.62974590  0.34253008  0.99101374  1
  H+  H275  1  0.64356545  0.52510239  0.32805476  1
  H+  H276  1  0.23006168  0.36764353  0.85367414  1
  H+  H277  1  0.78301016  0.16411835  0.33750794  1
  H+  H278  1  0.64132802  0.35380595  0.65273257  1
  H+  H279  1  0.72172310  0.11180552  0.85243497  1
  H+  H280  1  0.47426616  0.87019544  0.85124817  1
  H+  H281  1  0.21516336  0.87630918  0.51373261  1
  H+  H282  1  0.87567867  0.61094116  0.33196943  1
  H+  H283  1  0.12989460  0.74667838  0.16782370  1
  H+  H284  1  0.14050007  0.62027283  0.17594814  1
  H+  H285  1  0.51977104  0.39225585  0.48497988  1
  H+  H286  1  0.61896456  0.72803313  1.00640599  1
  H+  H287  1  0.60240649  0.22550421  0.33428077  1
  H+  H288  1  0.39328239  0.62334425  1.00155628  1
  H+  H289  1  0.14055959  0.12253026  -0.00646805  1
  H+  H290  1  0.76514775  0.13510194  0.01885002  1
  H+  H291  1  0.58228808  0.40902934  0.06205572  1
  H+  H292  1  0.34184440  0.67187350  0.73848011  1
  H+  H293  1  0.43134117  0.60590460  0.23339882  1
  H+  H294  1  0.87390741  0.08073392  0.66932414  1
  H+  H295  1  0.56914836  0.16276998  0.39220241  1
  H+  H296  1  0.58440614  0.66350745  0.40373034  1
  H+  H297  1  0.09492017  0.17753895  0.75452732  1
  H+  H298  1  0.06595489  0.36972109  0.75998148  1
  H+  H299  1  0.80280523  0.95423015  0.75621969  1
  H+  H300  1  0.53514415  0.89515306  0.15912709  1
  H+  H301  1  0.84700552  0.47238111  0.33940149  1
  H+  H302  1  0.41541724  0.84148969  0.93804317  1
  H+  H303  1  0.92100862  0.57147760  0.90755039  1
  H+  H304  1  0.64806330  0.84190082  0.24195478  1
  H+  H305  1  0.76563110  0.38500142  0.15970862  1
  H+  H306  1  0.83177305  0.19342648  0.43560865  1
  H+  H307  1  0.92927222  0.59499452  0.57069688  1
  H+  H308  1  0.34288377  0.68034255  0.07254762  1
  H+  H309  1  0.09038413  0.42996517  0.11310721  1
  H+  H310  1  0.87070665  0.30277909  0.91620822  1
  H+  H311  1  0.94359250  0.11779605  0.90087203  1
  H+  H312  1  0.91712504  0.33849043  0.23715382  1
  H+  H313  1  0.24616855  0.11000606  0.18213326  1
  H+  H314  1  0.61194513  0.73000347  0.83158286  1
  H+  H315  1  0.65986280  0.09930110  0.55776680  1
  H+  H316  1  0.16873627  0.07780992  0.27626878  1
  H+  H317  1  0.58133976  0.66610607  0.77329356  1
  H+  H318  1  0.83798682  0.14595382  0.75129500  1
  H+  H319  1  0.16333661  0.83547976  0.57670855  1
  H+  H320  1  0.92974314  0.34517192  0.56361570  1
  H+  H321  1  0.59167504  0.66551476  0.10082668  1
  H+  H322  1  0.08075449  0.91885898  0.77100323  1
  H+  H323  1  0.07138975  0.66397509  0.10023177  1
  H+  H324  1  0.83142410  0.41420001  0.72707160  1
  H+  H325  1  0.84471683  0.43475039  0.44004601  1
  H+  H326  1  0.66582786  0.09908793  0.91276929  1
  H+  H327  1  0.79616480  0.82034293  0.08787535  1
  H+  H328  1  0.31755958  0.82999616  0.40254256  1
  H+  H329  1  0.73335571  0.61274950  0.32894337  1
  H+  H330  1  0.38148602  0.27485529  0.99027561  1
  H+  H331  1  0.12944342  0.33940713  0.83846667  1
  H+  H332  1  0.13316896  0.27678100  0.50741358  1
  H+  H333  1  0.08584862  0.16869439  0.44813541  1
  H+  H334  1  0.34188394  0.17442863  0.09327333  1
  H+  H335  1  0.13816010  0.19242225  0.09419103  1
  H+  H336  1  0.42412899  0.59514220  0.59886036  1
  H+  H337  1  0.14309484  0.56150789  0.85401932  1
  H+  H338  1  0.16216208  0.81277940  0.23213832  1
  H+  H339  1  0.05726393  0.48040810  0.72031654  1
  H+  H340  1  0.36278496  0.41600495  0.81292360  1
  H+  H341  1  0.18211607  0.59613381  0.56634526  1
  H+  H342  1  0.63464199  0.60969453  0.66619034  1
  H+  H343  1  0.90828219  0.83447719  0.27970152  1
  H+  H344  1  0.93177770  0.05986925  0.58523547  1
  H+  H345  1  0.57584230  0.15183867  0.77003410  1
  H+  H346  1  0.83739874  0.66742523  0.76755332  1
  H+  H347  1  1.01847292  0.62840846  1.00997115  1
  H+  H348  1  0.30020707  0.08014321  0.78119575  1
  H+  H349  1  0.09964264  0.44354737  0.43557102  1
  H+  H350  1  0.08574048  0.93026121  0.07369664  1
  H+  H351  1  0.17261726  0.31974721  0.59472177  1
  H+  H352  1  0.91433692  0.83575827  0.60276804  1
  H+  H353  1  0.35714596  0.41683884  0.71119184  1
  H+  H354  1  0.15612365  0.33463636  0.26364623  1
  H+  H355  1  0.82405140  0.41219291  0.06221808  1
  H+  H356  1  0.91572692  0.10455881  0.29208410  1
  H+  H357  1  0.40010962  0.07926888  0.94717999  1
  H+  H358  1  0.17604249  0.60361812  0.94968364  1
  H+  H359  1  0.07521303  0.90399938  0.43658946  1
  H+  H360  1  0.32561506  0.41767428  0.43278522  1
  H+  H361  1  0.83563132  0.66525849  0.43408480  1
  H+  H362  1  0.38672206  0.11057547  0.84872681  1
  H+  H363  1  0.66800824  0.58216095  0.56607314  1
  H+  H364  1  0.82640850  0.65379131  0.09074799  1
  H+  H365  1  0.65872857  0.32251972  0.22792680  1
  H+  H366  1  0.59303879  0.93155154  0.06492748  1
  H+  H367  1  0.33168205  0.16780353  0.43178128  1
  H+  H368  1  0.67314770  0.83351850  0.90459166  1
  H+  H369  1  0.16493663  0.33706431  0.94117329  1
  H+  H370  1  0.83455610  0.18367269  0.10126088  1
  H+  H371  1  0.77522364  0.64087224  0.67575099  1
  H+  H372  1  0.89632422  0.57817384  0.26777377  1
  H+  H373  1  0.36459897  0.89246257  0.82866507  1
  H+  H374  1  0.42241376  0.59766446  0.90932663  1
  H+  H375  1  0.34281204  0.92466249  0.73135422  1
  H+  H376  1  0.36343562  0.86643225  0.40358088  1
  H+  H377  1  0.32453896  0.40117018  0.09638776  1
  H+  H378  1  0.42104294  0.33651676  0.57830013  1
  H+  H379  1  0.59985881  0.45225713  0.76911272  1
  H+  H380  1  0.62314339  0.04611047  1.00587626  1
  H+  H381  1  0.95047187  0.11824051  0.19317899  1
  H+  H382  1  0.44573918  0.83559569  0.61243058  1
  H+  H383  1  0.42512881  0.10217982  0.57129811  1
  O2-  O384  1  0.16664437  0.21022870  0.13468466  1
  O2-  O385  1  0.09119406  0.18016944  0.49221278  1
  O2-  O386  1  0.10094715  0.17398865  0.81238783  1
  O2-  O387  1  0.07100496  0.41825777  0.15853740  1
  O2-  O388  1  0.09362533  0.43467570  0.47989103  1
  O2-  O389  1  0.05124208  0.32992609  0.79471203  1
  O2-  O390  1  0.07289402  0.66620497  0.14678262  1
  O2-  O391  1  0.09089348  0.67503004  0.49594490  1
  O2-  O392  1  0.09530571  0.69597270  0.82514169  1
  O2-  O393  1  0.07928023  0.93008859  0.14892681  1
  O2-  O394  1  0.07156422  0.90629398  0.48181744  1
  O2-  O395  1  0.08595567  0.92154842  0.81592386  1
  O2-  O396  1  0.34595127  0.16874550  0.13828418  1
  O2-  O397  1  0.33154404  0.17395438  0.47706489  1
  O2-  O398  1  0.31654504  0.13604507  0.79884220  1
  O2-  O399  1  0.30746400  0.37670417  0.13810563  1
  O2-  O400  1  0.32868575  0.42001874  0.47819092  1
  O2-  O401  1  0.34335153  0.42574810  0.85177743  1
  O2-  O402  1  0.34136786  0.68970523  0.14696216  1
  O2-  O403  1  0.34354242  0.67149955  0.48078362  1
  O2-  O404  1  0.33807504  0.67750668  0.81882490  1
  O2-  O405  1  0.44222958  1.02083325  0.16071464  1
  O2-  O406  1  0.29649880  0.95453527  0.48014679  1
  O2-  O407  1  0.33842602  0.92475010  0.80978976  1
  O2-  O408  1  0.59309759  0.16187254  0.13246279  1
  O2-  O409  1  0.56616674  0.16001517  0.46998731  1
  O2-  O410  1  0.56225174  0.14174864  0.81362027  1
  O2-  O411  1  0.57672365  0.40626055  0.14130207  1
  O2-  O412  1  0.58104196  0.41985679  0.47192410  1
  O2-  O413  1  0.59203246  0.43746655  0.81209412  1
  O2-  O414  1  0.59932467  0.67174500  0.14570875  1
  O2-  O415  1  0.58731685  0.67147539  0.48242709  1
  O2-  O416  1  0.58059814  0.66786903  0.81889023  1
  O2-  O417  1  0.59393981  0.92657302  0.14421674  1
  O2-  O418  1  0.62446226  0.94335309  0.48759764  1
  O2-  O419  1  0.57555436  0.91532612  0.83343289  1
  O2-  O420  1  0.83299482  0.18978210  0.14681893  1
  O2-  O421  1  0.83041248  0.19443977  0.48068587  1
  O2-  O422  1  0.82662147  0.13345257  0.79518930  1
  O2-  O423  1  0.82640588  0.42111776  0.14454831  1
  O2-  O424  1  0.86090549  0.44656160  0.48337671  1
  O2-  O425  1  0.82282563  0.40484013  0.80371270  1
  O2-  O426  1  0.81818518  0.66078829  0.13523968  1
  O2-  O427  1  0.82871812  0.66214812  0.48131582  1
  O2-  O428  1  0.83681894  0.66505778  0.81333261  1
  O2-  O429  1  0.78239652  0.78532611  0.13026640  1
  O2-  O430  1  0.83317281  0.91532164  0.48955795  1
  O2-  O431  1  0.78731460  0.97175611  0.79434799  1
  O2-  O432  1  0.18798476  0.09113478  0.19865927  1
  O2-  O433  1  0.18749067  0.05561815  0.54133412  1
  O2-  O434  1  0.16977158  0.08182851  0.85767403  1
  O2-  O435  1  0.16140295  0.34136349  0.19093062  1
  O2-  O436  1  0.16746538  0.33965226  0.52192619  1
  O2-  O437  1  0.16898444  0.32652092  0.86338053  1
  O2-  O438  1  0.17773360  0.59832525  0.19042683  1
  O2-  O439  1  0.17511530  0.60005851  0.52021335  1
  O2-  O440  1  0.17665349  0.61957222  0.87011969  1
  O2-  O441  1  0.17700767  0.80931748  0.18630900  1
  O2-  O442  1  0.15808424  0.83083498  0.53108023  1
  O2-  O443  1  0.17997701  0.85378731  0.85615556  1
  O2-  O444  1  0.38360405  0.04610893  0.18204617  1
  O2-  O445  1  0.41816682  0.10243520  0.52645449  1
  O2-  O446  1  0.41248382  0.07731939  0.86467264  1
  O2-  O447  1  0.41573614  0.32924996  0.18769556  1
  O2-  O448  1  0.41335363  0.33800433  0.50806946  1
  O2-  O449  1  0.41401598  0.33635297  0.90965624  1
  O2-  O450  1  0.43576277  0.62532574  0.19093142  1
  O2-  O451  1  0.41997564  0.58567804  0.52179812  1
  O2-  O452  1  0.41810482  0.59294970  0.86349492  1
  O2-  O453  1  0.35152777  0.83717251  0.19157380  1
  O2-  O454  1  0.47817977  0.81083698  0.54762622  1
  O2-  O455  1  0.41162972  0.84009361  0.86353353  1
  O2-  O456  1  0.67748028  0.09461100  0.18396391  1
  O2-  O457  1  0.65922387  0.09310646  0.51368644  1
  O2-  O458  1  0.66309599  0.08473808  0.86855973  1
  O2-  O459  1  0.66215493  0.32498833  0.18239686  1
  O2-  O460  1  0.64562313  0.31666735  0.51200310  1
  O2-  O461  1  0.67151664  0.34645515  0.84619546  1
  O2-  O462  1  0.66079854  0.56593467  0.18783603  1
  O2-  O463  1  0.66555247  0.58176754  0.52097109  1
  O2-  O464  1  0.67363041  0.59636030  0.86004506  1
  O2-  O465  1  0.67689252  0.86547469  0.20160246  1
  O2-  O466  1  0.67082269  0.83394476  0.53755030  1
  O2-  O467  1  0.66283391  0.83162487  0.85972446  1
  O2-  O468  1  0.92651120  0.14516427  0.21894699  1
  O2-  O469  1  0.93722559  0.07436918  0.54148093  1
  O2-  O470  1  0.95590475  0.12140175  0.85682793  1
  O2-  O471  1  0.91906438  0.34013160  0.18888922  1
  O2-  O472  1  0.93110923  0.34916347  0.51878959  1
  O2-  O473  1  0.89433353  0.30688855  0.83763359  1
  O2-  O474  1  0.90850569  0.58814315  0.18538926  1
  O2-  O475  1  0.93612478  0.59923601  0.52536033  1
  O2-  O476  1  0.92857076  0.57164754  0.86105156  1
  O2-  O477  1  0.91601459  0.83132042  0.20061951  1
  O2-  O478  1  0.90983691  0.82463296  0.52646053  1
  O2-  O479  1  0.93339496  0.83471814  0.86039620  1
  O2-  O480  1  0.16384783  0.07119699  0.32145961  1
  O2-  O481  1  0.18388125  0.14068771  0.63265499  1
  O2-  O482  1  0.17286310  0.09308707  0.98134840  1
  O2-  O483  1  0.15200431  0.33370896  0.30981753  1
  O2-  O484  1  0.18420019  0.30338700  0.63598946  1
  O2-  O485  1  0.16758805  0.33843868  0.98657608  1
  O2-  O486  1  0.07949271  0.48717506  0.31884147  1
  O2-  O487  1  0.19126380  0.58849572  0.63453944  1
  O2-  O488  1  0.17554164  0.59780841  0.99459558  1
  O2-  O489  1  0.15150382  0.81307987  0.29918778  1
  O2-  O490  1  0.17003979  0.83848147  0.65225088  1
  O2-  O491  1  0.21297426  0.80402158  0.96774351  1
  O2-  O492  1  0.41275586  0.09150469  0.29897280  1
  O2-  O493  1  0.42706229  0.09373547  0.65074652  1
  O2-  O494  1  0.39186383  0.08709261  0.99064111  1
  O2-  O495  1  0.41329827  0.33048623  0.31151645  1
  O2-  O496  1  0.42566718  0.33987688  0.62490022  1
  O2-  O497  1  0.41567035  0.34119696  0.97664930  1
  O2-  O498  1  0.41476788  0.57017059  0.31555334  1
  O2-  O499  1  0.42360101  0.59254361  0.64453822  1
  O2-  O500  1  0.42045343  0.59107898  0.98423938  1
  O2-  O501  1  0.41642069  0.78460416  0.29617286  1
  O2-  O502  1  0.42925668  0.84201230  0.65514059  1
  O2-  O503  1  0.42083938  0.84304072  0.98398540  1
  O2-  O504  1  0.68951553  0.11542869  0.30983297  1
  O2-  O505  1  0.68213751  0.06172311  0.64693504  1
  O2-  O506  1  0.65949705  0.10720339  0.99139715  1
  O2-  O507  1  0.65835931  0.32985986  0.30653965  1
  O2-  O508  1  0.67680460  0.32927561  0.63822599  1
  O2-  O509  1  0.66646274  0.32143094  0.97297904  1
  O2-  O510  1  0.67471641  0.58593388  0.31272749  1
  O2-  O511  1  0.66772834  0.58233991  0.64910829  1
  O2-  O512  1  0.67160570  0.58402829  0.98179403  1
  O2-  O513  1  0.58446549  0.79999678  0.30153108  1
  O2-  O514  1  0.65505180  0.81634203  0.66129022  1
  O2-  O515  1  0.67800459  0.83435330  0.98335873  1
  O2-  O516  1  0.91864652  0.09868149  0.33683062  1
  O2-  O517  1  0.90976743  0.04119936  0.66601615  1
  O2-  O518  1  0.91855445  0.09749311  0.98079598  1
  O2-  O519  1  0.91696287  0.34305076  0.30307196  1
  O2-  O520  1  0.91988410  0.33433798  0.64774954  1
  O2-  O521  1  0.84801761  0.28996148  0.95823625  1
  O2-  O522  1  0.89693719  0.57222245  0.31253126  1
  O2-  O523  1  0.91900640  0.59200823  0.64847619  1
  O2-  O524  1  0.91658182  0.57449634  0.97798220  1
  O2-  O525  1  0.91010884  0.83617588  0.32488633  1
  O2-  O526  1  0.91754172  0.84337971  0.64824634  1
  O2-  O527  1  0.92519917  0.82309646  0.98485963  1
  O2-  O528  1  0.09084281  0.17481820  0.02206647  1
  O2-  O529  1  0.08406491  0.15742265  0.36297993  1
  O2-  O530  1  0.08539536  0.17599420  0.70298700  1
  O2-  O531  1  0.13788265  0.45098034  0.05413036  1
  O2-  O532  1  0.14971508  0.49484437  0.35798076  1
  O2-  O533  1  0.07193146  0.44205835  0.69885672  1
  O2-  O534  1  0.07641607  0.66200517  0.02920765  1
  O2-  O535  1  0.06493170  0.62426479  0.33529928  1
  O2-  O536  1  0.07298556  0.67365956  0.69944548  1
  O2-  O537  1  0.09201175  0.92671346  0.02847139  1
  O2-  O538  1  0.07680995  0.89868996  0.35552900  1
  O2-  O539  1  0.07835972  0.91710863  0.68762816  1
  O2-  O540  1  0.33823273  0.18923945  0.01499521  1
  O2-  O541  1  0.33138124  0.16542238  0.35397864  1
  O2-  O542  1  0.34046638  0.18510076  0.67939697  1
  O2-  O543  1  0.33490260  0.42346452  0.02000719  1
  O2-  O544  1  0.32610441  0.40954941  0.35412868  1
  O2-  O545  1  0.35019783  0.42026263  0.66764377  1
  O2-  O546  1  0.34141380  0.67645954  0.02660578  1
  O2-  O547  1  0.31977773  0.64040270  0.35814205  1
  O2-  O548  1  0.34475988  0.67507260  0.69328388  1
  O2-  O549  1  0.26275788  0.94401683  0.03844597  1
  O2-  O550  1  0.31825843  0.92073567  0.31119491  1
  O2-  O551  1  0.34099755  0.92520557  0.68583658  1
  O2-  O552  1  0.61702219  0.15387666  0.01291104  1
  O2-  O553  1  0.57135848  0.16376675  0.34659222  1
  O2-  O554  1  0.59603322  0.16499878  0.68479530  1
  O2-  O555  1  0.58725254  0.41094124  0.01669268  1
  O2-  O556  1  0.58305518  0.41984386  0.34911506  1
  O2-  O557  1  0.57303807  0.39139399  0.68105847  1
  O2-  O558  1  0.58534753  0.66678124  0.02034338  1
  O2-  O559  1  0.57827275  0.65841629  0.35842875  1
  O2-  O560  1  0.58415025  0.65774495  0.69492289  1
  O2-  O561  1  0.59366067  0.93822546  0.01992585  1
  O2-  O562  1  0.56288819  0.90360013  0.37485408  1
  O2-  O563  1  0.58252291  0.91139222  0.71240727  1
  O2-  O564  1  0.82806712  0.16649539  0.02630827  1
  O2-  O565  1  0.84349610  0.19631476  0.35578122  1
  O2-  O566  1  0.84532873  0.13472660  0.66646870  1
  O2-  O567  1  0.82528917  0.41392270  0.01708552  1
  O2-  O568  1  0.81824556  0.41258618  0.35688814  1
  O2-  O569  1  0.83887383  0.41827212  0.68169809  1
  O2-  O570  1  0.83899681  0.65792368  0.01506263  1
  O2-  O571  1  0.86203475  0.67914744  0.36628196  1
  O2-  O572  1  0.83548443  0.67345387  0.69104519  1
  O2-  O573  1  0.82122149  0.87081549  0.03411070  1
  O2-  O574  1  0.83952942  0.93571788  0.36602170  1
  O2-  O575  1  0.84449107  0.95115404  0.67809006  1
