# generated using pymatgen
data_H2O
_symmetry_space_group_name_H-M   'P 1'
_cell_length_a   17.97939715
_cell_length_b   17.98122943
_cell_length_c   21.99101249
_cell_angle_alpha   89.98867628
_cell_angle_beta   90.00134615
_cell_angle_gamma   119.98937932
_symmetry_Int_Tables_number   1
_chemical_formula_structural   H2O
_chemical_formula_sum   'H384 O192'
_cell_volume   6157.67585909
_cell_formula_units_Z   192
loop_
 _symmetry_equiv_pos_site_id
 _symmetry_equiv_pos_as_xyz
  1  'x, y, z'
loop_
 _atom_type_symbol
 _atom_type_oxidation_number
  H+  1.0
  O2-  -2.0
loop_
 _atom_site_type_symbol
 _atom_site_label
 _atom_site_symmetry_multiplicity
 _atom_site_fract_x
 _atom_site_fract_y
 _atom_site_fract_z
 _atom_site_occupancy
  H+  H0  1  0.79003527  0.14666973  0.34397863  1
  H+  H1  1  0.13348058  0.63807186  0.81315818  1
  H+  H2  1  0.37122185  0.88799197  0.82297519  1
  H+  H3  1  0.50568493  0.62925627  0.67924149  1
  H+  H4  1  0.12187862  0.21550589  0.83110423  1
  H+  H5  1  0.13407262  0.77420909  0.99504572  1
  H+  H6  1  0.87264502  0.16225031  0.83049217  1
  H+  H7  1  0.36051897  0.64135578  0.32299161  1
  H+  H8  1  0.38051252  0.46999164  0.17238744  1
  H+  H9  1  0.62032712  0.55552619  0.61722994  1
  H+  H10  1  0.63893594  0.11022510  0.50061796  1
  H+  H11  1  0.17591637  0.09124367  0.60195732  1
  H+  H12  1  0.12798591  0.98240965  0.49870502  1
  H+  H13  1  0.35647799  0.46688030  0.82253351  1
  H+  H14  1  0.16309500  0.57547977  0.88708894  1
  H+  H15  1  0.11592741  0.51071422  0.17777494  1
  H+  H16  1  0.47327406  0.61827054  0.50898611  1
  H+  H17  1  0.77279290  0.13854455  0.13523106  1
  H+  H18  1  0.20912001  0.84583372  0.17219736  1
  H+  H19  1  0.64401947  0.28154876  0.16907540  1
  H+  H20  1  0.14594217  0.38086918  0.50409458  1
  H+  H21  1  0.13661470  0.10197906  0.83852472  1
  H+  H22  1  0.91124954  0.79348154  0.50248490  1
  H+  H23  1  0.63253651  0.13506340  0.67904691  1
  H+  H24  1  0.04890410  0.69117679  0.70380023  1
  H+  H25  1  0.64193110  0.53390284  0.18338025  1
  H+  H26  1  0.46576508  0.59829726  0.83908528  1
  H+  H27  1  0.58397028  0.61043694  0.48537303  1
  H+  H28  1  1.00070043  0.88042466  0.50041915  1
  H+  H29  1  0.85361608  0.17710839  -0.04464661  1
  H+  H30  1  0.62116544  0.75389954  0.83898918  1
  H+  H31  1  0.63545545  0.84911152  0.83425512  1
  H+  H32  1  0.36010867  0.21340443  0.00803299  1
  H+  H33  1  0.15146957  0.87623344  0.50994790  1
  H+  H34  1  0.78311988  0.89549692  0.48816404  1
  H+  H35  1  0.39437723  1.01949318  -0.00748639  1
  H+  H36  1  0.47765103  0.11287485  0.50989662  1
  H+  H37  1  0.77265294  0.39337958  0.82041938  1
  H+  H38  1  0.12549556  0.75930714  0.32802399  1
  H+  H39  1  0.31657149  0.65222084  0.05538454  1
  H+  H40  1  0.36058850  0.72719733  0.49727618  1
  H+  H41  1  0.12463286  0.23485970  0.50392949  1
  H+  H42  1  0.98810400  0.10314831  0.17485105  1
  H+  H43  1  0.11109893  0.63837594  0.34634728  1
  H+  H44  1  0.33343827  0.97465584  0.33715749  1
  H+  H45  1  0.32645655  0.88470100  0.36125781  1
  H+  H46  1  0.50911204  0.60823300  0.17879186  1
  H+  H47  1  0.56183201  0.95182508  0.66078350  1
  H+  H48  1  0.61346605  -0.01984248  0.47534331  1
  H+  H49  1  0.12397171  -0.02054770  0.34750080  1
  H+  H50  1  0.60615931  0.45150403  0.43136421  1
  H+  H51  1  0.17555835  0.34194766  0.23951457  1
  H+  H52  1  0.87985097  0.27442171  0.99915120  1
  H+  H53  1  0.86207582  0.72668063  0.00946662  1
  H+  H54  1  0.60445685  0.46110943  0.10028928  1
  H+  H55  1  0.14072486  0.01435865  0.83853546  1
  H+  H56  1  0.38379748  0.09722745  0.18005926  1
  H+  H57  1  0.63938153  0.35083773  0.66323448  1
  H+  H58  1  0.64054313  0.62442205  0.17209983  1
  H+  H59  1  0.59691338  0.43189227  0.25098541  1
  H+  H60  1  0.37941812  0.26434003  0.83642319  1
  H+  H61  1  0.77672538  0.13199507  0.67089893  1
  H+  H62  1  0.78891882  0.53953453  0.69076967  1
  H+  H63  1  0.02662729  0.38884615  0.33929368  1
  H+  H64  1  0.12422475  0.13239970  0.16803102  1
  H+  H65  1  0.12275354  0.68304779  0.75436909  1
  H+  H66  1  0.36620024  0.38988002  0.49275523  1
  H+  H67  1  0.28335958  0.88303696  0.66901398  1
  H+  H68  1  0.52823669  0.63897623  0.34636753  1
  H+  H69  1  0.85980057  0.60860580  0.85053476  1
  H+  H70  1  0.66940893  0.54287166  0.50138820  1
  H+  H71  1  0.59198111  0.93242889  0.37560859  1
  H+  H72  1  0.23124178  0.11470193  0.50741275  1
  H+  H73  1  0.11454347  -0.02639595  1.00627936  1
  H+  H74  1  0.87432593  0.89823970  0.49045253  1
  H+  H75  1  0.63488667  0.36076677  0.31252960  1
  H+  H76  1  -0.01638463  0.11832779  0.31198555  1
  H+  H77  1  0.61442516  0.71829406  1.00179319  1
  H+  H78  1  0.89452212  0.11775461  0.32245229  1
  H+  H79  1  0.62197196  0.44173013  1.03345012  1
  H+  H80  1  0.38918635  0.10910803  0.83823640  1
  H+  H81  1  -0.08885166  0.81468957  0.64862016  1
  H+  H82  1  0.13619395  0.10373695  0.99652912  1
  H+  H83  1  0.38900880  0.52574154  0.50519806  1
  H+  H84  1  0.88822502  1.02398700  -0.00179123  1
  H+  H85  1  0.38746859  0.11358119  0.50655976  1
  H+  H86  1  0.13583211  0.98880112  0.67386166  1
  H+  H87  1  0.37110948  0.22153317  0.17019584  1
  H+  H88  1  0.86029792  0.63682165  0.01478625  1
  H+  H89  1  0.70077905  0.60375526  0.83934248  1
  H+  H90  1  0.13260880  0.61606916  0.65927898  1
  H+  H91  1  0.56472907  0.65680821  0.77079872  1
  H+  H92  1  0.78013731  0.38690147  0.16744613  1
  H+  H93  1  0.10137389  0.92260082  0.43768255  1
  H+  H94  1  0.01424050  0.37845610  0.17049078  1
  H+  H95  1  0.62660606  0.14608383  0.14892637  1
  H+  H96  1  0.63628472  0.45834596  0.69452173  1
  H+  H97  1  0.30391319  0.28619691  0.97016522  1
  H+  H98  1  0.85349238  0.99460843  0.82279166  1
  H+  H99  1  0.63378339  0.22340425  0.67387346  1
  H+  H100  1  0.88383015  0.51970524  0.33693077  1
  H+  H101  1  0.96947290  0.36599707  0.84700786  1
  H+  H102  1  0.14320616  0.11774541  0.51205052  1
  H+  H103  1  0.24812878  0.35090861  1.00003310  1
  H+  H104  1  0.62800543  0.53286209  0.51700993  1
  H+  H105  1  0.11504467  0.97263512  0.16138178  1
  H+  H106  1  0.87442238  0.76659312  0.31404381  1
  H+  H107  1  0.11652445  0.48191368  0.49339135  1
  H+  H108  1  0.17655318  0.43236820  0.78360632  1
  H+  H109  1  0.48577287  0.87116442  0.50115998  1
  H+  H110  1  0.23643473  0.10916058  0.17401028  1
  H+  H111  1  0.23864689  0.60550274  0.15097652  1
  H+  H112  1  0.98999160  0.85878231  0.83878394  1
  H+  H113  1  0.10559559  0.88353860  0.34595441  1
  H+  H114  1  0.87191208  0.52841735  0.84221910  1
  H+  H115  1  0.87734497  0.69657779  0.61896502  1
  H+  H116  1  0.88512047  0.48860046  0.66044308  1
  H+  H117  1  0.98890311  0.14328965  0.84951788  1
  H+  H118  1  0.37282051  0.22444977  0.66909317  1
  H+  H119  1  0.28151444  0.39092855  0.16936388  1
  H+  H120  1  0.27476403  0.88383862  0.00557366  1
  H+  H121  1  0.91863563  0.61386452  0.61528288  1
  H+  H122  1  0.61848572  0.51039571  0.83817478  1
  H+  H123  1  0.72979787  0.58146170  0.67538379  1
  H+  H124  1  0.62882758  0.86469175  0.64949692  1
  H+  H125  1  0.12430173  0.87945931  0.82531283  1
  H+  H126  1  0.37683204  1.01004667  0.65875587  1
  H+  H127  1  0.14746502  0.12114475  0.66328718  1
  H+  H128  1  0.97072879  0.61493960  0.99704517  1
  H+  H129  1  0.60772562  0.37571689  0.83247454  1
  H+  H130  1  0.15026612  0.57949656  0.23305247  1
  H+  H131  1  0.60174115  0.64866838  0.67741819  1
  H+  H132  1  0.63092167  0.86926308  0.14564220  1
  H+  H133  1  0.88593269  0.36573781  0.65486042  1
  H+  H134  1  0.40822429  0.57196013  0.60381238  1
  H+  H135  1  0.36473289  0.22303093  0.49218999  1
  H+  H136  1  0.38430877  0.35201119  0.18582971  1
  H+  H137  1  0.64360489  0.37158485  0.18221124  1
  H+  H138  1  0.15609137  0.86904766  0.65680483  1
  H+  H139  1  0.36643649  0.14138642  0.33886458  1
  H+  H140  1  0.73022745  0.89765552  0.64832363  1
  H+  H141  1  0.63196591  0.85214416  -0.01183756  1
  H+  H142  1  0.14717595  0.27970588  0.18136833  1
  H+  H143  1  0.63615186  0.35327950  0.50329365  1
  H+  H144  1  0.04622274  0.90520400  0.66820323  1
  H+  H145  1  0.27602559  0.64269120  0.66527990  1
  H+  H146  1  0.97683234  0.86260883  0.99638000  1
  H+  H147  1  0.37488667  0.60064028  0.66091420  1
  H+  H148  1  0.34719251  0.72032103  0.33964129  1
  H+  H149  1  0.27158021  0.12726478  0.82456526  1
  H+  H150  1  0.47971956  0.36242525  0.66120281  1
  H+  H151  1  0.27948979  0.63823205  0.83179316  1
  H+  H152  1  0.60426855  0.18172780  0.09069484  1
  H+  H153  1  0.85885951  0.88007884  0.00613129  1
  H+  H154  1  0.23740684  0.11572040  0.32836250  1
  H+  H155  1  1.02825951  0.38903911  0.49185395  1
  H+  H156  1  0.85833773  0.47911973  0.01331877  1
  H+  H157  1  0.77469947  0.37528574  0.49086258  1
  H+  H158  1  0.34381807  0.86420837  0.15678285  1
  H+  H159  1  0.02517874  0.13527607  0.01948768  1
  H+  H160  1  0.86164081  0.38359599  0.33592276  1
  H+  H161  1  0.87972150  0.28152529  0.83932157  1
  H+  H162  1  0.69840766  0.70593413  0.51473567  1
  H+  H163  1  0.63871892  0.01979289  0.83099305  1
  H+  H164  1  0.71637959  0.59580201  0.36168834  1
  H+  H165  1  0.73478321  0.36701623  0.65555435  1
  H+  H166  1  0.75337796  0.64209116  0.16131757  1
  H+  H167  1  0.47699582  0.96016829  0.24506645  1
  H+  H168  1  0.37058475  0.72479569  0.66778737  1
  H+  H169  1  0.33387052  0.15965468  0.76584110  1
  H+  H170  1  0.10736954  0.38671334  0.17126332  1
  H+  H171  1  0.89456102  0.12203780  0.66631208  1
  H+  H172  1  0.30702606  0.57674047  0.13861888  1
  H+  H173  1  0.39387500  0.52893413  0.33301812  1
  H+  H174  1  0.24063387  0.64327197  0.97703193  1
  H+  H175  1  0.13122566  0.52584831  0.32946759  1
  H+  H176  1  0.39172426  0.77721713  0.99294966  1
  H+  H177  1  0.73049631  0.11295924  0.49739635  1
  H+  H178  1  0.47634380  0.35727915  0.49991860  1
  H+  H179  1  0.76829875  0.87751427  0.00654841  1
  H+  H180  1  0.39676077  0.10872523  0.99382821  1
  H+  H181  1  0.61425172  0.74050416  0.15185340  1
  H+  H182  1  0.63784177  0.10903346  0.83515196  1
  H+  H183  1  0.36790321  0.23418671  0.34198665  1
  H+  H184  1  0.12406698  0.23602871  0.31688736  1
  H+  H185  1  0.85144702  0.73887607  0.15570199  1
  H+  H186  1  0.73524797  0.87080121  0.33122985  1
  H+  H187  1  0.88177798  0.26792657  0.16979798  1
  H+  H188  1  0.27940931  0.13880029  0.66934742  1
  H+  H189  1  0.88668379  0.00275831  0.16380403  1
  H+  H190  1  0.48302950  0.86609385  0.99087363  1
  H+  H191  1  0.18662683  0.36575416  0.56460890  1
  H+  H192  1  0.09330579  0.40999906  0.74978713  1
  H+  H193  1  0.60512619  0.22617016  0.34075214  1
  H+  H194  1  0.12366152  0.85262704  0.17374587  1
  H+  H195  1  0.36653954  0.38740140  0.33922705  1
  H+  H196  1  0.36077592  0.63629094  -0.00244606  1
  H+  H197  1  0.02544430  0.37489311  -0.01079480  1
  H+  H198  1  0.37002696  0.00270073  0.17950300  1
  H+  H199  1  0.44208029  0.34930490  0.37006531  1
  H+  H200  1  0.53709343  0.40009523  0.17619025  1
  H+  H201  1  0.85915459  0.63256019  0.33938771  1
  H+  H202  1  0.22293332  0.61119313  0.50378315  1
  H+  H203  1  0.41272983  0.87806955  0.66733001  1
  H+  H204  1  0.86233049  0.90202031  0.66045089  1
  H+  H205  1  0.90211101  0.65174312  0.48636954  1
  H+  H206  1  0.23736466  0.86392798  0.83877215  1
  H+  H207  1  0.53199350  0.89140323  0.13408380  1
  H+  H208  1  0.13393801  0.52721689  0.65894776  1
  H+  H209  1  0.11130090  0.64731481  0.00262098  1
  H+  H210  1  0.64439630  0.78434053  0.33302444  1
  H+  H211  1  0.15310866  0.77220483  0.83474394  1
  H+  H212  1  0.77043678  0.38066425  0.33560982  1
  H+  H213  1  0.88791484  0.03035254  0.66818813  1
  H+  H214  1  0.85646349  0.69749007  0.64858590  1
  H+  H215  1  0.71832400  0.86684293  0.15974242  1
  H+  H216  1  0.62727054  0.13867500  0.99648449  1
  H+  H217  1  0.97102594  0.86419289  0.16951875  1
  H+  H218  1  0.80221989  0.60623031  0.47874241  1
  H+  H219  1  0.86344721  0.39935412  0.82235989  1
  H+  H220  1  0.91706035  0.33045655  0.26681457  1
  H+  H221  1  0.61773162  0.96932939  -0.00800932  1
  H+  H222  1  0.88205409  0.35721262  0.17578916  1
  H+  H223  1  0.90108574  0.77087050  0.84137967  1
  H+  H224  1  0.14080412  0.51142952  0.82875805  1
  H+  H225  1  0.61177039  0.14183264  0.34552651  1
  H+  H226  1  0.78137948  0.69772238  0.52249044  1
  H+  H227  1  0.14216709  0.37066037  0.33222044  1
  H+  H228  1  1.00923286  0.62496057  0.63507282  1
  H+  H229  1  0.12038077  0.23078880  0.68196677  1
  H+  H230  1  0.37119559  -0.02264170  0.82237044  1
  H+  H231  1  0.84754057  0.84785407  0.81408782  1
  H+  H232  1  0.46538721  0.10172114  0.33040394  1
  H+  H233  1  0.38983382  0.77475244  0.84541829  1
  H+  H234  1  0.68885896  0.00051898  0.62848161  1
  H+  H235  1  0.36492139  0.88386643  0.00751190  1
  H+  H236  1  0.86725033  0.22823493  0.49237443  1
  H+  H237  1  0.63512042  0.90334105  0.32439442  1
  H+  H238  1  0.52908028  0.13698658  0.82718137  1
  H+  H239  1  0.27946144  0.12253749  0.01285160  1
  H+  H240  1  0.52362637  0.38970423  0.30376390  1
  H+  H241  1  0.85793054  0.38970204  0.01283406  1
  H+  H242  1  0.13863003  0.34289874  0.85316365  1
  H+  H243  1  0.81839975  0.00410689  0.81511776  1
  H+  H244  1  0.51460330  0.37090804  0.83121749  1
  H+  H245  1  0.88739590  0.35995089  0.49850148  1
  H+  H246  1  0.63157408  0.00556891  0.14178056  1
  H+  H247  1  0.86805354  0.89040760  0.15700868  1
  H+  H248  1  0.61314928  0.56766224  1.02426788  1
  H+  H249  1  0.42542755  0.85445984  0.39254587  1
  H+  H250  1  0.60985568  0.21812498  0.49700064  1
  H+  H251  1  0.36677656  0.63706100  0.83839074  1
  H+  H252  1  0.67278565  0.33958964  0.90037762  1
  H+  H253  1  0.38820891  0.52525587  -0.00168182  1
  H+  H254  1  0.28030687  0.39677063  0.49214934  1
  H+  H255  1  0.65618282  0.04153778  0.32107669  1
  H+  H256  1  -0.02716534  0.61089795  0.33769465  1
  H+  H257  1  0.88075757  0.85835914  0.31795092  1
  H+  H258  1  0.37583988  0.10751481  0.65867666  1
  H+  H259  1  0.11333844  0.88427607  1.00624282  1
  H+  H260  1  0.59337010  0.62014431  0.82919356  1
  H+  H261  1  0.24852240  0.87659166  0.51045589  1
  H+  H262  1  0.09886273  0.17415290  0.26149539  1
  H+  H263  1  0.64307155  0.27584447  0.84211089  1
  H+  H264  1  0.37991638  0.35400404  0.83519341  1
  H+  H265  1  0.38995877  0.76067110  0.14837791  1
  H+  H266  1  0.03286189  0.13917088  0.67889167  1
  H+  H267  1  0.21974835  0.61446003  0.31817397  1
  H+  H268  1  0.72533691  0.37084035  0.99301324  1
  H+  H269  1  0.52099326  0.88150187  0.82832690  1
  H+  H270  1  0.74975196  0.82782200  0.81267540  1
  H+  H271  1  0.23056329  0.35249658  0.84083275  1
  H+  H272  1  0.36817119  0.88774598  0.50432180  1
  H+  H273  1  0.09147841  0.70809742  0.15807172  1
  H+  H274  1  0.35812108  0.63873089  0.49643897  1
  H+  H275  1  0.10094992  0.37049378  1.01885939  1
  H+  H276  1  0.36731632  0.97677029  0.50120307  1
  H+  H277  1  0.26095278  0.36721531  0.66725005  1
  H+  H278  1  0.14792999  0.11333812  0.31850210  1
  H+  H279  1  0.13884475  0.76814871  0.65433060  1
  H+  H280  1  0.61289105  0.63018437  0.35734431  1
  H+  H281  1  0.41118253  0.80106690  0.16743225  1
  H+  H282  1  0.89631770  0.27778380  0.32915321  1
  H+  H283  1  0.23413825  0.37257944  0.33169485  1
  H+  H284  1  0.63754432  0.78403841  0.50207197  1
  H+  H285  1  0.12331272  0.21488762  0.01699471  1
  H+  H286  1  0.94105629  0.86941008  0.58897438  1
  H+  H287  1  0.88210806  0.27466574  0.65670082  1
  H+  H288  1  0.77479713  0.14276611  0.82423391  1
  H+  H289  1  0.16889980  0.07887168  0.93550565  1
  H+  H290  1  0.79168536  0.63923092  0.76451837  1
  H+  H291  1  0.56430115  0.90143838  0.76399484  1
  H+  H292  1  0.95010139  0.59618126  0.17880086  1
  H+  H293  1  0.34603715  0.16544093  0.10822101  1
  H+  H294  1  0.68796295  0.12321895  0.27629494  1
  H+  H295  1  0.09637883  0.91235454  0.76579893  1
  H+  H296  1  0.85017543  0.17005000  0.40206302  1
  H+  H297  1  0.92131289  0.83249066  0.93548509  1
  H+  H298  1  0.81425216  0.88948156  0.72288128  1
  H+  H299  1  0.64097533  0.28077469  0.98720818  1
  H+  H300  1  0.67278196  0.06312820  0.58763937  1
  H+  H301  1  0.83452525  0.41292640  0.10688540  1
  H+  H302  1  0.68193645  0.05251122  0.20218485  1
  H+  H303  1  0.33875640  0.42192017  0.39751810  1
  H+  H304  1  0.67040031  0.85917730  0.55131640  1
  H+  H305  1  0.92082967  0.08799150  0.57183201  1
  H+  H306  1  0.42113679  0.84154675  0.90055722  1
  H+  H307  1  0.83975469  0.17921302  0.08226911  1
  H+  H308  1  0.59351371  0.16816896  0.76976638  1
  H+  H309  1  1.02206253  0.38325438  0.66261294  1
  H+  H310  1  -0.10500135  0.03200420  0.51025481  1
  H+  H311  1  0.19381085  0.30977620  0.93858767  1
  H+  H312  1  0.37405994  0.39549220  0.01612867  1
  H+  H313  1  0.57626285  0.16194537  0.43621401  1
  H+  H314  1  0.66559389  0.32756084  0.56571983  1
  H+  H315  1  0.34885137  0.45869186  0.66896580  1
  H+  H316  1  0.18139921  0.84231871  0.57472433  1
  H+  H317  1  0.86825471  0.13946430  0.49712909  1
  H+  H318  1  0.91683945  0.07310664  0.23069767  1
  H+  H319  1  0.83204287  0.17276247  0.73235509  1
  H+  H320  1  0.66794298  0.32293577  0.26355496  1
  H+  H321  1  0.34218475  0.91908238  0.73001730  1
  H+  H322  1  0.73655356  0.11149238  -0.01308073  1
  H+  H323  1  0.91734315  0.33253540  0.55912320  1
  H+  H324  1  0.21005985  0.69165359  0.93370485  1
  H+  H325  1  0.07570445  0.66354450  0.06617934  1
  H+  H326  1  0.12700631  0.28642447  0.61343746  1
  H+  H327  1  0.84646629  0.92659436  0.39679836  1
  H+  H328  1  0.43804409  0.58551786  0.27530390  1
  H+  H329  1  0.83156063  0.40745573  0.43100109  1
  H+  H330  1  0.87244396  -0.01831628  0.33551517  1
  H+  H331  1  0.84685866  0.67976417  0.39507450  1
  H+  H332  1  0.63061916  0.51357251  0.33804503  1
  H+  H333  1  0.41657992  0.86226507  0.32100877  1
  H+  H334  1  0.40610996  0.06956699  0.26965693  1
  H+  H335  1  0.32491546  0.40527877  0.76225484  1
  H+  H336  1  0.44172641  0.84647307  0.56706981  1
  H+  H337  1  0.08538373  0.41951743  0.39988606  1
  H+  H338  1  0.49921787  0.53274838  0.21991568  1
  H+  H339  1  0.52808500  0.92203069  0.27952564  1
  H+  H340  1  0.22712915  0.87020961  0.32918254  1
  H+  H341  1  0.40763918  0.07580230  0.59404754  1
  H+  H342  1  0.90936833  0.58648966  0.24309797  1
  H+  H343  1  0.58717739  0.91267076  0.05417376  1
  H+  H344  1  0.42066374  0.07897497  0.89691982  1
  H+  H345  1  0.67275181  0.07916859  0.92919873  1
  H+  H346  1  0.07463025  0.67312642  0.40340026  1
  H+  H347  1  0.38715686  0.35724034  0.65801676  1
  H+  H348  1  0.66353702  0.81934253  0.93136008  1
  H+  H349  1  0.40652899  0.56609697  0.89842644  1
  H+  H350  1  0.90423502  0.58290000  0.94117974  1
  H+  H351  1  0.61165532  0.89142750  0.47149983  1
  H+  H352  1  0.08954609  0.16503671  0.11288684  1
  H+  H353  1  0.03551009  0.14703436  0.50607178  1
  H+  H354  1  0.84558055  0.43785113  0.72540959  1
  H+  H355  1  0.15107557  0.81775470  0.26291285  1
  H+  H356  1  0.34793985  0.42487651  0.07754784  1
  H+  H357  1  0.58427320  0.66831447  0.09781199  1
  H+  H358  1  0.11002467  0.37736678  0.66300999  1
  H+  H359  1  0.16351460  0.58128031  0.56252986  1
  H+  H360  1  0.90519716  0.33739843  0.94287354  1
  H+  H361  1  0.58665958  0.67052731  0.43160455  1
  H+  H362  1  0.57555869  0.39225051  0.74133527  1
  H+  H363  1  0.33607462  0.16448900  0.43214831  1
  H+  H364  1  0.32236765  0.90170183  0.09807742  1
  H+  H365  1  0.17810297  0.07703599  0.23407274  1
  H+  H366  1  0.41198916  0.32409956  0.24648961  1
  H+  H367  1  0.08239228  0.91394871  0.10148448  1
  H+  H368  1  0.16937587  0.83135608  0.93403763  1
  H+  H369  1  0.88612371  0.11339469  1.00065240  1
  H+  H370  1  0.69577068  0.64908029  0.59989417  1
  H+  H371  1  0.42393234  0.33333980  0.56329609  1
  H+  H372  1  0.08694367  0.15963846  0.77029376  1
  H+  H373  1  0.83862265  0.92295177  0.09571763  1
  H+  H374  1  0.82081639  0.67336787  0.09213365  1
  H+  H375  1  0.93380308  0.11906528  0.91058340  1
  H+  H376  1  0.56486575  0.35510269  0.41506677  1
  H+  H377  1  0.47568998  0.61178809  0.98919232  1
  H+  H378  1  0.38664968  0.31200943  0.93051098  1
  H+  H379  1  0.09610688  0.62186822  0.15723787  1
  H+  H380  1  0.53714510  0.13596038  0.99741663  1
  H+  H381  1  0.90650656  0.83294576  0.22820469  1
  H+  H382  1  0.97188084  0.60036104  0.53356045  1
  H+  H383  1  0.79064134  0.72265033  0.78913224  1
  O2-  O384  1  0.09059779  0.16241633  0.15890043  1
  O2-  O385  1  0.09674795  0.17315524  0.49408232  1
  O2-  O386  1  0.08622401  0.15542307  0.81594064  1
  O2-  O387  1  0.07544037  0.41465285  0.15691100  1
  O2-  O388  1  0.08892959  0.41998972  0.47712116  1
  O2-  O389  1  0.11701734  0.41523963  0.79289842  1
  O2-  O390  1  0.06685282  0.65132676  0.13814391  1
  O2-  O391  1  0.05059710  0.68091615  0.47400112  1
  O2-  O392  1  0.11755628  0.68096614  0.79891717  1
  O2-  O393  1  0.08021906  0.91196332  0.14704377  1
  O2-  O394  1  0.10125489  0.92116829  0.48466883  1
  O2-  O395  1  0.09261834  0.90925069  0.81105825  1
  O2-  O396  1  0.34113312  0.16154274  0.15336742  1
  O2-  O397  1  0.33618782  0.16218276  0.47815272  1
  O2-  O398  1  0.33331279  0.15972762  0.81097826  1
  O2-  O399  1  0.34119946  0.41304988  0.15348718  1
  O2-  O400  1  0.34125577  0.42427746  0.47669958  1
  O2-  O401  1  0.32553799  0.40531640  0.80781167  1
  O2-  O402  1  0.29296114  0.62062422  0.12788306  1
  O2-  O403  1  0.32886093  0.66878447  0.48030382  1
  O2-  O404  1  0.34264862  0.67555797  0.83209436  1
  O2-  O405  1  0.31523449  0.89560004  0.14394377  1
  O2-  O406  1  0.33501637  0.91521758  0.48941959  1
  O2-  O407  1  0.34106231  0.91759252  0.80521121  1
  O2-  O408  1  0.60515400  0.18433966  0.13586338  1
  O2-  O409  1  0.57715728  0.15740887  0.48177642  1
  O2-  O410  1  0.59099186  0.16810976  0.81538612  1
  O2-  O411  1  0.59994011  0.43565780  0.17786216  1
  O2-  O412  1  0.57682772  0.39347974  0.44965372  1
  O2-  O413  1  0.57415349  0.40136074  0.81424512  1
  O2-  O414  1  0.58657506  0.67515188  0.14268200  1
  O2-  O415  1  0.58782869  0.66604185  0.47885594  1
  O2-  O416  1  0.56475772  0.65445873  0.81666661  1
  O2-  O417  1  0.59072059  0.92010575  0.11916139  1
  O2-  O418  1  0.57973455  0.92067065  0.45784495  1
  O2-  O419  1  0.57884216  0.90775590  0.80755647  1
  O2-  O420  1  0.83477280  0.17676286  0.12686615  1
  O2-  O421  1  0.83673521  0.16641322  0.47807313  1
  O2-  O422  1  0.83510591  0.18154001  0.80955033  1
  O2-  O423  1  0.83914236  0.40826547  0.15158222  1
  O2-  O424  1  0.83455574  0.40492801  0.47621131  1
  O2-  O425  1  0.83282082  0.42733268  0.80415754  1
  O2-  O426  1  0.81517058  0.67883749  0.13957679  1
  O2-  O427  1  0.85220277  0.66374358  0.48197415  1
  O2-  O428  1  0.80314773  0.67647442  0.80071615  1
  O2-  O429  1  0.84259043  0.92727136  0.14193385  1
  O2-  O430  1  0.84467133  0.92935744  0.47637866  1
  O2-  O431  1  0.79669248  0.82808248  0.78739631  1
  O2-  O432  1  0.17497116  0.07891798  0.18846750  1
  O2-  O433  1  0.17242312  0.08453004  0.52542054  1
  O2-  O434  1  0.17030165  0.07482490  0.85394101  1
  O2-  O435  1  0.17703247  0.34074305  0.19379531  1
  O2-  O436  1  0.18221162  0.35603558  0.52021598  1
  O2-  O437  1  0.17403696  0.31692750  0.86268958  1
  O2-  O438  1  0.14747402  0.57491861  0.18775227  1
  O2-  O439  1  0.16216214  0.57566473  0.51772638  1
  O2-  O440  1  0.16597981  0.57207494  0.84221891  1
  O2-  O441  1  0.15020310  0.81883014  0.18973939  1
  O2-  O442  1  0.18428982  0.84777508  0.52677913  1
  O2-  O443  1  0.17711838  0.83100172  0.85414047  1
  O2-  O444  1  0.40333154  0.05957648  0.19890287  1
  O2-  O445  1  0.41668474  0.08380623  0.52573039  1
  O2-  O446  1  0.42088614  0.07942105  0.85125570  1
  O2-  O447  1  0.41406647  0.32184850  0.20165512  1
  O2-  O448  1  0.41828886  0.33050244  0.51784912  1
  O2-  O449  1  0.40873568  0.32394280  0.85341164  1
  O2-  O450  1  0.46551584  0.55834278  0.20581811  1
  O2-  O451  1  0.41403430  0.58409726  0.52427336  1
  O2-  O452  1  0.40385617  0.56425546  0.85306843  1
  O2-  O453  1  0.47270368  0.90656575  0.25865685  1
  O2-  O454  1  0.42948155  0.84335003  0.52305681  1
  O2-  O455  1  0.42088439  0.83886840  0.85510007  1
  O2-  O456  1  0.66468197  0.06726797  0.16431941  1
  O2-  O457  1  0.66902196  0.07782588  0.51105861  1
  O2-  O458  1  0.67081863  0.07968927  0.84671160  1
  O2-  O459  1  0.67244122  0.33701349  0.19235818  1
  O2-  O460  1  0.66322759  0.32185452  0.52020395  1
  O2-  O461  1  0.67198121  0.33768684  0.85383405  1
  O2-  O462  1  0.67399671  0.59965052  0.19024025  1
  O2-  O463  1  0.74334859  0.71375649  0.54400002  1
  O2-  O464  1  0.64042264  0.57009072  0.85259206  1
  O2-  O465  1  0.65601525  0.83457843  0.16550211  1
  O2-  O466  1  0.66985419  0.84679444  0.50689303  1
  O2-  O467  1  0.66176015  0.81609487  0.85057250  1
  O2-  O468  1  0.92451134  0.07009074  0.18504531  1
  O2-  O469  1  0.92291196  0.09175896  0.52651226  1
  O2-  O470  1  0.94146108  0.14638700  0.87005903  1
  O2-  O471  1  0.91052337  0.32403817  0.19224955  1
  O2-  O472  1  0.91948747  0.33026741  0.51395976  1
  O2-  O473  1  0.90880408  0.34150380  0.85670113  1
  O2-  O474  1  0.90302718  0.59759769  0.20008131  1
  O2-  O475  1  0.96699982  0.61654177  0.49056797  1
  O2-  O476  1  0.89464243  0.58414370  0.86394450  1
  O2-  O477  1  0.90924617  0.83790566  0.18102077  1
  O2-  O478  1  0.93845866  0.85403919  0.51428061  1
  O2-  O479  1  0.93016427  0.83070299  0.85578919  1
  O2-  O480  1  0.17754873  0.08005462  0.31132230  1
  O2-  O481  1  0.17962844  0.09246743  0.64771296  1
  O2-  O482  1  0.16924063  0.07685280  0.98090827  1
  O2-  O483  1  0.17336007  0.34126886  0.31606455  1
  O2-  O484  1  0.15501724  0.32249062  0.64870471  1
  O2-  O485  1  0.20914539  0.29593130  0.97900019  1
  O2-  O486  1  0.15525862  0.58549665  0.31353799  1
  O2-  O487  1  0.16535163  0.58830854  0.64566939  1
  O2-  O488  1  0.18809173  0.63742936  0.95546445  1
  O2-  O489  1  0.15371864  0.82098646  0.30920839  1
  O2-  O490  1  0.18265986  0.83605160  0.64060012  1
  O2-  O491  1  0.16932649  0.83482350  0.97943260  1
  O2-  O492  1  0.40474763  0.07304188  0.31614144  1
  O2-  O493  1  0.40221515  0.07189448  0.64124667  1
  O2-  O494  1  0.42505813  0.07855690  0.97509731  1
  O2-  O495  1  0.41675074  0.33435039  0.32965925  1
  O2-  O496  1  0.42148623  0.33063951  0.64274507  1
  O2-  O497  1  0.36521662  0.30143295  0.97347773  1
  O2-  O498  1  0.42772660  0.59039756  0.31929984  1
  O2-  O499  1  0.40318264  0.56621472  0.64886930  1
  O2-  O500  1  0.41423976  0.58206315  0.97686116  1
  O2-  O501  1  0.38327077  0.83700976  0.35990570  1
  O2-  O502  1  0.44539793  0.85002722  0.65113054  1
  O2-  O503  1  0.41966171  0.83835152  0.97953541  1
  O2-  O504  1  0.68365611  0.10684032  0.31899557  1
  O2-  O505  1  0.67546361  0.04784527  0.63127090  1
  O2-  O506  1  0.67222916  0.07834350  0.97430436  1
  O2-  O507  1  0.66263609  0.32449151  0.31001048  1
  O2-  O508  1  0.67402277  0.32839729  0.64287335  1
  O2-  O509  1  0.66721323  0.34156324  0.97357956  1
  O2-  O510  1  0.65342245  0.55971544  0.37018839  1
  O2-  O511  1  0.66664235  0.60790076  0.63505993  1
  O2-  O512  1  0.62993789  0.61904076  0.99710579  1
  O2-  O513  1  0.67369860  0.84455759  0.31938223  1
  O2-  O514  1  0.68113905  0.89592893  0.62506772  1
  O2-  O515  1  0.66219834  0.81907694  0.97681472  1
  O2-  O516  1  0.92044077  0.08461509  0.30390981  1
  O2-  O517  1  0.92342462  0.08979796  0.65228404  1
  O2-  O518  1  0.92335229  0.08638605  0.98999931  1
  O2-  O519  1  0.92182203  0.33713235  0.31267558  1
  O2-  O520  1  0.91365309  0.33377463  0.63920130  1
  O2-  O521  1  0.90972772  0.33756307  0.98766013  1
  O2-  O522  1  0.91135908  0.58165655  0.32549996  1
  O2-  O523  1  0.95031261  0.58290690  0.61321998  1
  O2-  O524  1  0.90834210  0.58316765  0.98662155  1
  O2-  O525  1  0.90355666  0.82533191  0.29656305  1
  O2-  O526  1  0.94004243  0.87428288  0.63476647  1
  O2-  O527  1  0.91655292  0.83297979  0.98066313  1
  O2-  O528  1  0.08470019  0.15799316  0.03635135  1
  O2-  O529  1  0.09391684  0.17286591  0.30580035  1
  O2-  O530  1  0.09310262  0.16701626  0.69410253  1
  O2-  O531  1  0.08575298  0.38970504  -0.01801374  1
  O2-  O532  1  0.08747227  0.41931135  0.35418418  1
  O2-  O533  1  0.08257061  0.41310302  0.67717798  1
  O2-  O534  1  0.07755350  0.67195305  0.02024367  1
  O2-  O535  1  0.08241828  0.67240159  0.35750727  1
  O2-  O536  1  0.08439215  0.68567991  0.67247950  1
  O2-  O537  1  0.08255468  0.91344257  0.02265979  1
  O2-  O538  1  0.09254777  0.92290750  0.36841294  1
  O2-  O539  1  0.10426662  0.92655748  0.68562531  1
  O2-  O540  1  0.34032025  0.15535446  0.02637072  1
  O2-  O541  1  0.33632227  0.17060118  0.35607763  1
  O2-  O542  1  0.34114936  0.16319970  0.68331323  1
  O2-  O543  1  0.34826761  0.42915983  0.03197302  1
  O2-  O544  1  0.33780207  0.42216286  0.35213682  1
  O2-  O545  1  0.32242148  0.39725171  0.68236033  1
  O2-  O546  1  0.33073948  0.66752084  0.01127781  1
  O2-  O547  1  0.32422979  0.66739474  0.31548897  1
  O2-  O548  1  0.33646725  0.66364686  0.67768383  1
  O2-  O549  1  0.33390202  0.91353745  0.02355891  1
  O2-  O550  1  0.29279394  0.91515938  0.35369234  1
  O2-  O551  1  0.34458897  0.91948688  0.68379644  1
  O2-  O552  1  0.59815942  0.17133193  0.00972928  1
  O2-  O553  1  0.57538648  0.16616564  0.35853470  1
  O2-  O554  1  0.60407924  0.16581236  0.69340666  1
  O2-  O555  1  0.59897368  0.47245621  0.05614737  1
  O2-  O556  1  0.58761137  0.42283893  0.29748142  1
  O2-  O557  1  0.58588417  0.39987494  0.69559752  1
  O2-  O558  1  0.58062647  0.65784325  0.01965870  1
  O2-  O559  1  0.58890494  0.66956563  0.36257579  1
  O2-  O560  1  0.56431175  0.66729841  0.69642232  1
  O2-  O561  1  0.58469684  0.90801418  0.00575182  1
  O2-  O562  1  0.60720388  0.94085591  0.33166057  1
  O2-  O563  1  0.53035355  0.89474414  0.68098388  1
  O2-  O564  1  0.83574176  0.16601540  -0.00218738  1
  O2-  O565  1  0.85114377  0.17134970  0.35622832  1
  O2-  O566  1  0.83524708  0.17106444  0.68666649  1
  O2-  O567  1  0.82546232  0.41813470  0.02724412  1
  O2-  O568  1  0.82993635  0.41169517  0.35250508  1
  O2-  O569  1  0.84175013  0.43378119  0.67989155  1
  O2-  O570  1  0.83042201  0.66856965  0.02788894  1
  O2-  O571  1  0.82856298  0.66446515  0.35255542  1
  O2-  O572  1  0.74958507  0.55645874  0.70806479  1
  O2-  O573  1  0.82852600  0.90992028  0.02232353  1
  O2-  O574  1  0.84233633  0.92194262  0.35161691  1
  O2-  O575  1  0.82349567  0.91773541  0.68200107  1
