# generated using pymatgen
data_H2O
_symmetry_space_group_name_H-M   'P 1'
_cell_length_a   17.99135885
_cell_length_b   18.00702002
_cell_length_c   22.00511806
_cell_angle_alpha   89.99920191
_cell_angle_beta   90.00861857
_cell_angle_gamma   119.98954700
_symmetry_Int_Tables_number   1
_chemical_formula_structural   H2O
_chemical_formula_sum   'H384 O192'
_cell_volume   6174.55804162
_cell_formula_units_Z   192
loop_
 _symmetry_equiv_pos_site_id
 _symmetry_equiv_pos_as_xyz
  1  'x, y, z'
loop_
 _atom_type_symbol
 _atom_type_oxidation_number
  H+  1.0
  O2-  -2.0
loop_
 _atom_site_type_symbol
 _atom_site_label
 _atom_site_symmetry_multiplicity
 _atom_site_fract_x
 _atom_site_fract_y
 _atom_site_fract_z
 _atom_site_occupancy
  H+  H0  1  0.98736259  0.10989619  0.51035981  1
  H+  H1  1  0.71998626  0.11755140  0.84172221  1
  H+  H2  1  0.11861654  0.73082226  0.33396852  1
  H+  H3  1  0.46057724  0.60178402  0.17060745  1
  H+  H4  1  0.59615603  0.83512851  0.16042661  1
  H+  H5  1  0.26770913  0.37940220  0.48859078  1
  H+  H6  1  0.16015662  0.88375283  0.51538857  1
  H+  H7  1  0.48745324  0.88253615  0.32702150  1
  H+  H8  1  0.70969377  0.12027009  0.17041896  1
  H+  H9  1  0.12519515  0.73372513  0.67386311  1
  H+  H10  1  0.48991344  0.38398020  0.17417789  1
  H+  H11  1  0.37257783  0.73801604  1.00369773  1
  H+  H12  1  0.61944741  -0.00535011  0.65253732  1
  H+  H13  1  0.61338495  0.46751874  0.82181616  1
  H+  H14  1  0.52382654  0.87150239  0.47963482  1
  H+  H15  1  0.90567146  0.11790270  0.32729262  1
  H+  H16  1  0.12107072  0.88461008  0.00921691  1
  H+  H17  1  0.59168905  0.17719223  0.71250792  1
  H+  H18  1  0.88609930  0.76750411  0.18315083  1
  H+  H19  1  0.12583554  0.36459783  0.69194880  1
  H+  H20  1  0.64049252  0.60622036  0.98681072  1
  H+  H21  1  0.84431456  0.20838176  0.16357747  1
  H+  H22  1  0.38649587  0.90869471  0.83059117  1
  H+  H23  1  0.12728298  0.43735967  0.81462885  1
  H+  H24  1  0.62021582  0.10726018  0.32510061  1
  H+  H25  1  0.63288999  0.95488732  -0.02146238  1
  H+  H26  1  0.14311978  0.64732023  0.84525763  1
  H+  H27  1  0.14417604  0.78029162  0.17514758  1
  H+  H28  1  0.27448760  0.37279958  0.16085668  1
  H+  H29  1  0.40195791  0.12030541  0.49637704  1
  H+  H30  1  0.07740456  0.45124454  0.14324075  1
  H+  H31  1  0.61298413  0.70736382  0.00410063  1
  H+  H32  1  0.36037175  0.98943331  0.16425360  1
  H+  H33  1  0.10264986  0.96963698  0.68519688  1
  H+  H34  1  0.72871843  0.84546939  0.63687896  1
  H+  H35  1  1.00718094  0.10214885  1.00044094  1
  H+  H36  1  0.51619591  0.39397084  1.00146973  1
  H+  H37  1  0.35996881  0.38318218  0.48661211  1
  H+  H38  1  0.36559996  0.98810416  0.33934330  1
  H+  H39  1  0.01536944  0.87913265  0.68546618  1
  H+  H40  1  0.87066454  0.87601737  0.00663040  1
  H+  H41  1  0.27703490  0.13664647  0.00208090  1
  H+  H42  1  0.86150688  -0.00894683  0.33377423  1
  H+  H43  1  0.77859839  0.38746855  0.14839072  1
  H+  H44  1  0.13307257  0.86215811  0.66744101  1
  H+  H45  1  0.12103413  0.63698872  0.33101015  1
  H+  H46  1  0.78050020  0.12749103  0.49504636  1
  H+  H47  1  0.61095767  0.07762846  0.66195271  1
  H+  H48  1  0.88206949  1.00815046  0.84611503  1
  H+  H49  1  0.90323504  0.62981577  0.33224227  1
  H+  H50  1  0.97200163  0.96049030  0.56397727  1
  H+  H51  1  0.86691652  0.33862706  0.83892843  1
  H+  H52  1  0.11628920  0.88745969  0.16346252  1
  H+  H53  1  0.25142786  0.12754863  0.32017764  1
  H+  H54  1  0.23589195  0.86954256  0.99890862  1
  H+  H55  1  0.37115515  0.22800400  0.83509321  1
  H+  H56  1  0.09992241  0.18244795  1.02774117  1
  H+  H57  1  0.12285652  0.13265208  0.33541183  1
  H+  H58  1  0.28658407  0.89272324  0.49697734  1
  H+  H59  1  0.19102986  0.03068798  0.30446785  1
  H+  H60  1  0.61773124  0.05412234  0.85181918  1
  H+  H61  1  0.13006177  0.86137179  0.33173835  1
  H+  H62  1  0.27527236  0.38353837  0.68740655  1
  H+  H63  1  0.37006319  0.14661909  0.00579368  1
  H+  H64  1  0.46453834  0.12020683  0.17524763  1
  H+  H65  1  0.39239795  0.85766259  0.49558583  1
  H+  H66  1  0.08844172  0.42254764  0.39316324  1
  H+  H67  1  0.87798647  0.64190216  0.67967353  1
  H+  H68  1  0.58676592  0.70711792  0.15040694  1
  H+  H69  1  0.52790293  0.62975637  0.84508629  1
  H+  H70  1  0.86662108  0.39791353  0.67043608  1
  H+  H71  1  0.63473154  0.30467120  0.50093115  1
  H+  H72  1  0.11345179  0.51549683  0.82114223  1
  H+  H73  1  0.38570098  0.36928712  0.17168049  1
  H+  H74  1  0.87504325  0.87394324  0.83491901  1
  H+  H75  1  0.47908701  0.36119810  0.83437373  1
  H+  H76  1  0.62541214  0.19585405  0.52187577  1
  H+  H77  1  0.76333231  0.37431995  0.82442058  1
  H+  H78  1  0.66730197  0.30304879  0.64143941  1
  H+  H79  1  0.61987210  0.71304026  0.84050340  1
  H+  H80  1  0.11172356  0.46992243  0.48809902  1
  H+  H81  1  0.61883911  0.36698092  1.00078625  1
  H+  H82  1  0.78386874  0.41009059  0.66966360  1
  H+  H83  1  0.34325648  0.13580109  0.63740616  1
  H+  H84  1  0.20878221  0.10840105  0.65283143  1
  H+  H85  1  0.10809085  0.09703558  0.99687470  1
  H+  H86  1  0.87507165  0.72211734  0.48847946  1
  H+  H87  1  0.38375520  0.37314486  0.32501810  1
  H+  H88  1  0.02408273  0.88033364  0.16320913  1
  H+  H89  1  0.01243905  0.13393200  0.68233465  1
  H+  H90  1  0.38493096  0.99781336  0.83970492  1
  H+  H91  1  1.05368800  0.92016416  0.51276981  1
  H+  H92  1  0.52920490  0.13552029  0.49904481  1
  H+  H93  1  0.84380757  0.11735717  0.83065691  1
  H+  H94  1  0.13795209  0.27206485  0.32354559  1
  H+  H95  1  0.60084074  0.71966449  0.32567980  1
  H+  H96  1  0.37634760  0.24507531  0.32871650  1
  H+  H97  1  0.61377774  0.95964494  0.48447368  1
  H+  H98  1  0.87452439  0.09848893  0.66505929  1
  H+  H99  1  0.37562609  0.03513387  0.65772104  1
  H+  H100  1  0.98062710  0.36240699  0.32219558  1
  H+  H101  1  0.98292713  0.85421214  -0.00352038  1
  H+  H102  1  0.34224727  0.22386282  0.63420046  1
  H+  H103  1  0.62976447  0.61488043  0.31912781  1
  H+  H104  1  0.39363931  0.36788439  0.83550769  1
  H+  H105  1  0.48495070  0.37612417  0.49912623  1
  H+  H106  1  0.23117093  0.87131541  0.17726516  1
  H+  H107  1  0.89479329  0.53979997  0.33872832  1
  H+  H108  1  0.38677872  0.27830045  0.98755730  1
  H+  H109  1  0.55738410  0.12620402  -0.00835217  1
  H+  H110  1  0.86528908  0.62939328  1.00345482  1
  H+  H111  1  0.10232474  0.13572328  0.68266980  1
  H+  H112  1  0.13633641  0.52923993  0.32328415  1
  H+  H113  1  0.63754965  0.59880426  0.84597858  1
  H+  H114  1  0.04180719  0.71334339  0.80711629  1
  H+  H115  1  0.61056419  0.48052109  0.00073434  1
  H+  H116  1  0.11937861  0.39557101  0.33345049  1
  H+  H117  1  0.09102198  0.97459852  0.35808924  1
  H+  H118  1  0.37089668  0.58854123  0.65855346  1
  H+  H119  1  0.38303663  0.35991896  0.65330776  1
  H+  H120  1  0.76020301  0.38801013  0.49214905  1
  H+  H121  1  0.63733809  0.64351222  0.16529393  1
  H+  H122  1  0.77952222  0.95126892  0.37575933  1
  H+  H123  1  0.90047556  0.53117229  0.67271010  1
  H+  H124  1  0.39043700  0.62065211  0.84232071  1
  H+  H125  1  0.62115512  0.86722289  0.82044025  1
  H+  H126  1  0.36931994  0.64738463  1.00948859  1
  H+  H127  1  0.13680636  0.00924086  0.99407717  1
  H+  H128  1  0.90575922  0.52188411  0.16858062  1
  H+  H129  1  0.39673179  0.02761363  0.50104649  1
  H+  H130  1  0.37065071  0.90640027  0.16293751  1
  H+  H131  1  0.39840753  0.13330284  0.84806293  1
  H+  H132  1  0.72946060  0.62833581  0.16832118  1
  H+  H133  1  0.07872630  0.91749816  0.41470074  1
  H+  H134  1  0.19479071  0.55988299  0.17933641  1
  H+  H135  1  0.38952104  0.82463982  0.64188908  1
  H+  H136  1  0.10765965  0.47481326  0.66657425  1
  H+  H137  1  0.14424271  0.62622143  -0.00334827  1
  H+  H138  1  0.10658912  0.14078277  0.15759547  1
  H+  H139  1  0.28666398  0.13339484  0.83942311  1
  H+  H140  1  0.38314219  0.52662963  0.99734059  1
  H+  H141  1  0.11668837  0.73055443  1.00401590  1
  H+  H142  1  0.46638512  0.60308268  0.50166603  1
  H+  H143  1  1.02061721  0.63634467  0.33691594  1
  H+  H144  1  0.54585074  0.15542722  0.09352113  1
  H+  H145  1  0.51872154  0.62412008  0.00224785  1
  H+  H146  1  0.60665961  0.39065198  0.32908293  1
  H+  H147  1  0.88477126  0.22459592  0.33975675  1
  H+  H148  1  -0.03147932  0.58892807  0.83867410  1
  H+  H149  1  0.86294310  -0.02142888  0.67607443  1
  H+  H150  1  0.38084472  0.15596532  0.33073008  1
  H+  H151  1  0.02240118  0.38276654  0.48295526  1
  H+  H152  1  0.67416051  0.96105899  0.13541337  1
  H+  H153  1  0.12623629  1.01982751  0.16975138  1
  H+  H154  1  0.08410824  0.67895840  0.75901731  1
  H+  H155  1  0.62868548  0.27878566  0.13956148  1
  H+  H156  1  0.76786439  0.38625921  0.00565283  1
  H+  H157  1  0.61984542  0.23515160  0.33989389  1
  H+  H158  1  0.37354774  -0.01337912  1.01138207  1
  H+  H159  1  0.40716630  0.58198640  0.26319593  1
  H+  H160  1  0.42100360  0.81580970  0.54855561  1
  H+  H161  1  0.22488127  0.60467248  0.65974134  1
  H+  H162  1  0.72766599  0.59940521  0.83872338  1
  H+  H163  1  0.14614586  0.01340247  0.84338306  1
  H+  H164  1  0.70161527  0.19762162  0.98518870  1
  H+  H165  1  0.63598006  0.09132799  0.49926626  1
  H+  H166  1  0.89525260  1.02509922  0.50744776  1
  H+  H167  1  0.75440966  0.10574312  0.67254448  1
  H+  H168  1  -0.04136925  0.33475488  0.16110861  1
  H+  H169  1  0.72060069  0.61517911  0.32273064  1
  H+  H170  1  0.30104622  0.68052147  0.16352150  1
  H+  H171  1  0.11733125  0.49656749  -0.00527157  1
  H+  H172  1  -0.03274682  0.36992957  0.65329362  1
  H+  H173  1  0.59510026  0.14154117  0.15021463  1
  H+  H174  1  0.51262811  0.62923613  0.32660668  1
  H+  H175  1  0.33977950  0.92756574  0.07034649  1
  H+  H176  1  0.89940134  0.60516636  0.16808588  1
  H+  H177  1  -0.01467745  0.85195015  0.84440802  1
  H+  H178  1  0.13953328  0.36073006  0.16829416  1
  H+  H179  1  0.60148951  0.97849673  0.33065879  1
  H+  H180  1  0.60085295  0.27022983  0.99712405  1
  H+  H181  1  0.73737802  0.85527149  0.84428104  1
  H+  H182  1  0.60072224  0.70596867  0.48095090  1
  H+  H183  1  0.39768516  0.63901932  0.17422875  1
  H+  H184  1  0.61239304  0.25965483  0.85548127  1
  H+  H185  1  0.08566404  0.74686014  0.49700337  1
  H+  H186  1  0.62193971  0.40665264  0.49051410  1
  H+  H187  1  0.70988977  0.86131112  0.30791333  1
  H+  H188  1  0.12813169  0.88625460  0.83308411  1
  H+  H189  1  -0.02104298  0.60887697  -0.00659629  1
  H+  H190  1  0.82643864  0.40973450  0.76617687  1
  H+  H191  1  0.88162576  0.36281468  0.49374234  1
  H+  H192  1  0.86706125  0.22050410  0.01329072  1
  H+  H193  1  0.88583355  0.10232121  0.99700682  1
  H+  H194  1  0.89251161  0.76510238  -0.00319728  1
  H+  H195  1  0.64162627  0.51859268  0.65631474  1
  H+  H196  1  0.50133677  0.11335323  0.68366630  1
  H+  H197  1  0.10707978  0.19839850  0.83358507  1
  H+  H198  1  1.04728253  0.64957822  0.49869749  1
  H+  H199  1  0.85228672  0.72172143  0.33981831  1
  H+  H200  1  0.37824366  0.51391371  0.50467184  1
  H+  H201  1  0.86453077  -0.03749526  1.00550559  1
  H+  H202  1  0.35106183  0.62755759  0.33538862  1
  H+  H203  1  0.91533044  0.82890849  0.24038559  1
  H+  H204  1  0.61134237  0.48212355  0.32718854  1
  H+  H205  1  0.88516102  0.27579287  0.49980990  1
  H+  H206  1  0.77613122  0.63054996  0.00023824  1
  H+  H207  1  0.35297466  0.70070280  0.10061977  1
  H+  H208  1  0.86717917  0.88728616  0.16424546  1
  H+  H209  1  0.61874477  1.02845900  0.00060937  1
  H+  H210  1  0.96693105  0.09849512  0.84437935  1
  H+  H211  1  0.77395817  0.64294904  0.49425371  1
  H+  H212  1  0.40882147  0.80519262  0.17032025  1
  H+  H213  1  0.36392733  0.70062810  0.66738932  1
  H+  H214  1  0.12614389  0.27453516  0.69930677  1
  H+  H215  1  0.13489132  0.31874659  1.05037914  1
  H+  H216  1  0.72958428  0.85199879  0.49204140  1
  H+  H217  1  0.86869671  0.71456882  0.83210913  1
  H+  H218  1  0.17489720  0.36033240  0.77499995  1
  H+  H219  1  0.38944234  0.24188467  0.48275444  1
  H+  H220  1  0.14091359  0.61308830  0.65842612  1
  H+  H221  1  0.13703611  0.35823309  0.49809808  1
  H+  H222  1  0.87334977  0.13816523  0.50107943  1
  H+  H223  1  0.73751303  0.84793261  0.99940462  1
  H+  H224  1  0.87891077  0.89813368  0.49430670  1
  H+  H225  1  0.72050515  0.37951153  0.32730665  1
  H+  H226  1  0.49529579  0.89655717  0.17366496  1
  H+  H227  1  0.88398946  0.76497784  0.66840214  1
  H+  H228  1  0.87576445  0.84999357  0.67304280  1
  H+  H229  1  1.03159534  0.12763475  0.33555113  1
  H+  H230  1  0.35849532  0.71214290  0.48497431  1
  H+  H231  1  0.13875983  0.27114163  0.50139575  1
  H+  H232  1  0.29693638  0.40950775  0.82158921  1
  H+  H233  1  0.37236905  0.73855843  0.82309848  1
  H+  H234  1  0.48225505  0.88377943  0.98861708  1
  H+  H235  1  0.93750743  0.86644750  0.58609067  1
  H+  H236  1  0.36505664  0.91718432  0.68871706  1
  H+  H237  1  0.90961453  0.34652333  0.59401613  1
  H+  H238  1  0.62109215  0.03659016  0.16459813  1
  H+  H239  1  0.64566129  0.83894645  1.00779835  1
  H+  H240  1  0.49086032  0.86832600  0.83327633  1
  H+  H241  1  0.25320043  0.88024947  0.84493700  1
  H+  H242  1  0.86066325  0.47238936  0.00191167  1
  H+  H243  1  0.13183284  0.13888708  0.49124604  1
  H+  H244  1  0.61117762  0.38568824  0.66231417  1
  H+  H245  1  0.84516774  0.20746936  0.82854542  1
  H+  H246  1  0.27989408  0.38130321  1.01862831  1
  H+  H247  1  0.77785456  0.13742057  0.00678752  1
  H+  H248  1  0.66509484  0.34414200  0.08655691  1
  H+  H249  1  0.26448092  0.13251281  0.49136834  1
  H+  H250  1  0.36374339  0.46969850  0.67015205  1
  H+  H251  1  0.28009684  0.65589903  0.82724589  1
  H+  H252  1  0.21756503  0.59975318  0.50166668  1
  H+  H253  1  0.35654909  0.62255859  0.49132548  1
  H+  H254  1  0.14135505  0.09934691  0.84171350  1
  H+  H255  1  0.60772647  0.37675819  0.82372468  1
  H+  H256  1  0.65082254  0.54207277  0.50302551  1
  H+  H257  1  0.77153419  0.49146995  0.38006235  1
  H+  H258  1  0.16618876  0.78906967  0.83956223  1
  H+  H259  1  0.37056653  0.39115674  0.00434678  1
  H+  H260  1  0.13272208  0.26873761  0.17028717  1
  H+  H261  1  0.09987920  0.40772202  -0.03094431  1
  H+  H262  1  0.87799949  0.34786109  0.16730566  1
  H+  H263  1  0.27598854  0.89727186  0.33961010  1
  H+  H264  1  0.63251525  0.95467500  0.79682185  1
  H+  H265  1  0.37209015  0.11381672  0.17665834  1
  H+  H266  1  0.13135181  0.65235478  0.15633867  1
  H+  H267  1  0.92417307  0.82109877  0.90305929  1
  H+  H268  1  0.88795171  1.01945227  0.17184015  1
  H+  H269  1  0.47743190  0.37810978  0.32501063  1
  H+  H270  1  0.27007924  0.38452130  0.33575057  1
  H+  H271  1  0.61337771  0.86489248  0.65141960  1
  H+  H272  1  0.58715258  0.73609277  0.68060470  1
  H+  H273  1  0.14737279  0.99905153  0.49974244  1
  H+  H274  1  0.87674436  0.10219038  0.17606468  1
  H+  H275  1  0.46931100  0.35475865  0.65167076  1
  H+  H276  1  0.96786442  0.36292709  0.99154292  1
  H+  H277  1  0.87535747  0.35283424  0.99704240  1
  H+  H278  1  0.64245787  0.07830032  0.26251511  1
  H+  H279  1  0.09066337  0.15648959  0.43238783  1
  H+  H280  1  0.48277494  0.12250525  0.32806947  1
  H+  H281  1  0.23453378  0.62595901  0.99634483  1
  H+  H282  1  0.76301608  0.54078772  0.12888582  1
  H+  H283  1  0.63915705  0.84941500  0.48852033  1
  H+  H284  1  0.86307738  0.62238341  0.82948929  1
  H+  H285  1  0.59516812  0.17932991  0.40098122  1
  H+  H286  1  0.38096157  0.52052044  0.32274838  1
  H+  H287  1  0.48097096  0.83095807  0.64367185  1
  H+  H288  1  0.33769890  0.94455056  0.74770149  1
  H+  H289  1  1.01971937  0.14273578  0.16006770  1
  H+  H290  1  0.32850864  0.41420219  0.39656299  1
  H+  H291  1  0.41718733  0.33756348  0.92732165  1
  H+  H292  1  0.33274360  0.65792960  0.73302194  1
  H+  H293  1  0.66778090  0.81786924  0.57819722  1
  H+  H294  1  0.42665813  0.86044180  0.26180685  1
  H+  H295  1  0.41899590  0.08669936  0.59549002  1
  H+  H296  1  0.73351563  0.60357810  0.66128939  1
  H+  H297  1  0.60809312  0.94679923  0.08345449  1
  H+  H298  1  0.22653597  0.87425774  0.67253504  1
  H+  H299  1  0.08692749  0.91295153  0.06800367  1
  H+  H300  1  0.67835165  0.36043682  0.58042351  1
  H+  H301  1  0.57590267  0.87648260  0.71389063  1
  H+  H302  1  0.82523063  0.66149641  0.39788869  1
  H+  H303  1  0.91847565  0.07893149  0.60668657  1
  H+  H304  1  0.42039564  0.33775529  0.55639897  1
  H+  H305  1  0.57725355  0.40497221  0.72443442  1
  H+  H306  1  0.67529545  0.82885630  0.90200920  1
  H+  H307  1  0.91659689  0.32213032  0.26680622  1
  H+  H308  1  0.14774279  0.33748455  0.84568489  1
  H+  H309  1  0.84123435  0.91320009  0.10272737  1
  H+  H310  1  0.33984012  0.40764727  0.10324165  1
  H+  H311  1  0.67338943  0.13061980  0.92864162  1
  H+  H312  1  0.62096085  0.85976906  0.31397636  1
  H+  H313  1  0.07390415  0.40878888  0.08062097  1
  H+  H314  1  0.49795162  0.65604273  0.68658942  1
  H+  H315  1  0.33962037  0.92073038  0.43444646  1
  H+  H316  1  0.03712552  0.64145946  0.15608249  1
  H+  H317  1  0.78611267  0.52066131  0.55827263  1
  H+  H318  1  0.07241671  0.14744249  0.77190060  1
  H+  H319  1  0.26040111  0.12743106  0.15619302  1
  H+  H320  1  0.44202925  0.10542169  0.93920741  1
  H+  H321  1  0.96264526  0.86307155  0.34037115  1
  H+  H322  1  0.42658455  0.35036869  0.23773422  1
  H+  H323  1  0.67989348  0.62171590  0.23423803  1
  H+  H324  1  0.18278228  0.84357939  0.57171495  1
  H+  H325  1  0.65709735  0.06089461  0.56113154  1
  H+  H326  1  0.16609012  0.32975135  0.26327933  1
  H+  H327  1  0.43296941  0.84771100  0.89403497  1
  H+  H328  1  0.16484316  0.06926538  0.93197184  1
  H+  H329  1  0.85075661  0.47023691  0.49853987  1
  H+  H330  1  0.92540199  0.08120153  0.26470383  1
  H+  H331  1  0.06938710  0.43141287  0.72977273  1
  H+  H332  1  0.23894112  0.12262906  0.55849994  1
  H+  H333  1  0.03520600  0.64418603  0.67234019  1
  H+  H334  1  0.18672122  0.60511515  0.23850547  1
  H+  H335  1  0.89197523  0.30853953  0.89970857  1
  H+  H336  1  0.39013146  0.87320813  0.99149918  1
  H+  H337  1  0.42003145  0.09172850  0.26868267  1
  H+  H338  1  0.51518379  0.12878055  0.79786157  1
  H+  H339  1  0.39536454  0.53377559  0.84138380  1
  H+  H340  1  0.16008814  0.57143246  0.56066729  1
  H+  H341  1  0.67343202  0.57481026  0.92867780  1
  H+  H342  1  0.17407147  0.61255448  0.90126895  1
  H+  H343  1  0.85194778  0.59831617  0.51926773  1
  H+  H344  1  0.67518013  0.33761942  0.26366880  1
  H+  H345  1  0.58732515  0.43112944  0.43000438  1
  H+  H346  1  0.81745038  0.14912546  0.10508009  1
  H+  H347  1  0.65892005  0.33076588  0.90561390  1
  H+  H348  1  0.87773529  0.50154097  0.84006191  1
  H+  H349  1  0.62768448  0.80882956  0.22050700  1
  H+  H350  1  0.81086688  0.13574951  0.73355742  1
  H+  H351  1  0.16327271  0.08468170  0.22586399  1
  H+  H352  1  0.38908515  0.88439933  0.32484764  1
  H+  H353  1  0.57550268  0.64397359  0.09277354  1
  H+  H354  1  0.80858798  0.43696483  0.41061573  1
  H+  H355  1  0.32132578  0.65135181  0.39694970  1
  H+  H356  1  0.12398141  0.06346523  0.61438714  1
  H+  H357  1  0.84889375  0.90823682  0.77600622  1
  H+  H358  1  0.91125740  0.58305006  0.61247377  1
  H+  H359  1  0.90936453  0.07118256  0.93430890  1
  H+  H360  1  0.60979298  0.40025830  0.14836163  1
  H+  H361  1  0.08919016  0.67326818  0.06411440  1
  H+  H362  1  0.16493581  0.83953718  0.27038680  1
  H+  H363  1  0.57323905  0.43400299  0.09863300  1
  H+  H364  1  0.08780411  0.90930311  0.77512806  1
  H+  H365  1  0.81148624  0.62635064  0.09028316  1
  H+  H366  1  0.84404984  0.41643080  0.09576431  1
  H+  H367  1  0.87332406  0.86056919  0.33140475  1
  H+  H368  1  0.35796142  0.43045686  0.76539174  1
  H+  H369  1  0.85745323  0.16544881  0.39927284  1
  H+  H370  1  0.56182803  0.65234478  0.42125024  1
  H+  H371  1  0.18193003  0.84137355  0.93736165  1
  H+  H372  1  0.84704590  0.92012897  0.43111659  1
  H+  H373  1  0.22913356  0.61727110  0.32908829  1
  H+  H374  1  0.40985003  0.56909245  0.59883158  1
  H+  H375  1  0.77591102  0.91498618  0.71026398  1
  H+  H376  1  0.68454560  0.59025713  0.56728691  1
  H+  H377  1  0.83943695  0.66500031  0.73749243  1
  H+  H378  1  0.36078495  0.18543169  0.42084217  1
  H+  H379  1  0.41175396  0.58608589  0.93745272  1
  H+  H380  1  0.91814321  0.57290839  0.93418167  1
  H+  H381  1  0.32776430  0.16196999  0.10167032  1
  H+  H382  1  0.14536356  0.30574559  0.98151721  1
  H+  H383  1  0.57701746  0.91286044  0.39026904  1
  O2-  O384  1  0.07999655  0.17532421  0.14490701  1
  O2-  O385  1  0.08905789  0.15467853  0.47783455  1
  O2-  O386  1  0.07444019  0.14008200  0.81798026  1
  O2-  O387  1  0.06954733  0.39826005  0.12530351  1
  O2-  O388  1  0.08324996  0.41085343  0.46896576  1
  O2-  O389  1  0.08538559  0.45595065  0.80578730  1
  O2-  O390  1  0.09829623  0.67900320  0.14112559  1
  O2-  O391  1  0.03151930  0.69298054  0.49005296  1
  O2-  O392  1  0.07591530  0.68499050  0.80497854  1
  O2-  O393  1  0.08306103  0.91361679  0.14608840  1
  O2-  O394  1  0.10722533  0.93725532  0.48941521  1
  O2-  O395  1  0.09117083  0.91073219  0.82074656  1
  O2-  O396  1  0.32245026  0.15425938  0.14615495  1
  O2-  O397  1  0.36298638  0.18134572  0.46611180  1
  O2-  O398  1  0.34785664  0.16524545  0.82677734  1
  O2-  O399  1  0.33570965  0.39899322  0.14806004  1
  O2-  O400  1  0.32853187  0.41209947  0.47171337  1
  O2-  O401  1  0.35854725  0.43345832  0.81126468  1
  O2-  O402  1  0.35983882  0.71017023  0.14572719  1
  O2-  O403  1  0.32491343  0.65062588  0.47379558  1
  O2-  O404  1  0.33922370  0.67704040  0.81140235  1
  O2-  O405  1  0.33388658  0.92903370  0.14749427  1
  O2-  O406  1  0.34631942  0.92156353  0.47931862  1
  O2-  O407  1  0.35388831  0.93920311  0.82083403  1
  O2-  O408  1  0.56253590  0.17057762  0.13652627  1
  O2-  O409  1  0.59202639  0.16320603  0.48672941  1
  O2-  O410  1  0.52180781  0.14803247  0.84077642  1
  O2-  O411  1  0.58070995  0.43437176  0.14366109  1
  O2-  O412  1  0.58759788  0.43407755  0.47487229  1
  O2-  O413  1  0.58006175  0.40735280  0.80554119  1
  O2-  O414  1  0.57463502  0.64673736  0.13874232  1
  O2-  O415  1  0.55782085  0.64875649  0.46606879  1
  O2-  O416  1  0.58989237  0.64998086  0.84029445  1
  O2-  O417  1  0.61335160  0.94124527  0.12820386  1
  O2-  O418  1  0.58466760  0.90221762  0.46403409  1
  O2-  O419  1  0.59027073  0.89382221  0.79899792  1
  O2-  O420  1  0.80965826  0.14672975  0.14994895  1
  O2-  O421  1  0.84118435  0.16395784  0.48259597  1
  O2-  O422  1  0.81274727  0.14513761  0.81377050  1
  O2-  O423  1  0.84123752  0.41338634  0.14112003  1
  O2-  O424  1  0.82328313  0.41545396  0.47562408  1
  O2-  O425  1  0.82434613  0.40450426  0.81191289  1
  O2-  O426  1  0.79542834  0.60304077  0.13344015  1
  O2-  O427  1  0.83446099  0.66560997  0.47264108  1
  O2-  O428  1  0.83596171  0.65557939  0.81458090  1
  O2-  O429  1  0.84111144  0.91973036  0.14741921  1
  O2-  O430  1  0.84179533  0.91831285  0.47596857  1
  O2-  O431  1  0.84476760  0.90536679  0.82080566  1
  O2-  O432  1  0.15502098  0.08177874  0.18131457  1
  O2-  O433  1  0.21121255  0.10559874  0.51796921  1
  O2-  O434  1  0.17487569  0.07406628  0.85912990  1
  O2-  O435  1  0.16882911  0.33124185  0.18449350  1
  O2-  O436  1  0.17029814  0.33171081  0.51405503  1
  O2-  O437  1  0.18935400  0.38196123  0.81923519  1
  O2-  O438  1  0.19719570  0.61266298  0.19256289  1
  O2-  O439  1  0.15692843  0.56883726  0.51569078  1
  O2-  O440  1  0.17649135  0.61970637  0.85619700  1
  O2-  O441  1  0.17092913  0.83922213  0.19327717  1
  O2-  O442  1  0.18728467  0.84920328  0.52672357  1
  O2-  O443  1  0.19152640  0.84624665  0.85858306  1
  O2-  O444  1  0.40652901  0.08703737  0.19397577  1
  O2-  O445  1  0.42760169  0.08818077  0.51659681  1
  O2-  O446  1  0.43354093  0.10137762  0.86541460  1
  O2-  O447  1  0.42852500  0.34878097  0.19112654  1
  O2-  O448  1  0.42300516  0.33806664  0.51087384  1
  O2-  O449  1  0.41924309  0.33320528  0.85150617  1
  O2-  O450  1  0.40719177  0.59280044  0.18939051  1
  O2-  O451  1  0.40764221  0.57347103  0.52151304  1
  O2-  O452  1  0.41794164  0.59063293  0.86192999  1
  O2-  O453  1  0.43621836  0.86535652  0.18880784  1
  O2-  O454  1  0.42136255  0.82355869  0.50373166  1
  O2-  O455  1  0.43181045  0.84866791  0.84870418  1
  O2-  O456  1  0.64707948  0.09518813  0.18132103  1
  O2-  O457  1  0.66469705  0.06105546  0.51610381  1
  O2-  O458  1  0.66569918  0.11045357  0.86147490  1
  O2-  O459  1  0.66604726  0.34182225  0.13131161  1
  O2-  O460  1  0.67270319  0.36175052  0.51689182  1
  O2-  O461  1  0.65525598  0.32088666  0.86125514  1
  O2-  O462  1  0.69437767  0.64852855  0.19149986  1
  O2-  O463  1  0.69061545  0.59843998  0.52174923  1
  O2-  O464  1  0.66844142  0.56535474  0.85523620  1
  O2-  O465  1  0.61366058  0.79561980  0.17658172  1
  O2-  O466  1  0.66854498  0.81890403  0.50462425  1
  O2-  O467  1  0.67620974  0.82992856  0.85697658  1
  O2-  O468  1  0.91537075  0.08019030  0.18797861  1
  O2-  O469  1  0.92809545  0.08170062  0.52787830  1
  O2-  O470  1  0.90688252  0.06910766  0.85978499  1
  O2-  O471  1  0.90233817  0.31131833  0.18109712  1
  O2-  O472  1  0.91555875  0.33768558  0.51066997  1
  O2-  O473  1  0.88770461  0.30095060  0.85530805  1
  O2-  O474  1  0.93827742  0.58376356  0.17875246  1
  O2-  O475  1  0.84694661  0.55240104  0.54760410  1
  O2-  O476  1  0.91055598  0.56256414  0.85631787  1
  O2-  O477  1  0.91929955  0.82755861  0.19511247  1
  O2-  O478  1  0.95814315  0.90406395  0.54864770  1
  O2-  O479  1  0.92375681  0.82045514  0.85743899  1
  O2-  O480  1  0.19012266  0.08431756  0.30678985  1
  O2-  O481  1  0.14328083  0.07329024  0.65660365  1
  O2-  O482  1  0.16158729  0.07035843  0.97822612  1
  O2-  O483  1  0.16691319  0.33215777  0.30871592  1
  O2-  O484  1  0.16068538  0.33751747  0.70604448  1
  O2-  O485  1  0.16012273  0.29548698  1.02216179  1
  O2-  O486  1  0.16739769  0.59149962  0.31015949  1
  O2-  O487  1  0.16554451  0.57845956  0.64249047  1
  O2-  O488  1  0.17457676  0.59623924  0.97980462  1
  O2-  O489  1  0.16457231  0.83652130  0.31619429  1
  O2-  O490  1  0.16966742  0.83844691  0.65295269  1
  O2-  O491  1  0.17598929  0.83796418  0.98255220  1
  O2-  O492  1  0.42145832  0.09189372  0.31462828  1
  O2-  O493  1  0.41335776  0.09298657  0.64024980  1
  O2-  O494  1  0.43694103  0.09983254  0.98580841  1
  O2-  O495  1  0.41769491  0.34625892  0.30777134  1
  O2-  O496  1  0.41042190  0.32925654  0.63358952  1
  O2-  O497  1  0.41630105  0.33904820  0.97321198  1
  O2-  O498  1  0.41114042  0.58149466  0.30895506  1
  O2-  O499  1  0.40686313  0.56414527  0.64436889  1
  O2-  O500  1  0.41397102  0.58745127  0.98336937  1
  O2-  O501  1  0.42305665  0.85709711  0.30796566  1
  O2-  O502  1  0.42055757  0.79745852  0.62622716  1
  O2-  O503  1  0.42295006  0.84644647  0.97443454  1
  O2-  O504  1  0.63746390  0.06762347  0.30686217  1
  O2-  O505  1  0.64492715  0.05628493  0.64057264  1
  O2-  O506  1  0.67333017  0.13651204  0.97561879  1
  O2-  O507  1  0.66451374  0.33669578  0.30715553  1
  O2-  O508  1  0.68435348  0.36162564  0.63002933  1
  O2-  O509  1  0.64745071  0.33074879  0.99427400  1
  O2-  O510  1  0.66352051  0.58817952  0.30171712  1
  O2-  O511  1  0.67745387  0.57764890  0.64055548  1
  O2-  O512  1  0.67490592  0.57893722  0.97484593  1
  O2-  O513  1  0.64866575  0.82820907  0.29664682  1
  O2-  O514  1  0.66907489  0.82203900  0.62407305  1
  O2-  O515  1  0.67573741  0.81651979  0.98407997  1
  O2-  O516  1  0.92944808  0.07996344  0.31023997  1
  O2-  O517  1  0.91391777  0.07487604  0.65198852  1
  O2-  O518  1  0.91370071  0.07059147  0.98025928  1
  O2-  O519  1  0.91941850  0.32386066  0.31150307  1
  O2-  O520  1  0.90769720  0.34921467  0.63895493  1
  O2-  O521  1  0.90619672  0.32157069  0.98535460  1
  O2-  O522  1  0.93444758  0.59846105  0.32319400  1
  O2-  O523  1  0.93116459  0.59160913  0.65564888  1
  O2-  O524  1  0.91777460  0.57596545  0.97966334  1
  O2-  O525  1  0.90584515  0.83253519  0.31927393  1
  O2-  O526  1  0.91226359  0.82833658  0.65656789  1
  O2-  O527  1  0.92273600  0.82507870  0.98052385  1
  O2-  O528  1  0.06719857  0.12014129  0.01758265  1
  O2-  O529  1  0.09173757  0.15984090  0.35240324  1
  O2-  O530  1  0.07133038  0.16307389  0.70134912  1
  O2-  O531  1  0.08280060  0.43176693  0.00228325  1
  O2-  O532  1  0.09072793  0.42758245  0.34730896  1
  O2-  O533  1  0.07259873  0.41706759  0.68607798  1
  O2-  O534  1  0.08604839  0.66968136  0.01845560  1
  O2-  O535  1  0.08921607  0.66865918  0.34630878  1
  O2-  O536  1  0.09519749  0.67334266  0.68950809  1
  O2-  O537  1  0.08796361  0.91331354  0.02233961  1
  O2-  O538  1  0.06831896  0.91449035  0.36944981  1
  O2-  O539  1  0.07685793  0.90888056  0.69888799  1
  O2-  O540  1  0.33614850  0.17418087  0.01709634  1
  O2-  O541  1  0.34760306  0.18427585  0.34434316  1
  O2-  O542  1  0.30471469  0.15975121  0.62999840  1
  O2-  O543  1  0.34166617  0.42026805  0.02474884  1
  O2-  O544  1  0.33091681  0.41569364  0.35053817  1
  O2-  O545  1  0.33852439  0.41093159  0.69040871  1
  O2-  O546  1  0.34109039  0.68058161  0.02333468  1
  O2-  O547  1  0.31871970  0.65485137  0.35160579  1
  O2-  O548  1  0.32518326  0.64586764  0.68841461  1
  O2-  O549  1  0.34156911  0.92600618  0.02462425  1
  O2-  O550  1  0.33722371  0.92636653  0.35276970  1
  O2-  O551  1  0.32958473  0.94087966  0.70198655  1
  O2-  O552  1  0.52561726  0.15309057  0.00919072  1
  O2-  O553  1  0.58755233  0.17569616  0.35647825  1
  O2-  O554  1  0.54758696  0.11679753  0.71125594  1
  O2-  O555  1  0.57537460  0.42206823  0.01976835  1
  O2-  O556  1  0.58041921  0.42354460  0.34564152  1
  O2-  O557  1  0.57347412  0.40666198  0.67934682  1
  O2-  O558  1  0.57903237  0.64668654  0.01775161  1
  O2-  O559  1  0.57504156  0.65952183  0.33982802  1
  O2-  O560  1  0.53709493  0.71021434  0.70747166  1
  O2-  O561  1  0.59872894  0.96666150  0.00734243  1
  O2-  O562  1  0.57136670  0.91441628  0.34449168  1
  O2-  O563  1  0.57770667  0.88831907  0.66976760  1
  O2-  O564  1  0.83497395  0.15807382  0.02494475  1
  O2-  O565  1  0.86299136  0.16438386  0.35463564  1
  O2-  O566  1  0.81288988  0.12813467  0.68900388  1
  O2-  O567  1  0.82874861  0.41164450  0.01751825  1
  O2-  O568  1  0.79591026  0.45551915  0.36907880  1
  O2-  O569  1  0.83930037  0.42973217  0.69132165  1
  O2-  O570  1  0.83458024  0.65855473  0.02010979  1
  O2-  O571  1  0.82420919  0.66043959  0.35190984  1
  O2-  O572  1  0.84362999  0.66943763  0.69210633  1
  O2-  O573  1  0.83649133  0.90275774  0.02137626  1
  O2-  O574  1  0.81540074  0.93390140  0.35353824  1
  O2-  O575  1  0.82748772  0.91769939  0.69355463  1
