# generated using pymatgen
data_H2O
_symmetry_space_group_name_H-M   'P 1'
_cell_length_a   17.98882175
_cell_length_b   17.98696606
_cell_length_c   21.99765947
_cell_angle_alpha   89.99958995
_cell_angle_beta   89.98571645
_cell_angle_gamma   120.00840958
_symmetry_Int_Tables_number   1
_chemical_formula_structural   H2O
_chemical_formula_sum   'H384 O192'
_cell_volume   6163.54985194
_cell_formula_units_Z   192
loop_
 _symmetry_equiv_pos_site_id
 _symmetry_equiv_pos_as_xyz
  1  'x, y, z'
loop_
 _atom_type_symbol
 _atom_type_oxidation_number
  H+  1.0
  O2-  -2.0
loop_
 _atom_site_type_symbol
 _atom_site_label
 _atom_site_symmetry_multiplicity
 _atom_site_fract_x
 _atom_site_fract_y
 _atom_site_fract_z
 _atom_site_occupancy
  H+  H0  1  0.75611338  0.40537826  0.98485564  1
  H+  H1  1  0.13586272  0.76023837  0.17868811  1
  H+  H2  1  0.38234811  0.27320001  -0.01740172  1
  H+  H3  1  1.00675768  0.12376667  0.15911569  1
  H+  H4  1  0.10977806  0.71171594  0.34300065  1
  H+  H5  1  0.63861108  0.27780324  0.33444390  1
  H+  H6  1  0.72242966  0.10902102  0.67960787  1
  H+  H7  1  0.12326647  0.26265646  0.17490264  1
  H+  H8  1  0.79304891  0.38269065  0.16442509  1
  H+  H9  1  0.15765813  0.53261612  0.50421693  1
  H+  H10  1  0.37262125  0.89043844  0.34591838  1
  H+  H11  1  0.37693503  0.27793276  0.31964373  1
  H+  H12  1  0.37296214  0.90495519  0.86760410  1
  H+  H13  1  0.13344250  0.61708399  -0.01991828  1
  H+  H14  1  0.17067091  0.57135593  0.60351217  1
  H+  H15  1  0.88043645  0.03002612  0.33297899  1
  H+  H16  1  0.38788279  0.64780418  0.81906808  1
  H+  H17  1  0.22008816  0.61408479  0.98591002  1
  H+  H18  1  0.16882925  0.91423245  0.66077644  1
  H+  H19  1  0.27615186  0.64644662  0.49449057  1
  H+  H20  1  0.38830501  0.10583194  0.66930876  1
  H+  H21  1  0.88630561  0.77334964  0.14180179  1
  H+  H22  1  0.12997814  0.28959029  0.57581011  1
  H+  H23  1  0.59502456  0.35715767  0.98223093  1
  H+  H24  1  0.35497566  0.12939921  0.14854655  1
  H+  H25  1  0.86416687  0.47255211  0.50185874  1
  H+  H26  1  0.87971099  0.11931953  0.50381139  1
  H+  H27  1  0.65264831  0.60976263  0.51301643  1
  H+  H28  1  0.40866492  0.31957048  0.60578613  1
  H+  H29  1  0.83692986  0.16575942  0.06761408  1
  H+  H30  1  0.88263864  0.36777194  0.33293054  1
  H+  H31  1  0.63445167  0.86789728  0.67265576  1
  H+  H32  1  0.86787392  0.48249396  0.16779907  1
  H+  H33  1  0.13980961  0.50243575  0.65726974  1
  H+  H34  1  0.60245790  0.87410409  0.16097234  1
  H+  H35  1  0.56478694  0.83794885  0.83383155  1
  H+  H36  1  0.77291934  0.13761054  0.16137150  1
  H+  H37  1  0.01579131  0.12762891  0.00318160  1
  H+  H38  1  0.47104818  0.11461823  0.17011058  1
  H+  H39  1  0.88796371  0.61727599  0.98453282  1
  H+  H40  1  0.61253112  0.12856769  0.34241656  1
  H+  H41  1  0.48510628  0.60722019  0.83611638  1
  H+  H42  1  0.10521027  0.62351679  0.16166565  1
  H+  H43  1  0.64635449  0.77772308  -0.00466746  1
  H+  H44  1  0.85901381  0.23113111  0.33872064  1
  H+  H45  1  0.35830973  0.73430542  0.17013873  1
  H+  H46  1  0.75236802  0.27065924  0.22146385  1
  H+  H47  1  0.29106361  0.64754683  0.32379744  1
  H+  H48  1  0.06621173  0.93256950  0.45407131  1
  H+  H49  1  1.02890510  0.38625334  0.17235491  1
  H+  H50  1  0.74309843  0.55988072  0.46788351  1
  H+  H51  1  0.61430092  0.88611851  0.50295022  1
  H+  H52  1  0.27078769  0.88406868  0.84309123  1
  H+  H53  1  0.36303371  0.13091862  0.32874076  1
  H+  H54  1  0.86234605  0.89646198  0.50812210  1
  H+  H55  1  0.77750202  0.89498463  0.00639917  1
  H+  H56  1  0.85792293  0.88475388  0.14804776  1
  H+  H57  1  0.27435746  0.62963777  0.67263415  1
  H+  H58  1  0.14105714  0.27694794  0.33203602  1
  H+  H59  1  0.39815137  1.02920418  0.49839738  1
  H+  H60  1  0.18773050  0.58442131  0.36488012  1
  H+  H61  1  0.07918551  0.40326144  0.08182942  1
  H+  H62  1  0.22710473  0.87503862  0.50784627  1
  H+  H63  1  0.62972635  0.41957600  0.34153077  1
  H+  H64  1  0.12819022  0.25652068  0.50956673  1
  H+  H65  1  0.87886761  0.36374806  0.84376176  1
  H+  H66  1  0.35014284  0.21644700  0.14667397  1
  H+  H67  1  0.87426100  1.02670022  0.51225650  1
  H+  H68  1  0.91301826  0.37650629  -0.00199487  1
  H+  H69  1  0.11361939  -0.03479555  0.18288993  1
  H+  H70  1  0.73012747  0.11414525  0.32598445  1
  H+  H71  1  0.47138052  0.84969438  0.17363894  1
  H+  H72  1  0.63857009  0.54962549  0.33127753  1
  H+  H73  1  0.38290007  0.77381669  0.65624468  1
  H+  H74  1  0.21651952  0.36502184  0.83154628  1
  H+  H75  1  0.56755076  0.89941105  0.10185320  1
  H+  H76  1  0.62608456  0.73510111  0.67874096  1
  H+  H77  1  0.62349762  1.01574870  0.68757453  1
  H+  H78  1  0.62432267  0.68219022  0.31033348  1
  H+  H79  1  0.73261542  0.36356383  0.50900196  1
  H+  H80  1  0.01153645  0.37429836  0.34043054  1
  H+  H81  1  0.64538020  0.61127895  0.66583999  1
  H+  H82  1  0.97329648  0.11509500  0.32711086  1
  H+  H83  1  0.62748388  0.11497038  0.68130526  1
  H+  H84  1  0.52453229  0.12978271  0.34024512  1
  H+  H85  1  0.11490263  0.72759612  0.49997114  1
  H+  H86  1  0.34711950  0.61821161  1.00601981  1
  H+  H87  1  0.11195761  0.98542690  -0.02375127  1
  H+  H88  1  0.86821839  0.99389742  0.67994309  1
  H+  H89  1  0.63218046  0.10542134  0.17883174  1
  H+  H90  1  0.23121214  0.31357057  0.68741274  1
  H+  H91  1  0.36064892  0.88495687  0.66655918  1
  H+  H92  1  0.76784689  0.88901334  0.82964418  1
  H+  H93  1  0.37788571  0.10787833  0.98434911  1
  H+  H94  1  0.79517682  0.60454746  0.41025694  1
  H+  H95  1  0.87020688  0.72720794  0.83343511  1
  H+  H96  1  0.06190609  0.89389496  0.36014395  1
  H+  H97  1  0.83448909  0.93256244  0.73904851  1
  H+  H98  1  0.64168337  0.36273831  0.50959139  1
  H+  H99  1  0.11055763  0.42288563  0.43217924  1
  H+  H100  1  0.60324043  0.73088645  0.14476287  1
  H+  H101  1  0.13615818  0.87111121  0.51069744  1
  H+  H102  1  0.27872332  0.87839762  0.34339470  1
  H+  H103  1  0.91719505  0.56989366  0.57826643  1
  H+  H104  1  0.85659401  0.97926797  0.83254515  1
  H+  H105  1  0.13792925  0.84903371  0.19012183  1
  H+  H106  1  0.89269622  0.27678731  0.99582037  1
  H+  H107  1  0.50076118  0.12584417  0.49893721  1
  H+  H108  1  0.38856913  0.02508888  0.16181290  1
  H+  H109  1  0.36904002  0.18619511  0.41428664  1
  H+  H110  1  1.01137853  0.38996802  0.82300821  1
  H+  H111  1  0.60033796  0.23462919  0.82299611  1
  H+  H112  1  0.91965276  0.83704339  0.08672050  1
  H+  H113  1  0.13522809  1.01956773  0.53373606  1
  H+  H114  1  0.89258134  0.79599589  0.52662186  1
  H+  H115  1  0.59787578  0.32080818  0.16155206  1
  H+  H116  1  0.62521324  0.85372750  0.99616361  1
  H+  H117  1  0.74279135  0.39422707  0.01738574  1
  H+  H118  1  0.13982492  0.39616075  0.49263067  1
  H+  H119  1  1.02134510  0.37607233  1.01698373  1
  H+  H120  1  0.72857775  0.87865294  0.66954800  1
  H+  H121  1  0.91032910  0.58556300  0.23919213  1
  H+  H122  1  0.96963890  0.61446682  0.17915873  1
  H+  H123  1  0.85182222  0.63416589  0.16469133  1
  H+  H124  1  0.27460299  0.88331622  1.00238681  1
  H+  H125  1  0.35787684  0.34815902  0.16187031  1
  H+  H126  1  0.11186232  0.14048088  0.34058290  1
  H+  H127  1  0.86273922  0.38207369  0.49908285  1
  H+  H128  1  0.35937620  0.39654502  0.33684713  1
  H+  H129  1  0.82546895  0.88889033  0.34523242  1
  H+  H130  1  0.36337600  0.49927899  -0.01822843  1
  H+  H131  1  0.66267202  0.23888466  0.18762698  1
  H+  H132  1  0.47929701  0.11028884  0.66846518  1
  H+  H133  1  0.36250839  0.63887781  0.16936747  1
  H+  H134  1  0.13748736  0.77416753  0.83434770  1
  H+  H135  1  0.37038726  0.89945202  0.49768775  1
  H+  H136  1  0.89864693  0.37229489  0.17427206  1
  H+  H137  1  0.38115761  0.36379367  0.51158963  1
  H+  H138  1  0.14606900  0.86902253  0.83341593  1
  H+  H139  1  0.11819174  0.49889476  0.33493845  1
  H+  H140  1  0.22749990  0.37019401  0.32940530  1
  H+  H141  1  0.45343325  0.58248804  0.99308542  1
  H+  H142  1  0.87566660  0.52606726  0.33450331  1
  H+  H143  1  0.87895625  0.86810200  0.67241038  1
  H+  H144  1  0.96042321  0.34710092  0.66298100  1
  H+  H145  1  0.37000245  0.89000411  -0.00952992  1
  H+  H146  1  0.37159265  -0.01769046  0.67234418  1
  H+  H147  1  0.61967965  0.12967210  -0.02490463  1
  H+  H148  1  -0.03487985  0.61237948  0.33386361  1
  H+  H149  1  1.02086833  0.63970295  1.00425457  1
  H+  H150  1  0.14608973  0.11166014  0.54582230  1
  H+  H151  1  0.62230309  0.62836009  0.82714465  1
  H+  H152  1  0.87886335  0.64125491  0.83181293  1
  H+  H153  1  0.07815003  0.33905891  0.67161406  1
  H+  H154  1  0.12230512  0.02676846  0.33683075  1
  H+  H155  1  0.40411772  0.54328569  0.66808444  1
  H+  H156  1  0.39069587  0.28036694  0.50602708  1
  H+  H157  1  0.88815742  0.86800170  0.85068273  1
  H+  H158  1  0.14201234  0.61405067  0.51121449  1
  H+  H159  1  0.63109481  0.37146937  0.82833440  1
  H+  H160  1  0.86486401  0.88232501  1.01119989  1
  H+  H161  1  0.10025290  0.94237117  0.76497650  1
  H+  H162  1  0.22985091  0.11753216  0.16644948  1
  H+  H163  1  0.35165312  0.46999495  0.49791822  1
  H+  H164  1  0.00014016  0.11694487  0.49480402  1
  H+  H165  1  0.34582188  0.37165592  -0.00813058  1
  H+  H166  1  0.97216152  0.11694506  0.83719513  1
  H+  H167  1  0.98351462  0.90615697  0.35285062  1
  H+  H168  1  0.82983405  0.16889042  0.77065881  1
  H+  H169  1  0.90793215  0.50103585  0.00666053  1
  H+  H170  1  0.72564455  0.61563945  0.98410790  1
  H+  H171  1  0.63750097  1.01773122  0.17301563  1
  H+  H172  1  0.03168040  0.89915826  0.82089509  1
  H+  H173  1  0.64236235  0.52034648  0.66776491  1
  H+  H174  1  0.38034616  0.01888197  0.98669207  1
  H+  H175  1  0.88360592  0.27338379  0.50846716  1
  H+  H176  1  0.84499214  0.22149310  0.67593114  1
  H+  H177  1  0.27382651  0.13086196  0.33821835  1
  H+  H178  1  0.11527272  0.37865754  0.17048836  1
  H+  H179  1  0.20920137  0.35033719  0.99854935  1
  H+  H180  1  0.28288045  0.40272945  0.65589919  1
  H+  H181  1  0.86382528  0.69127126  0.50120504  1
  H+  H182  1  0.12751191  0.36490428  0.82860223  1
  H+  H183  1  0.49710204  0.14270375  0.03221489  1
  H+  H184  1  0.07600075  0.65517123  0.10269523  1
  H+  H185  1  0.86288816  0.14337357  0.33713341  1
  H+  H186  1  0.36284060  0.92620268  0.08124180  1
  H+  H187  1  0.76860794  0.38099790  0.67821759  1
  H+  H188  1  0.13792112  0.86673864  -0.01666134  1
  H+  H189  1  0.14334444  0.51416791  0.18338946  1
  H+  H190  1  0.39436158  0.62583077  0.66193385  1
  H+  H191  1  0.57649988  0.40591929  0.14889329  1
  H+  H192  1  0.97848921  0.15714898  0.64900329  1
  H+  H193  1  0.58016350  0.08609489  0.97299632  1
  H+  H194  1  0.26350463  0.89480457  0.66307966  1
  H+  H195  1  0.78181522  0.63853233  0.68008570  1
  H+  H196  1  0.37479153  0.60597208  0.50705459  1
  H+  H197  1  0.37121362  0.33835236  0.66493271  1
  H+  H198  1  0.10331390  0.37503066  0.33532177  1
  H+  H199  1  0.27074346  0.13972888  -0.00720759  1
  H+  H200  1  0.67705974  0.57586914  0.57300696  1
  H+  H201  1  0.65715324  0.98284993  0.34057465  1
  H+  H202  1  0.53697277  0.64847547  0.67436249  1
  H+  H203  1  0.13127103  0.17750315  0.66558659  1
  H+  H204  1  0.76433246  0.63855445  0.16191746  1
  H+  H205  1  0.86226705  0.23135606  0.82909053  1
  H+  H206  1  0.96177180  0.86423937  0.99866948  1
  H+  H207  1  0.53559790  0.85999884  0.32590615  1
  H+  H208  1  0.88633646  0.01818392  0.99453524  1
  H+  H209  1  0.13534421  0.12679496  0.83101159  1
  H+  H210  1  0.82641200  0.41071853  0.77428717  1
  H+  H211  1  0.52305652  0.38606275  0.50294265  1
  H+  H212  1  0.11801032  0.25910538  0.00415742  1
  H+  H213  1  0.63462287  0.35884174  0.66441766  1
  H+  H214  1  0.63159954  0.68521107  0.43918184  1
  H+  H215  1  0.89862498  0.85394862  0.27207215  1
  H+  H216  1  0.27147313  0.14285046  0.82596230  1
  H+  H217  1  0.85193017  0.13596117  0.67342524  1
  H+  H218  1  0.64373420  0.02804815  0.50869801  1
  H+  H219  1  0.37584973  0.64404011  0.33315763  1
  H+  H220  1  0.36310025  -0.01371810  0.84104631  1
  H+  H221  1  0.26311465  0.63202768  0.17554542  1
  H+  H222  1  0.14596446  0.84281295  0.32477602  1
  H+  H223  1  0.51127522  0.88157640  0.00024674  1
  H+  H224  1  0.39692894  0.78179168  0.32788536  1
  H+  H225  1  0.55981327  0.67008426  -0.03688901  1
  H+  H226  1  0.72379883  0.86661522  0.51860133  1
  H+  H227  1  0.46990018  0.62753520  0.16517971  1
  H+  H228  1  0.77204318  0.13733039  0.49299043  1
  H+  H229  1  0.97817133  0.60251766  0.52021431  1
  H+  H230  1  0.63408152  0.76372925  0.84108083  1
  H+  H231  1  0.77090388  0.65327801  0.32543998  1
  H+  H232  1  0.74370259  0.08701066  0.99048432  1
  H+  H233  1  0.58370014  0.26708387  0.99595156  1
  H+  H234  1  0.22110374  0.54342153  0.85342179  1
  H+  H235  1  0.61648812  0.22549093  0.67482676  1
  H+  H236  1  0.90023189  0.54200175  0.84081937  1
  H+  H237  1  0.77533819  0.39068251  0.34954274  1
  H+  H238  1  0.35793785  0.13584580  0.82901404  1
  H+  H239  1  0.61641030  0.53571076  0.16889827  1
  H+  H240  1  0.60502252  0.14688442  0.82664460  1
  H+  H241  1  0.62768629  0.62744930  0.16813272  1
  H+  H242  1  0.85383244  0.73071065  0.00717031  1
  H+  H243  1  0.63188673  0.73103519  0.50025165  1
  H+  H244  1  0.38899373  0.78299280  0.50381201  1
  H+  H245  1  0.38569739  0.01756816  0.32291010  1
  H+  H246  1  0.40972291  0.12871575  0.48863578  1
  H+  H247  1  0.72291355  0.12706918  0.83701991  1
  H+  H248  1  0.37497698  0.49555930  0.14607891  1
  H+  H249  1  0.73384596  0.60914727  0.83618642  1
  H+  H250  1  0.38950484  0.27831423  0.83419078  1
  H+  H251  1  0.85831466  0.47046090  0.68062330  1
  H+  H252  1  0.63059783  0.35923136  0.17949755  1
  H+  H253  1  0.09661707  0.12484183  0.15564871  1
  H+  H254  1  0.10492955  0.61190607  0.68177929  1
  H+  H255  1  0.23592916  0.09306365  0.68243835  1
  H+  H256  1  0.10081792  0.47829861  0.81482233  1
  H+  H257  1  0.86346776  0.71239688  0.47142456  1
  H+  H258  1  0.39696115  0.53464570  0.32360653  1
  H+  H259  1  0.66952881  0.58187775  -0.07926439  1
  H+  H260  1  0.31284143  0.66909262  0.82333533  1
  H+  H261  1  0.53963211  0.40124415  0.82011537  1
  H+  H262  1  0.10810040  0.64607284  0.83348840  1
  H+  H263  1  0.64436643  0.11641238  0.50936238  1
  H+  H264  1  0.46539511  0.78971305  0.81416564  1
  H+  H265  1  0.39064604  0.86135259  0.16630568  1
  H+  H266  1  1.01275423  0.64178883  0.83358558  1
  H+  H267  1  0.88204588  0.77910418  0.67003591  1
  H+  H268  1  0.35290516  0.21141653  0.67474768  1
  H+  H269  1  0.44610384  0.35444397  0.16295917  1
  H+  H270  1  0.36263771  0.47636021  0.81798484  1
  H+  H271  1  0.88363460  0.11750243  0.84131520  1
  H+  H272  1  0.13523083  0.11924078  0.98833023  1
  H+  H273  1  0.52913570  0.38465265  0.67959262  1
  H+  H274  1  0.72236086  0.85485582  0.17121831  1
  H+  H275  1  0.51400861  0.88570038  0.67963091  1
  H+  H276  1  0.50505383  0.40056448  -0.00247753  1
  H+  H277  1  0.86857642  0.78072330  0.32338729  1
  H+  H278  1  0.09231418  0.61648993  0.34780150  1
  H+  H279  1  0.45265502  0.97367347  0.11384301  1
  H+  H280  1  0.61457206  0.47033848  0.50374979  1
  H+  H281  1  0.76491444  0.38347246  0.83167803  1
  H+  H282  1  0.47786553  0.88396739  0.87883052  1
  H+  H283  1  1.01811594  0.89821232  0.51731521  1
  H+  H284  1  0.86154648  0.13833990  0.16290468  1
  H+  H285  1  0.88961359  0.60909067  0.67093157  1
  H+  H286  1  0.48414250  0.62775928  0.30747865  1
  H+  H287  1  0.87247076  0.13789135  0.00967859  1
  H+  H288  1  0.71995444  0.01125166  0.94478699  1
  H+  H289  1  0.16078775  0.32232092  0.23417038  1
  H+  H290  1  0.60030231  0.75818053  0.32075219  1
  H+  H291  1  0.45855108  0.24825295  0.44419709  1
  H+  H292  1  0.08142338  0.66508709  0.44231901  1
  H+  H293  1  0.41062546  0.33432754  0.92286840  1
  H+  H294  1  0.41411010  0.08429932  0.89888243  1
  H+  H295  1  0.26797980  0.37695040  0.49794399  1
  H+  H296  1  0.91485684  0.84938118  0.58982379  1
  H+  H297  1  0.59263063  0.42011326  0.74044691  1
  H+  H298  1  0.92659637  0.59645108  0.92335564  1
  H+  H299  1  0.33470200  0.42679328  0.39855922  1
  H+  H300  1  0.66606863  0.32989823  0.60444723  1
  H+  H301  1  0.42172014  0.84082473  0.26954966  1
  H+  H302  1  0.90460340  0.32637236  0.56966517  1
  H+  H303  1  0.39010865  0.32923112  0.25905074  1
  H+  H304  1  0.16330186  0.05630784  0.62412946  1
  H+  H305  1  0.64269927  0.51466073  0.82998124  1
  H+  H306  1  0.59249856  0.66343146  0.76987908  1
  H+  H307  1  0.65812566  0.59702235  0.26692818  1
  H+  H308  1  0.05605295  0.90866406  -0.06741120  1
  H+  H309  1  0.88136249  0.44531572  0.06862355  1
  H+  H310  1  0.56267957  0.14821571  0.21539919  1
  H+  H311  1  0.65303782  0.80067150  0.22434136  1
  H+  H312  1  0.18561982  0.59094225  0.89412600  1
  H+  H313  1  0.07030239  0.39557987  0.72617379  1
  H+  H314  1  0.55296693  0.43589227  0.08747343  1
  H+  H315  1  0.16895912  0.82923461  0.93191455  1
  H+  H316  1  0.41780547  0.83743098  0.59859922  1
  H+  H317  1  0.97376124  0.59838217  0.67176136  1
  H+  H318  1  0.55657477  0.17531318  0.09160089  1
  H+  H319  1  0.43678358  0.46749415  0.11893694  1
  H+  H320  1  0.83169726  0.16907314  0.43252382  1
  H+  H321  1  0.58133390  0.17092409  0.73822123  1
  H+  H322  1  0.46925312  0.11311630  0.83591309  1
  H+  H323  1  0.91539458  0.07982585  0.93408708  1
  H+  H324  1  0.63952335  0.32533813  0.88956929  1
  H+  H325  1  0.17973716  0.86156607  0.60157343  1
  H+  H326  1  0.33949125  0.92583526  0.43721107  1
  H+  H327  1  0.82044163  0.65874523  0.05909258  1
  H+  H328  1  0.86035893  0.65116357  0.32493127  1
  H+  H329  1  0.55416546  0.89579064  0.74559525  1
  H+  H330  1  0.65760518  0.82705163  0.89848423  1
  H+  H331  1  0.60228996  0.91998358  0.43977862  1
  H+  H332  1  0.91886042  0.33673232  0.90004729  1
  H+  H333  1  0.41212843  0.07426868  0.26134980  1
  H+  H334  1  0.16775773  0.10089202  0.92444752  1
  H+  H335  1  0.19858667  0.16258284  0.21150507  1
  H+  H336  1  0.61610686  0.63037681  -0.01234581  1
  H+  H337  1  0.33555025  0.67352643  0.43442347  1
  H+  H338  1  0.60957969  0.95557145  0.00753050  1
  H+  H339  1  0.90818954  0.83557570  0.91217702  1
  H+  H340  1  0.02662164  0.88151474  0.16863129  1
  H+  H341  1  0.91195816  0.33801470  0.27145238  1
  H+  H342  1  0.66043062  0.08443536  0.89193558  1
  H+  H343  1  0.16086441  0.07328139  0.27302943  1
  H+  H344  1  0.66853895  0.07380093  0.26753397  1
  H+  H345  1  0.59954175  0.48860025  -0.00249290  1
  H+  H346  1  0.17466225  0.81307141  0.26526173  1
  H+  H347  1  0.40822405  0.57899337  0.56498183  1
  H+  H348  1  0.07469282  0.16062260  0.40010659  1
  H+  H349  1  0.16812984  0.57429011  0.24318203  1
  H+  H350  1  0.38591920  0.36514467  0.83280845  1
  H+  H351  1  0.32933314  0.41248679  0.05176601  1
  H+  H352  1  0.87410460  0.01560934  0.17313297  1
  H+  H353  1  0.62033807  0.23527393  0.49703289  1
  H+  H354  1  0.32129269  0.40787143  0.76293127  1
  H+  H355  1  0.07141072  0.15498319  0.06489129  1
  H+  H356  1  0.32019705  0.64957772  0.06490899  1
  H+  H357  1  0.91076201  0.09725546  0.60033653  1
  H+  H358  1  0.82663775  0.91996464  0.44687037  1
  H+  H359  1  0.83637184  0.42059543  0.40820700  1
  H+  H360  1  0.34298815  0.67371647  0.72796737  1
  H+  H361  1  0.05115463  0.07182292  0.47246650  1
  H+  H362  1  0.87489590  0.35522960  0.66733586  1
  H+  H363  1  0.11056460  0.72549914  0.01123490  1
  H+  H364  1  0.90702019  0.07622031  0.23298093  1
  H+  H365  1  0.88977968  0.27797757  0.17549484  1
  H+  H366  1  0.11297931  0.36110037  1.01764086  1
  H+  H367  1  0.66266459  0.83475893  0.57676653  1
  H+  H368  1  0.75434357  0.91764764  0.36021425  1
  H+  H369  1  0.82343899  0.91899037  0.09682188  1
  H+  H370  1  0.10792649  0.23587337  0.82375935  1
  H+  H371  1  0.33143087  0.16075412  0.73929980  1
  H+  H372  1  0.07901988  0.65254991  0.73696637  1
  H+  H373  1  0.68466989  0.32645463  0.27499400  1
  H+  H374  1  0.59015102  0.17203602  0.43647950  1
  H+  H375  1  0.56897751  0.66758418  0.08649422  1
  H+  H376  1  0.32954329  0.16395100  0.05186574  1
  H+  H377  1  0.41438591  0.59109792  0.22845243  1
  H+  H378  1  0.60236019  0.44434351  0.40148931  1
  H+  H379  1  0.41646910  0.57574924  0.89136293  1
  H+  H380  1  0.08306930  0.18157965  0.76347083  1
  H+  H381  1  0.84247361  0.67179257  0.73891818  1
  H+  H382  1  0.47983306  0.87010490  0.50491468  1
  H+  H383  1  0.13740993  0.03796430  0.83443170  1
  O2-  O384  1  0.06662145  0.15522681  0.14184336  1
  O2-  O385  1  0.05851206  0.12894242  0.47781574  1
  O2-  O386  1  0.07810922  0.17379506  0.80799663  1
  O2-  O387  1  0.08946834  0.41557243  0.15695795  1
  O2-  O388  1  0.14646683  0.44560092  0.46890748  1
  O2-  O389  1  0.06970846  0.41723726  0.80309336  1
  O2-  O390  1  0.07609662  0.65484904  0.14855008  1
  O2-  O391  1  0.08839328  0.66675955  0.48726502  1
  O2-  O392  1  0.08060138  0.67625814  0.81637704  1
  O2-  O393  1  0.07969319  0.90467785  0.19368011  1
  O2-  O394  1  0.07713721  0.92754879  0.49745363  1
  O2-  O395  1  0.09336082  0.93188652  0.81052167  1
  O2-  O396  1  0.32139954  0.15564751  0.13184176  1
  O2-  O397  1  0.40034661  0.20370267  0.45506815  1
  O2-  O398  1  0.33260806  0.16960616  0.81158170  1
  O2-  O399  1  0.37568840  0.44790283  0.12359886  1
  O2-  O400  1  0.32682016  0.40922936  0.48144734  1
  O2-  O401  1  0.32822084  0.41407375  0.80758216  1
  O2-  O402  1  0.32548798  0.66806027  0.15780103  1
  O2-  O403  1  0.33731606  0.67806503  0.47911511  1
  O2-  O404  1  0.36941009  0.68878538  0.80385082  1
  O2-  O405  1  0.39153194  0.94029773  0.12363826  1
  O2-  O406  1  0.34215854  0.93241016  0.48263209  1
  O2-  O407  1  0.33736734  0.91952605  0.83790880  1
  O2-  O408  1  0.58210004  0.15358761  0.17335459  1
  O2-  O409  1  0.58674820  0.17271441  0.48192745  1
  O2-  O410  1  0.56991241  0.17141690  0.80952236  1
  O2-  O411  1  0.54605010  0.43509598  0.13434704  1
  O2-  O412  1  0.58234293  0.40984007  0.48722156  1
  O2-  O413  1  0.59886190  0.42827771  0.80481489  1
  O2-  O414  1  0.56599516  0.66937455  0.13120674  1
  O2-  O415  1  0.61682627  0.67454151  0.48199544  1
  O2-  O416  1  0.58984365  0.65918709  0.81534180  1
  O2-  O417  1  0.56880903  0.90143596  0.14756487  1
  O2-  O418  1  0.58745580  0.91758507  0.48327040  1
  O2-  O419  1  0.51712377  0.84738884  0.82001553  1
  O2-  O420  1  0.83429520  0.17144192  0.14774867  1
  O2-  O421  1  0.83372412  0.16770525  0.47771959  1
  O2-  O422  1  0.83171471  0.16955206  0.81600336  1
  O2-  O423  1  0.85070470  0.42559798  0.14862608  1
  O2-  O424  1  0.83181909  0.41270113  0.48372303  1
  O2-  O425  1  0.82683051  0.41166301  0.81964293  1
  O2-  O426  1  0.82359998  0.66410622  0.14559428  1
  O2-  O427  1  0.76519376  0.54858637  0.43019559  1
  O2-  O428  1  0.84274357  0.66877478  0.81616425  1
  O2-  O429  1  0.82246828  0.91300399  0.14319132  1
  O2-  O430  1  0.82778411  0.92196980  0.49208367  1
  O2-  O431  1  0.82896593  0.91912159  0.81652685  1
  O2-  O432  1  0.17812460  0.10669160  0.19230528  1
  O2-  O433  1  0.16793959  0.07392268  0.55823273  1
  O2-  O434  1  0.16786162  0.09934689  0.84787879  1
  O2-  O435  1  0.15738520  0.32288088  0.18903471  1
  O2-  O436  1  0.15407548  0.30922650  0.53365516  1
  O2-  O437  1  0.15534623  0.33280508  0.84362417  1
  O2-  O438  1  0.17376262  0.57615548  0.19838037  1
  O2-  O439  1  0.17838711  0.58961617  0.52486619  1
  O2-  O440  1  0.19978892  0.58348212  0.84948299  1
  O2-  O441  1  0.16976379  0.81787810  0.19794082  1
  O2-  O442  1  0.16803608  0.84224222  0.52454484  1
  O2-  O443  1  0.17369423  0.83683169  0.84910364  1
  O2-  O444  1  0.40809101  0.08226254  0.18097323  1
  O2-  O445  1  0.43275378  0.09377139  0.50940879  1
  O2-  O446  1  0.40867486  0.08060034  0.85259227  1
  O2-  O447  1  0.38572516  0.31605738  0.17655755  1
  O2-  O448  1  0.41195652  0.33452282  0.52878923  1
  O2-  O449  1  0.41840877  0.33833918  0.84967055  1
  O2-  O450  1  0.40993375  0.59607724  0.18274859  1
  O2-  O451  1  0.39531463  0.56721913  0.52137794  1
  O2-  O452  1  0.42220072  0.58083786  0.84622422  1
  O2-  O453  1  0.40917998  0.82374966  0.18788291  1
  O2-  O454  1  0.41916429  0.84347663  0.51972457  1
  O2-  O455  1  0.45014095  0.91004303  0.90395618  1
  O2-  O456  1  0.66895011  0.07693489  0.18922448  1
  O2-  O457  1  0.67746055  0.08883971  0.52181066  1
  O2-  O458  1  0.66147464  0.10000062  0.84906820  1
  O2-  O459  1  0.71646172  0.29290555  0.20624823  1
  O2-  O460  1  0.67043795  0.33015238  0.52358547  1
  O2-  O461  1  0.65344705  0.33129286  0.84531998  1
  O2-  O462  1  0.65362338  0.59457336  0.18527816  1
  O2-  O463  1  0.67254936  0.57033990  0.52786746  1
  O2-  O464  1  0.67215488  0.57801083  0.84904697  1
  O2-  O465  1  0.65937381  0.82175182  0.18233886  1
  O2-  O466  1  0.66226468  0.83326088  0.53132216  1
  O2-  O467  1  0.65376897  0.82458093  0.85324641  1
  O2-  O468  1  0.90665889  0.07669934  0.18754775  1
  O2-  O469  1  0.90957514  0.08910312  0.52255410  1
  O2-  O470  1  0.91328581  0.08572012  0.85523318  1
  O2-  O471  1  0.92200278  0.33704274  0.19328961  1
  O2-  O472  1  0.91032882  0.33259854  0.52484906  1
  O2-  O473  1  0.91364810  0.33532205  0.85480711  1
  O2-  O474  1  0.90899987  0.58594550  0.19349667  1
  O2-  O475  1  0.91778939  0.56806721  0.53303927  1
  O2-  O476  1  0.93035178  0.60192645  0.85488050  1
  O2-  O477  1  0.92115244  0.83614378  0.13202369  1
  O2-  O478  1  0.91992486  0.85530371  0.54143961  1
  O2-  O479  1  0.92160764  0.84259565  0.86775266  1
  O2-  O480  1  0.16401530  0.08242653  0.31755868  1
  O2-  O481  1  0.16848178  0.05618977  0.67197342  1
  O2-  O482  1  0.16794218  0.09326223  0.96969703  1
  O2-  O483  1  0.16724401  0.33539029  0.31379568  1
  O2-  O484  1  0.07836412  0.24693007  0.64543752  1
  O2-  O485  1  0.14533524  0.32225465  0.99338024  1
  O2-  O486  1  0.15311554  0.56493889  0.32785573  1
  O2-  O487  1  0.17144682  0.56500802  0.64865469  1
  O2-  O488  1  0.16665541  0.59270039  0.96142880  1
  O2-  O489  1  0.17668562  0.81323657  0.31326897  1
  O2-  O490  1  0.18987533  0.87333575  0.64610443  1
  O2-  O491  1  0.16834483  0.83382055  0.97693686  1
  O2-  O492  1  0.41632102  0.07756855  0.30673708  1
  O2-  O493  1  0.41886999  0.07644105  0.65424400  1
  O2-  O494  1  0.41141057  0.07977814  0.97186570  1
  O2-  O495  1  0.39341495  0.33535654  0.30371274  1
  O2-  O496  1  0.40633861  0.31329495  0.65114846  1
  O2-  O497  1  0.40623293  0.33420669  0.96901568  1
  O2-  O498  1  0.42030397  0.59205651  0.30286720  1
  O2-  O499  1  0.42994661  0.59922889  0.64847993  1
  O2-  O500  1  0.39915525  0.56241698  0.97109851  1
  O2-  O501  1  0.43011132  0.84307297  0.31435626  1
  O2-  O502  1  0.41437626  0.83579576  0.64412233  1
  O2-  O503  1  0.42515538  0.86041487  0.96077861  1
  O2-  O504  1  0.66880891  0.07398883  0.31330189  1
  O2-  O505  1  0.65616493  0.07703139  0.67140928  1
  O2-  O506  1  0.69448771  0.03922969  0.96773124  1
  O2-  O507  1  0.67207732  0.33625661  0.31736558  1
  O2-  O508  1  0.66329543  0.32600056  0.64974669  1
  O2-  O509  1  0.59793973  0.30949618  0.96281163  1
  O2-  O510  1  0.66421246  0.60841892  0.31138165  1
  O2-  O511  1  0.67589248  0.58104839  0.65226698  1
  O2-  O512  1  0.66514671  0.58612783  0.96708036  1
  O2-  O513  1  0.59029606  0.85786826  0.32429811  1
  O2-  O514  1  0.66763898  0.84216906  0.65563633  1
  O2-  O515  1  0.66540545  0.83547022  0.97878540  1
  O2-  O516  1  0.91290121  0.08659024  0.31195869  1
  O2-  O517  1  0.91839611  0.10604713  0.64533121  1
  O2-  O518  1  0.91723214  0.08024556  0.97953399  1
  O2-  O519  1  0.91006595  0.33440393  0.31683609  1
  O2-  O520  1  0.89851773  0.31876984  0.65116190  1
  O2-  O521  1  0.93133786  0.33564159  0.98007441  1
  O2-  O522  1  0.90642886  0.58501174  0.31596973  1
  O2-  O523  1  0.91199978  0.57108497  0.65740853  1
  O2-  O524  1  0.92477045  0.59400605  0.97102352  1
  O2-  O525  1  0.89017716  0.84555784  0.31590420  1
  O2-  O526  1  0.90921377  0.83968947  0.65488417  1
  O2-  O527  1  0.89876070  0.83176648  0.99957630  1
  O2-  O528  1  0.07662467  0.15925420  0.01952734  1
  O2-  O529  1  0.07972929  0.16884354  0.35513705  1
  O2-  O530  1  0.13255582  0.22643039  0.68616127  1
  O2-  O531  1  0.08062695  0.39986182  0.03609680  1
  O2-  O532  1  0.07364211  0.40481617  0.35288933  1
  O2-  O533  1  0.06940433  0.38890545  0.68110621  1
  O2-  O534  1  0.07890867  0.66473946  0.02463760  1
  O2-  O535  1  0.07058011  0.65461625  0.36177191  1
  O2-  O536  1  0.07322648  0.64164624  0.69244137  1
  O2-  O537  1  0.07880601  0.92085927  -0.02607622  1
  O2-  O538  1  0.04269927  0.93383958  0.37183115  1
  O2-  O539  1  0.13257095  0.96624282  0.69215416  1
  O2-  O540  1  0.33212254  0.16791319  0.00667610  1
  O2-  O541  1  0.33669920  0.16408403  0.34589558  1
  O2-  O542  1  0.32522525  0.15201138  0.69341573  1
  O2-  O543  1  0.31430286  0.40132168  0.00793930  1
  O2-  O544  1  0.33541375  0.43261428  0.35344317  1
  O2-  O545  1  0.28950120  0.36706995  0.68625994  1
  O2-  O546  1  0.31828871  0.64936184  0.02060631  1
  O2-  O547  1  0.34427284  0.67445839  0.34731566  1
  O2-  O548  1  0.33682900  0.66877023  0.68265493  1
  O2-  O549  1  0.33677788  0.91637317  0.01323826  1
  O2-  O550  1  0.33801591  0.91694306  0.35941136  1
  O2-  O551  1  0.33297482  0.91775667  0.68268819  1
  O2-  O552  1  0.53366677  0.19324176  0.05760732  1
  O2-  O553  1  0.58316221  0.15926288  0.35815205  1
  O2-  O554  1  0.58679170  0.16529703  0.69232553  1
  O2-  O555  1  0.56201117  0.43256967  0.01872819  1
  O2-  O556  1  0.60064099  0.44971222  0.35691807  1
  O2-  O557  1  0.59015819  0.41550743  0.69124936  1
  O2-  O558  1  0.57968525  0.65789721  0.00113116  1
  O2-  O559  1  0.59026315  0.70855114  0.29568313  1
  O2-  O560  1  0.59588064  0.67352173  0.69140429  1
  O2-  O561  1  0.56667963  0.89782202  0.02359293  1
  O2-  O562  1  0.65201531  0.92988413  0.36211140  1
  O2-  O563  1  0.56993926  0.91350471  0.70228776  1
  O2-  O564  1  0.83776644  0.16488404  0.02220815  1
  O2-  O565  1  0.82921696  0.16969557  0.35275411  1
  O2-  O566  1  0.81649934  0.15988685  0.69162412  1
  O2-  O567  1  0.90768192  0.45213773  0.02821891  1
  O2-  O568  1  0.83693867  0.42156072  0.36204874  1
  O2-  O569  1  0.82821711  0.40866672  0.69471872  1
  O2-  O570  1  0.82293282  0.66541225  0.01441634  1
  O2-  O571  1  0.83350446  0.68611596  0.33662964  1
  O2-  O572  1  0.84298693  0.67331610  0.69315035  1
  O2-  O573  1  0.83604321  0.92335134  0.02365581  1
  O2-  O574  1  0.81370661  0.92994497  0.36755426  1
  O2-  O575  1  0.83366404  0.93339907  0.69341486  1
