# generated using pymatgen
data_H2O
_symmetry_space_group_name_H-M   'P 1'
_cell_length_a   17.98700574
_cell_length_b   17.99036606
_cell_length_c   21.99853061
_cell_angle_alpha   89.99807091
_cell_angle_beta   90.00171278
_cell_angle_gamma   119.96664366
_symmetry_Int_Tables_number   1
_chemical_formula_structural   H2O
_chemical_formula_sum   'H384 O192'
_cell_volume   6166.93051782
_cell_formula_units_Z   192
loop_
 _symmetry_equiv_pos_site_id
 _symmetry_equiv_pos_as_xyz
  1  'x, y, z'
loop_
 _atom_type_symbol
 _atom_type_oxidation_number
  H+  1.0
  O2-  -2.0
loop_
 _atom_site_type_symbol
 _atom_site_label
 _atom_site_symmetry_multiplicity
 _atom_site_fract_x
 _atom_site_fract_y
 _atom_site_fract_z
 _atom_site_occupancy
  H+  H0  1  0.27966544  0.88862102  0.67232706  1
  H+  H1  1  0.60879092  0.38374000  0.83109549  1
  H+  H2  1  0.88813641  0.84507250  0.82149554  1
  H+  H3  1  0.56549431  0.41400679  0.11003851  1
  H+  H4  1  0.46087732  0.78578966  0.14368802  1
  H+  H5  1  0.11496860  0.14551201  1.00611832  1
  H+  H6  1  0.85179325  0.46446114  0.34298515  1
  H+  H7  1  0.47188155  0.37660583  0.99083638  1
  H+  H8  1  0.75739627  0.39028241  0.50198719  1
  H+  H9  1  0.97858229  0.60592198  0.98951104  1
  H+  H10  1  0.77963909  0.89325328  0.50077021  1
  H+  H11  1  0.13553034  1.13126859  0.33618516  1
  H+  H12  1  0.12900443  0.41896158  0.18488877  1
  H+  H13  1  0.89360757  0.86844130  0.49502837  1
  H+  H14  1  0.88109300  0.59848654  0.33269208  1
  H+  H15  1  0.93298320  0.83635520  0.32079248  1
  H+  H16  1  0.19713041  0.94565122  0.36019069  1
  H+  H17  1  0.86641546  0.47728251  0.00806029  1
  H+  H18  1  0.46701609  0.85475472  0.98663129  1
  H+  H19  1  -0.01370692  0.77721717  0.13433902  1
  H+  H20  1  0.63438711  0.51530110  0.17249534  1
  H+  H21  1  0.87309619  0.57709991  0.66567302  1
  H+  H22  1  0.38537056  0.60618156  0.34564755  1
  H+  H23  1  0.96197176  0.10723196  0.16055049  1
  H+  H24  1  0.36396980  0.47009874  0.34485128  1
  H+  H25  1  0.10552650  0.14915993  0.16226342  1
  H+  H26  1  0.11368394  0.23516850  0.00429860  1
  H+  H27  1  0.72332482  0.86134397  0.66075340  1
  H+  H28  1  0.12768999  0.50912371  0.50960558  1
  H+  H29  1  -0.04993753  0.86507192  -0.02409368  1
  H+  H30  1  0.13532696  0.75124976  0.82063698  1
  H+  H31  1  0.12917671  0.98471515  0.66966428  1
  H+  H32  1  0.61099953  0.22223742  0.49519727  1
  H+  H33  1  0.08938722  0.16935287  0.73403410  1
  H+  H34  1  0.57602150  0.09968273  0.03756681  1
  H+  H35  1  0.82668942  0.41283351  0.06452084  1
  H+  H36  1  0.94545147  0.56829697  0.85162217  1
  H+  H37  1  0.70645402  0.84833694  0.33536456  1
  H+  H38  1  0.38044684  0.25198944  0.18134536  1
  H+  H39  1  0.45746119  0.11584985  1.00174749  1
  H+  H40  1  0.39056747  0.10792101  0.64877731  1
  H+  H41  1  0.83447247  0.86887126  0.35108969  1
  H+  H42  1  0.65055691  0.07436020  0.93342193  1
  H+  H43  1  0.02729406  0.13771003  0.49851692  1
  H+  H44  1  0.15212140  0.85431781  0.50085652  1
  H+  H45  1  0.27856178  0.90125065  0.32385122  1
  H+  H46  1  0.88651460  0.74608649  0.66543254  1
  H+  H47  1  0.60044374  0.95012797  0.33628813  1
  H+  H48  1  0.35845206  0.71688793  -0.00140015  1
  H+  H49  1  0.62389332  0.50740782  0.34321648  1
  H+  H50  1  0.69782362  0.84618868  -0.04636951  1
  H+  H51  1  0.84687631  0.48476589  0.84623747  1
  H+  H52  1  0.72205682  0.10542936  0.50721985  1
  H+  H53  1  0.36784894  0.37139967  0.82620841  1
  H+  H54  1  0.27029714  0.15408751  0.00942921  1
  H+  H55  1  0.08738011  0.94683644  0.00778601  1
  H+  H56  1  0.87230325  0.52694413  0.51068896  1
  H+  H57  1  0.87139681  0.01845262  0.15332129  1
  H+  H58  1  0.39306843  0.36427253  0.65764081  1
  H+  H59  1  0.72040660  0.61548704  0.51024935  1
  H+  H60  1  0.61046252  0.42364574  1.01343521  1
  H+  H61  1  0.55371705  0.14708357  0.22296107  1
  H+  H62  1  0.37647917  0.38056894  0.49660692  1
  H+  H63  1  0.67498545  0.82450270  0.14504941  1
  H+  H64  1  -0.01542461  0.11555694  0.84196484  1
  H+  H65  1  0.85603141  0.72708649  0.49774799  1
  H+  H66  1  0.87372202  0.36781205  0.84053258  1
  H+  H67  1  0.08442639  0.60734079  0.49297910  1
  H+  H68  1  0.52308890  0.88337000  0.83272934  1
  H+  H69  1  0.54838924  0.65966081  0.17322522  1
  H+  H70  1  0.14454675  1.02542977  0.49825309  1
  H+  H71  1  0.85824530  0.90724425  0.89069851  1
  H+  H72  1  0.61588512  0.97569576  0.67958161  1
  H+  H73  1  0.59439077  0.87289471  -0.03044956  1
  H+  H74  1  0.86328904  0.23258881  0.66120297  1
  H+  H75  1  0.88142471  0.91604435  0.64161201  1
  H+  H76  1  0.14815239  0.36596408  0.66070094  1
  H+  H77  1  0.60216383  0.22030529  0.81917550  1
  H+  H78  1  0.10693238  0.47829338  0.82290854  1
  H+  H79  1  0.13149960  0.02418279  0.83742707  1
  H+  H80  1  0.34193492  0.61248549  0.46997362  1
  H+  H81  1  0.82715005  0.19627138  0.14873740  1
  H+  H82  1  0.57413822  0.85908125  0.06984612  1
  H+  H83  1  0.61509530  0.09179240  0.18143798  1
  H+  H84  1  0.10509686  0.61904617  0.34554635  1
  H+  H85  1  1.01553945  0.12673579  0.33841361  1
  H+  H86  1  0.07705282  0.17251497  0.09991385  1
  H+  H87  1  0.61149788  0.97391409  0.83369152  1
  H+  H88  1  0.88249864  0.35964569  0.34765429  1
  H+  H89  1  0.64197175  0.77869541  0.51050084  1
  H+  H90  1  0.21484795  0.36657858  0.85260968  1
  H+  H91  1  1.00330900  0.90458272  0.64650156  1
  H+  H92  1  0.87759488  0.64289594  1.01304677  1
  H+  H93  1  0.82468333  0.88062987  0.11352356  1
  H+  H94  1  0.39199330  0.86665057  0.66312172  1
  H+  H95  1  0.19160589  0.83741482  0.18902998  1
  H+  H96  1  0.22671024  0.60359205  0.98649661  1
  H+  H97  1  0.06579601  0.71950288  0.12805759  1
  H+  H98  1  0.30849019  0.68904340  0.15576007  1
  H+  H99  1  0.62629695  0.88990048  0.49740430  1
  H+  H100  1  0.11752003  0.62759569  -0.00458238  1
  H+  H101  1  0.22512896  0.61697164  0.82697981  1
  H+  H102  1  1.05438903  0.89711627  0.29669974  1
  H+  H103  1  0.40642055  0.58086730  0.55787794  1
  H+  H104  1  0.34994833  0.71805285  0.39033970  1
  H+  H105  1  0.69550019  0.08212544  0.16226689  1
  H+  H106  1  0.89336430  1.02481428  0.85067541  1
  H+  H107  1  0.29232593  0.88621713  0.48841413  1
  H+  H108  1  0.12319197  0.89506742  0.82222295  1
  H+  H109  1  0.51829023  0.37274085  0.34341038  1
  H+  H110  1  0.13284020  0.04150469  0.18722575  1
  H+  H111  1  0.84840257  0.47294421  0.15833796  1
  H+  H112  1  0.77620064  0.88776407  0.85405236  1
  H+  H113  1  0.16523424  0.35816616  0.50952148  1
  H+  H114  1  0.63455159  0.86151899  0.66870582  1
  H+  H115  1  0.51802218  0.12797340  0.66278689  1
  H+  H116  1  0.96422594  0.36822439  0.83661969  1
  H+  H117  1  0.51257868  0.13362120  0.82350881  1
  H+  H118  1  0.58763360  0.11918089  0.31377960  1
  H+  H119  1  0.38562021  0.28652136  -0.01067354  1
  H+  H120  1  0.81991207  0.93297132  0.60169247  1
  H+  H121  1  0.04117891  0.67392220  0.81820845  1
  H+  H122  1  0.62502161  0.34319885  0.33182199  1
  H+  H123  1  0.35591285  0.22401124  0.83722917  1
  H+  H124  1  0.38454791  0.77293690  0.83431663  1
  H+  H125  1  0.44356718  0.07823990  0.32916977  1
  H+  H126  1  0.89533223  0.36847796  0.63903803  1
  H+  H127  1  0.92574976  0.31716968  0.11580093  1
  H+  H128  1  0.62868862  0.86130248  0.85243539  1
  H+  H129  1  0.38089615  0.85707351  0.99747579  1
  H+  H130  1  -0.01482675  0.12730258  -0.00965902  1
  H+  H131  1  0.11308746  0.63671868  0.66799998  1
  H+  H132  1  0.84266033  0.11683576  0.15001816  1
  H+  H133  1  0.85101349  0.21707477  -0.00234247  1
  H+  H134  1  0.63079371  0.36107354  0.51089259  1
  H+  H135  1  0.71379489  0.59375535  0.34777661  1
  H+  H136  1  0.59931092  0.72299595  0.83665396  1
  H+  H137  1  0.32487116  0.09291418  0.14810144  1
  H+  H138  1  0.62171836  0.10386572  0.83611223  1
  H+  H139  1  0.46330995  0.61232820  0.49801806  1
  H+  H140  1  0.14175501  0.51530194  0.18113553  1
  H+  H141  1  0.23492075  0.61094062  0.34978199  1
  H+  H142  1  0.71758723  0.34998061  0.66434241  1
  H+  H143  1  0.02391608  0.93055088  0.18612525  1
  H+  H144  1  0.24383014  0.87772939  0.83354576  1
  H+  H145  1  0.81809482  0.41557156  0.40629844  1
  H+  H146  1  0.59032896  0.49672964  0.02378843  1
  H+  H147  1  0.30567815  0.82620984  0.15381731  1
  H+  H148  1  0.85458936  0.40585932  0.49919184  1
  H+  H149  1  0.47233302  0.60501458  0.33688175  1
  H+  H150  1  0.47376882  0.61785645  0.65484630  1
  H+  H151  1  0.36900038  0.97761760  0.66779519  1
  H+  H152  1  0.34011602  0.95729063  0.07805243  1
  H+  H153  1  0.13892183  0.62058499  0.83272639  1
  H+  H154  1  0.60654560  0.62134031  0.35211585  1
  H+  H155  1  0.38750387  0.26853508  0.33254285  1
  H+  H156  1  0.36661414  0.90253938  0.40255977  1
  H+  H157  1  0.47845489  0.36368493  0.83690919  1
  H+  H158  1  0.36411014  0.63017812  1.00312517  1
  H+  H159  1  0.62508039  0.63434984  0.98876240  1
  H+  H160  1  0.35172855  0.49171056  0.83710731  1
  H+  H161  1  0.13968628  0.52382494  0.66137692  1
  H+  H162  1  0.52195569  0.38142863  0.49942903  1
  H+  H163  1  0.63017957  0.61169973  0.50621939  1
  H+  H164  1  0.75158980  0.58632611  0.67899348  1
  H+  H165  1  0.51255703  0.63392383  0.83538475  1
  H+  H166  1  0.18083579  0.33195310  0.60393442  1
  H+  H167  1  0.61001746  0.47178264  0.67565871  1
  H+  H168  1  0.22155972  0.11393282  0.84499293  1
  H+  H169  1  0.11548435  0.47432084  0.35265131  1
  H+  H170  1  0.88562676  0.61622795  0.17616768  1
  H+  H171  1  0.14228488  0.77733441  0.65650180  1
  H+  H172  1  0.82158806  0.87205592  0.98244999  1
  H+  H173  1  0.42040512  0.07396685  0.59059524  1
  H+  H174  1  0.31173503  0.40402316  1.07246079  1
  H+  H175  1  0.37156111  0.22049755  0.66304021  1
  H+  H176  1  0.35231597  0.13368954  0.83569730  1
  H+  H177  1  0.37031378  0.89136914  0.82303010  1
  H+  H178  1  0.72467478  0.11287353  0.65941439  1
  H+  H179  1  0.38697329  0.02479936  0.84039669  1
  H+  H180  1  0.31049483  0.53251441  0.87776943  1
  H+  H181  1  0.14629420  0.86846235  0.65862208  1
  H+  H182  1  0.79762460  0.65606997  0.00836514  1
  H+  H183  1  0.28311396  0.13327067  0.66196744  1
  H+  H184  1  0.39418889  0.01819429  0.49731528  1
  H+  H185  1  0.60683949  0.70827686  -0.03133304  1
  H+  H186  1  0.88944448  0.12195840  0.98661153  1
  H+  H187  1  0.27350798  0.14916755  0.34832503  1
  H+  H188  1  0.06283176  0.37245288  0.49738218  1
  H+  H189  1  0.28098290  0.13427069  0.49811834  1
  H+  H190  1  0.86862235  0.46459903  0.67689015  1
  H+  H191  1  1.01077819  0.61215529  0.34067005  1
  H+  H192  1  0.11883429  0.35663579  0.99415769  1
  H+  H193  1  0.84518977  0.72674285  0.16445122  1
  H+  H194  1  0.63211516  0.65556621  0.16843023  1
  H+  H195  1  0.63272129  0.52319913  0.83503524  1
  H+  H196  1  0.12574428  0.85106644  0.98465519  1
  H+  H197  1  0.48615081  0.86145979  0.50950272  1
  H+  H198  1  0.85333930  0.22150110  0.34418592  1
  H+  H199  1  0.88950806  0.11717841  0.50515306  1
  H+  H200  1  0.61811955  0.97453746  0.49459296  1
  H+  H201  1  0.62692356  0.26302273  0.66113934  1
  H+  H202  1  0.61265923  0.83552910  0.33166179  1
  H+  H203  1  0.63128215  0.61210543  0.83669906  1
  H+  H204  1  0.85407705  0.61719394  0.83189016  1
  H+  H205  1  1.00957517  0.37853962  0.99751303  1
  H+  H206  1  0.85076131  0.21640248  0.48837555  1
  H+  H207  1  0.65408976  0.24268000  -0.01934843  1
  H+  H208  1  0.22551076  0.12101151  0.17539491  1
  H+  H209  1  0.77932044  0.81290562  0.19771057  1
  H+  H210  1  0.60655279  0.71285443  0.34081521  1
  H+  H211  1  1.00385399  0.45441192  0.51699270  1
  H+  H212  1  0.60376229  -0.03713216  0.99220603  1
  H+  H213  1  0.39303870  0.26573687  0.50993476  1
  H+  H214  1  0.66335375  0.07589739  0.56743777  1
  H+  H215  1  0.61085115  0.13398732  0.49428698  1
  H+  H216  1  0.36849523  0.46704252  0.49442826  1
  H+  H217  1  0.84555973  0.70034537  0.35069911  1
  H+  H218  1  1.03317692  0.38861143  0.66786051  1
  H+  H219  1  0.59426123  0.21084986  0.30959452  1
  H+  H220  1  0.28023002  0.81041853  0.12500270  1
  H+  H221  1  0.12196954  0.22166061  0.49828161  1
  H+  H222  1  0.21914474  0.86286283  0.99404480  1
  H+  H223  1  0.96555616  0.60398484  0.16996421  1
  H+  H224  1  0.37215166  0.03353471  0.99575340  1
  H+  H225  1  0.98601156  0.12725590  0.66278498  1
  H+  H226  1  0.61519353  0.24675540  0.98782695  1
  H+  H227  1  0.35385734  0.63361374  0.81250662  1
  H+  H228  1  0.04173699  0.92910051  0.30764967  1
  H+  H229  1  0.02835312  0.88208620  0.81771766  1
  H+  H230  1  0.14782643  0.25979765  0.31953507  1
  H+  H231  1  0.35662139  0.15112608  0.00730503  1
  H+  H232  1  0.39093977  0.35958416  0.32883648  1
  H+  H233  1  0.72299443  0.35834298  0.84941244  1
  H+  H234  1  0.11425204  0.13907370  0.83088328  1
  H+  H235  1  0.16703725  1.01629039  0.36301728  1
  H+  H236  1  0.53526637  0.73049493  0.45891039  1
  H+  H237  1  0.11599179  0.71669472  -0.00409017  1
  H+  H238  1  0.12711801  0.29080262  0.17055447  1
  H+  H239  1  1.01010653  0.42533123  0.20521352  1
  H+  H240  1  0.12306336  0.23048092  0.67559656  1
  H+  H241  1  0.45692670  0.85493273  0.35303023  1
  H+  H242  1  0.51298696  0.37129819  0.17010062  1
  H+  H243  1  0.62151660  0.34184080  0.14783191  1
  H+  H244  1  0.14273436  0.11605036  0.65823947  1
  H+  H245  1  0.40983660  0.56420230  0.93930406  1
  H+  H246  1  0.27742312  0.33743611  0.79321430  1
  H+  H247  1  0.88857804  1.00085095  0.31756741  1
  H+  H248  1  0.70341638  0.53599006  0.97017300  1
  H+  H249  1  0.36061052  0.63938832  0.66240882  1
  H+  H250  1  0.60815138  0.72455176  0.67825075  1
  H+  H251  1  0.10061175  0.46560187  -0.00409437  1
  H+  H252  1  0.36260429  0.73001330  0.66538603  1
  H+  H253  1  0.86816686  -0.01489767  0.49808865  1
  H+  H254  1  0.24345422  0.34142258  0.31913230  1
  H+  H255  1  0.72652794  0.59318822  0.16044201  1
  H+  H256  1  -0.00505021  -0.05151685  0.17852378  1
  H+  H257  1  0.22532591  0.61480954  0.65131550  1
  H+  H258  1  0.71588227  0.00454567  0.28505823  1
  H+  H259  1  0.36415904  0.08541239  0.34665110  1
  H+  H260  1  0.77282324  0.12481561  0.33568149  1
  H+  H261  1  0.24753400  0.34951900  0.51280117  1
  H+  H262  1  0.86015724  0.38782300  0.72046327  1
  H+  H263  1  0.86987865  0.35326704  0.99108741  1
  H+  H264  1  0.14536163  0.65076996  0.16676831  1
  H+  H265  1  0.42623975  0.98705482  0.04571180  1
  H+  H266  1  0.38069927  0.88451963  0.49507783  1
  H+  H267  1  0.65407177  0.57921579  0.60418733  1
  H+  H268  1  0.86717822  0.14745335  0.66961361  1
  H+  H269  1  0.38774076  0.52809076  0.65350265  1
  H+  H270  1  0.36853074  0.12979922  0.49512332  1
  H+  H271  1  0.20766330  0.03626024  0.97251120  1
  H+  H272  1  0.48027801  0.11077460  0.49949998  1
  H+  H273  1  0.85265090  0.75608335  0.67583756  1
  H+  H274  1  0.48062375  0.36163428  0.66264992  1
  H+  H275  1  0.62668735  0.60769770  0.66536120  1
  H+  H276  1  0.74120790  0.42389041  0.99287195  1
  H+  H277  1  0.13647569  0.10967873  0.50124767  1
  H+  H278  1  0.97445069  0.60211522  0.66223466  1
  H+  H279  1  0.26960754  0.37982630  0.16581998  1
  H+  H280  1  0.95814181  0.30255605  0.11863715  1
  H+  H281  1  0.28323023  0.39165935  0.66997642  1
  H+  H282  1  0.88790475  0.75533273  0.82308672  1
  H+  H283  1  0.58488210  0.41317802  0.76833150  1
  H+  H284  1  0.19508015  0.66583719  0.22804008  1
  H+  H285  1  0.61183570  0.38259339  0.67580022  1
  H+  H286  1  0.11073622  0.22739845  0.83225910  1
  H+  H287  1  0.95527796  0.38617781  0.46481794  1
  H+  H288  1  0.91866900  0.05814250  0.25702336  1
  H+  H289  1  0.88009471  0.85838174  0.20052620  1
  H+  H290  1  0.16925003  0.58007479  0.92566374  1
  H+  H291  1  0.82731179  0.64742297  0.41184358  1
  H+  H292  1  0.92415514  0.09857691  0.56769284  1
  H+  H293  1  0.34877708  0.42364608  0.72568231  1
  H+  H294  1  0.16084047  0.06801831  0.92867511  1
  H+  H295  1  0.41312733  0.08545375  0.90004477  1
  H+  H296  1  0.84836354  0.79460233  0.28155729  1
  H+  H297  1  0.77134925  0.89501955  0.03303970  1
  H+  H298  1  0.04706803  0.80474347  0.43167082  1
  H+  H299  1  1.00071787  0.62183323  0.49201684  1
  H+  H300  1  0.19527482  0.57095343  0.28585848  1
  H+  H301  1  0.85702874  0.68770273  0.09936681  1
  H+  H302  1  0.97323399  0.85021676  0.48551868  1
  H+  H303  1  0.57620056  0.40048583  0.40426515  1
  H+  H304  1  0.10590389  0.90687805  0.42460496  1
  H+  H305  1  0.40993728  0.31603922  0.23855332  1
  H+  H306  1  0.08974176  0.67417498  0.72619280  1
  H+  H307  1  0.71300553  0.09799856  0.98957200  1
  H+  H308  1  0.21214994  0.89518420  0.27458566  1
  H+  H309  1  0.65440837  0.28852379  0.89905611  1
  H+  H310  1  0.47970580  0.86362770  0.66720913  1
  H+  H311  1  0.04937738  0.86249457  0.05106582  1
  H+  H312  1  0.66593044  0.04497991  0.25246688  1
  H+  H313  1  0.82338320  0.15718025  0.42883473  1
  H+  H314  1  0.80105576  0.41600837  0.78186277  1
  H+  H315  1  0.89428131  0.04082928  0.65369844  1
  H+  H316  1  0.40690190  0.82733291  0.89660769  1
  H+  H317  1  0.81713820  0.17424878  0.76177897  1
  H+  H318  1  0.09384264  0.92324171  0.72795218  1
  H+  H319  1  0.34541419  0.68054702  0.09277642  1
  H+  H320  1  0.16746889  0.08350428  0.59750242  1
  H+  H321  1  0.42010802  0.57133662  0.23650874  1
  H+  H322  1  0.33784670  0.40675608  0.40212259  1
  H+  H323  1  0.34323916  0.92471910  0.76318057  1
  H+  H324  1  0.53659028  0.11783916  0.09701456  1
  H+  H325  1  0.06167477  0.63877533  0.42267984  1
  H+  H326  1  0.08950734  0.84281656  0.14786805  1
  H+  H327  1  0.47847938  0.60110157  0.99178218  1
  H+  H328  1  0.15266125  0.33160940  0.90991084  1
  H+  H329  1  0.93664930  0.34695894  0.58350668  1
  H+  H330  1  0.17182447  0.10852732  0.27716283  1
  H+  H331  1  0.33609564  0.17068423  0.40585444  1
  H+  H332  1  0.10171149  0.38741304  0.83020492  1
  H+  H333  1  0.68683115  0.59174136  0.92380169  1
  H+  H334  1  0.96044747  0.46589876  0.23804589  1
  H+  H335  1  0.57080963  0.66254514  0.73561644  1
  H+  H336  1  0.81161860  0.61076286  0.73796348  1
  H+  H337  1  0.71434978  0.11270912  0.83519094  1
  H+  H338  1  0.42071665  0.33857674  0.89909955  1
  H+  H339  1  0.70916022  0.34034864  0.14609665  1
  H+  H340  1  0.42719243  0.83590383  0.56849316  1
  H+  H341  1  0.94915002  0.87494332  0.58354307  1
  H+  H342  1  0.56947419  0.67564053  0.42521351  1
  H+  H343  1  0.92824317  0.09477128  0.91759762  1
  H+  H344  1  0.84385821  0.23031249  0.82206073  1
  H+  H345  1  0.02399298  0.38676057  0.35648234  1
  H+  H346  1  0.57748774  0.90645590  0.40247895  1
  H+  H347  1  0.82203666  0.91990318  0.40465463  1
  H+  H348  1  0.18889841  0.84395827  0.56372158  1
  H+  H349  1  0.06829688  0.16580738  0.40229802  1
  H+  H350  1  0.60904447  0.47302815  0.49674923  1
  H+  H351  1  0.86529485  0.39702224  0.16539707  1
  H+  H352  1  0.68309828  0.40480560  0.93359573  1
  H+  H353  1  0.58728885  0.91674739  0.74009952  1
  H+  H354  1  0.90448170  0.57073581  0.93771351  1
  H+  H355  1  0.59408399  0.20981167  0.16532512  1
  H+  H356  1  0.71090570  0.33914296  0.33183000  1
  H+  H357  1  0.10921878  0.41317917  0.43492551  1
  H+  H358  1  0.40100397  0.51496203  0.17793453  1
  H+  H359  1  0.65990861  0.32953881  0.57044866  1
  H+  H360  1  0.91584473  0.58044156  0.57147055  1
  H+  H361  1  0.92778590  0.35176808  0.28942582  1
  H+  H362  1  0.23766929  0.93464869  0.16760270  1
  H+  H363  1  0.90806750  0.57393216  0.26883795  1
  H+  H364  1  0.18070732  0.84336985  0.89248321  1
  H+  H365  1  0.34379141  0.46716414  0.01539485  1
  H+  H366  1  0.82104321  0.15095012  0.05432973  1
  H+  H367  1  0.89960865  0.32635226  0.93023722  1
  H+  H368  1  0.21333931  0.36262348  0.99987127  1
  H+  H369  1  0.32301211  0.16147648  0.10316763  1
  H+  H370  1  0.08419092  0.41482735  0.73127068  1
  H+  H371  1  0.17348074  0.33140563  0.23295694  1
  H+  H372  1  0.43061973  1.04499268  0.17900056  1
  H+  H373  1  0.63281232  0.10753115  0.65973676  1
  H+  H374  1  0.90559986  0.83083981  0.91273411  1
  H+  H375  1  0.85561611  0.63812349  0.50702540  1
  H+  H376  1  0.57203526  0.15728185  0.72547423  1
  H+  H377  1  0.42220743  0.32742934  0.56937788  1
  H+  H378  1  0.66686726  0.82944865  0.57453093  1
  H+  H379  1  0.07018890  0.65203880  0.08673350  1
  H+  H380  1  0.35127830  0.36547545  0.16422073  1
  H+  H381  1  0.33093145  0.66971251  0.75316794  1
  H+  H382  1  0.12797396  0.55931546  0.57072323  1
  H+  H383  1  0.77148200  0.62933483  0.82570438  1
  O2-  O384  1  0.06896968  0.17091675  0.14473750  1
  O2-  O385  1  0.08624272  0.16252076  0.48101161  1
  O2-  O386  1  0.08365170  0.16882776  0.81419253  1
  O2-  O387  1  0.09978018  0.45367511  0.18101585  1
  O2-  O388  1  0.11966787  0.41256886  0.48136376  1
  O2-  O389  1  0.07446366  0.41708115  0.80951363  1
  O2-  O390  1  0.06574924  0.66415756  0.13076954  1
  O2-  O391  1  0.05999580  0.64164963  0.47297787  1
  O2-  O392  1  0.09918345  0.68923468  0.80602664  1
  O2-  O393  1  0.04478756  0.80754630  0.11654747  1
  O2-  O394  1  0.06331882  0.85781184  0.45347617  1
  O2-  O395  1  0.08994317  0.92211242  0.80719689  1
  O2-  O396  1  0.31854360  0.14576879  0.14698231  1
  O2-  O397  1  0.34147345  0.16571378  0.48414915  1
  O2-  O398  1  0.31777890  0.16198808  0.82891521  1
  O2-  O399  1  0.32805170  0.40149799  0.14818865  1
  O2-  O400  1  0.34142711  0.40596989  0.48097662  1
  O2-  O401  1  0.32674102  0.39127132  0.80666372  1
  O2-  O402  1  0.36192379  0.70372398  0.13449729  1
  O2-  O403  1  0.29955863  0.62814001  0.45369753  1
  O2-  O404  1  0.32944611  0.66926700  0.79930596  1
  O2-  O405  1  0.37702937  0.98983996  0.18329507  1
  O2-  O406  1  0.35349264  0.91513516  0.47391791  1
  O2-  O407  1  0.34215201  0.92432818  0.80917515  1
  O2-  O408  1  0.55880480  0.14672747  0.17728779  1
  O2-  O409  1  0.58050818  0.16327569  0.47870027  1
  O2-  O410  1  0.57161948  0.16024138  0.80484917  1
  O2-  O411  1  0.57282819  0.40449984  0.15355673  1
  O2-  O412  1  0.58284184  0.41233259  0.48362115  1
  O2-  O413  1  0.58310494  0.41659774  0.81406690  1
  O2-  O414  1  0.61073095  0.69642772  0.16569412  1
  O2-  O415  1  0.55969809  0.69410160  0.46868779  1
  O2-  O416  1  0.57046701  0.66402260  0.81848889  1
  O2-  O417  1  0.57190958  0.82416958  0.10594443  1
  O2-  O418  1  0.59241779  0.91406237  0.47912195  1
  O2-  O419  1  0.58503989  0.91173643  0.82085886  1
  O2-  O420  1  0.80587427  0.13916434  0.13168564  1
  O2-  O421  1  0.82624668  0.15673911  0.47609325  1
  O2-  O422  1  0.80882278  0.17108701  0.80630979  1
  O2-  O423  1  0.82790160  0.41360941  0.14325308  1
  O2-  O424  1  0.81787146  0.42853291  0.48476670  1
  O2-  O425  1  0.80922548  0.40909528  0.82487372  1
  O2-  O426  1  0.87036308  0.69481093  0.14505553  1
  O2-  O427  1  0.82262694  0.66367477  0.48873953  1
  O2-  O428  1  0.83142604  0.65170199  0.81094543  1
  O2-  O429  1  0.79238450  0.91136172  0.11568381  1
  O2-  O430  1  0.83867009  0.92439200  0.48302719  1
  O2-  O431  1  0.83953599  0.91626057  0.85062081  1
  O2-  O432  1  0.16698198  0.10332180  0.19359407  1
  O2-  O433  1  0.16877303  0.08144520  0.51774227  1
  O2-  O434  1  0.15776084  0.08191223  0.85737109  1
  O2-  O435  1  0.16494605  0.34695973  0.18968867  1
  O2-  O436  1  0.18662771  0.32197316  0.52872629  1
  O2-  O437  1  0.15377970  0.33382242  0.86297976  1
  O2-  O438  1  0.18718123  0.63873382  0.18839725  1
  O2-  O439  1  0.10161952  0.54095877  0.52887460  1
  O2-  O440  1  0.16609164  0.58652797  0.84503529  1
  O2-  O441  1  0.18136037  0.88580113  0.18884381  1
  O2-  O442  1  0.19365465  0.84048123  0.51902397  1
  O2-  O443  1  0.18156493  0.84630936  0.84723331  1
  O2-  O444  1  0.31904584  -0.00242807  0.13914399  1
  O2-  O445  1  0.41881287  0.07768925  0.51460308  1
  O2-  O446  1  0.41522840  0.08569948  0.85480247  1
  O2-  O447  1  0.40778215  0.31326452  0.19280240  1
  O2-  O448  1  0.42313655  0.32755223  0.52359540  1
  O2-  O449  1  0.41796468  0.33494503  0.85208189  1
  O2-  O450  1  0.43624951  0.57383598  0.19356929  1
  O2-  O451  1  0.40350976  0.57397499  0.51267625  1
  O2-  O452  1  0.36373268  0.54661982  0.85661061  1
  O2-  O453  1  0.51879504  0.83987043  0.14799127  1
  O2-  O454  1  0.42577165  0.83341903  0.52350908  1
  O2-  O455  1  0.41468685  0.83213031  0.85140105  1
  O2-  O456  1  0.64292560  0.05629903  0.18720419  1
  O2-  O457  1  0.66169264  0.07501043  0.52195024  1
  O2-  O458  1  0.65415189  0.07697244  0.85274996  1
  O2-  O459  1  0.64707807  0.30511696  0.13824651  1
  O2-  O460  1  0.66347801  0.33228612  0.52510110  1
  O2-  O461  1  0.65846630  0.32564289  0.86529908  1
  O2-  O462  1  0.67073457  0.57860531  0.17691438  1
  O2-  O463  1  0.65847609  0.58260115  0.52390927  1
  O2-  O464  1  0.66525511  0.58459925  0.84839145  1
  O2-  O465  1  0.73137152  0.86367641  0.16526969  1
  O2-  O466  1  0.67756442  0.83619704  0.52954017  1
  O2-  O467  1  0.65603607  0.82584430  0.86677216  1
  O2-  O468  1  0.90014112  0.07479183  0.17381975  1
  O2-  O469  1  0.92161811  0.09000997  0.52246590  1
  O2-  O470  1  0.92592102  0.08742193  0.86142222  1
  O2-  O471  1  0.95078975  0.41111282  0.22231931  1
  O2-  O472  1  0.95176669  0.39670507  0.50802188  1
  O2-  O473  1  0.90480955  0.33676954  0.85291908  1
  O2-  O474  1  0.90789021  0.57777406  0.18963140  1
  O2-  O475  1  0.91229377  0.58693433  0.52612121  1
  O2-  O476  1  0.88826468  0.55550786  0.86375303  1
  O2-  O477  1  0.82847446  0.80326785  0.20866490  1
  O2-  O478  1  0.91892250  0.83283704  0.50850909  1
  O2-  O479  1  0.92147177  0.81805688  0.83458134  1
  O2-  O480  1  0.17120087  0.10585398  0.32213324  1
  O2-  O481  1  0.17232746  0.08562598  0.64261770  1
  O2-  O482  1  0.16890134  0.05950370  0.97387856  1
  O2-  O483  1  0.19464926  0.30159764  0.29308840  1
  O2-  O484  1  0.18004586  0.33572200  0.64969163  1
  O2-  O485  1  0.15285323  0.32766258  0.98050725  1
  O2-  O486  1  0.18008553  0.58333798  0.32566155  1
  O2-  O487  1  0.16226245  0.58134843  0.64180655  1
  O2-  O488  1  0.16608440  0.57622146  0.97076628  1
  O2-  O489  1  0.21739678  0.88307334  0.31748115  1
  O2-  O490  1  0.17797339  0.83868677  0.64489192  1
  O2-  O491  1  0.16547762  0.82953072  0.97161246  1
  O2-  O492  1  0.38458039  0.04397863  0.34443835  1
  O2-  O493  1  0.42103805  0.07526449  0.63646800  1
  O2-  O494  1  0.40206319  0.09365827  0.97954184  1
  O2-  O495  1  0.42005806  0.32788316  0.31389841  1
  O2-  O496  1  0.42174659  0.33186692  0.64434779  1
  O2-  O497  1  0.41840573  0.34159259  0.96735289  1
  O2-  O498  1  0.41004712  0.57505257  0.32506491  1
  O2-  O499  1  0.41437370  0.58812281  0.63763122  1
  O2-  O500  1  0.41497661  0.57326385  0.98342297  1
  O2-  O501  1  0.39205639  0.82385307  0.35559385  1
  O2-  O502  1  0.42071647  0.83382925  0.64969696  1
  O2-  O503  1  0.40411308  0.82533638  0.97553608  1
  O2-  O504  1  0.68491056  0.03469454  0.29471026  1
  O2-  O505  1  0.66344159  0.07640477  0.64666895  1
  O2-  O506  1  0.65105513  0.06838126  0.97860066  1
  O2-  O507  1  0.65244251  0.31123324  0.31493072  1
  O2-  O508  1  0.65844995  0.32569101  0.64897548  1
  O2-  O509  1  0.69691581  0.43462793  0.97304822  1
  O2-  O510  1  0.65287566  0.57089004  0.33740558  1
  O2-  O511  1  0.65365527  0.57482391  0.64926630  1
  O2-  O512  1  0.69668891  0.58766350  0.96824100  1
  O2-  O513  1  0.64814509  0.81023389  0.31887371  1
  O2-  O514  1  0.66052332  0.82719453  0.65240427  1
  O2-  O515  1  0.63663709  0.81435829  0.93257749  1
  O2-  O516  1  0.93864948  0.04730728  0.29592244  1
  O2-  O517  1  0.92680453  0.10395687  0.64553281  1
  O2-  O518  1  0.92624763  0.09732854  0.97111333  1
  O2-  O519  1  0.91772443  0.33381388  0.33308026  1
  O2-  O520  1  0.92996188  0.34145324  0.62797009  1
  O2-  O521  1  0.89823143  0.32126151  0.97569348  1
  O2-  O522  1  0.91066685  0.56901861  0.31399776  1
  O2-  O523  1  0.91547814  0.56164389  0.64656501  1
  O2-  O524  1  0.91533023  0.57756199  0.98292337  1
  O2-  O525  1  0.87059594  0.80019136  0.32426760  1
  O2-  O526  1  0.95762019  0.90649262  0.62218295  1
  O2-  O527  1  0.90052246  0.85682338  0.95129486  1
  O2-  O528  1  0.08219638  0.17236722  0.01960023  1
  O2-  O529  1  0.07082290  0.17084378  0.35733669  1
  O2-  O530  1  0.08950346  0.16909510  0.68866902  1
  O2-  O531  1  0.07034893  0.40568030  0.01079743  1
  O2-  O532  1  0.08526481  0.41565668  0.36967473  1
  O2-  O533  1  0.09159133  0.41770075  0.68594511  1
  O2-  O534  1  0.08489883  0.65640738  0.01018283  1
  O2-  O535  1  0.06807419  0.64060075  0.36192629  1
  O2-  O536  1  0.08210424  0.66715992  0.68143726  1
  O2-  O537  1  0.05597738  0.88356857  0.00807293  1
  O2-  O538  1  0.17599347  0.97588456  0.38823388  1
  O2-  O539  1  0.09693372  0.92293118  0.68265545  1
  O2-  O540  1  0.32950167  0.18322591  0.02517550  1
  O2-  O541  1  0.33478081  0.17254546  0.36052567  1
  O2-  O542  1  0.34460044  0.15861418  0.67256497  1
  O2-  O543  1  0.30160370  0.40826060  0.02818340  1
  O2-  O544  1  0.33863009  0.40839771  0.35684656  1
  O2-  O545  1  0.34613795  0.42493271  0.68080028  1
  O2-  O546  1  0.32804562  0.65643881  0.01335666  1
  O2-  O547  1  0.32807758  0.65480906  0.39050033  1
  O2-  O548  1  0.32852590  0.66772603  0.67809051  1
  O2-  O549  1  0.36412765  0.94738984  0.03869685  1
  O2-  O550  1  0.37541175  0.89577265  0.35719948  1
  O2-  O551  1  0.34038124  0.91927263  0.68774877  1
  O2-  O552  1  0.52518855  0.09966076  0.05390227  1
  O2-  O553  1  0.55686518  0.14723050  0.29908575  1
  O2-  O554  1  0.57846773  0.15999709  0.68035107  1
  O2-  O555  1  0.56668029  0.43546510  0.03202657  1
  O2-  O556  1  0.57890578  0.40073781  0.35911612  1
  O2-  O557  1  0.58146598  0.41199804  0.69256291  1
  O2-  O558  1  0.58424493  0.65517882  -0.00734447  1
  O2-  O559  1  0.57476926  0.65424762  0.36122416  1
  O2-  O560  1  0.57425708  0.66265561  0.69061169  1
  O2-  O561  1  0.57130237  0.89871733  -0.00149971  1
  O2-  O562  1  0.56272878  0.89552081  0.35824923  1
  O2-  O563  1  0.58627069  0.91497482  0.69473885  1
  O2-  O564  1  0.82606080  0.15480922  0.00899092  1
  O2-  O565  1  0.82487381  0.16169246  0.35987345  1
  O2-  O566  1  0.83202844  0.17489742  0.67976969  1
  O2-  O567  1  0.82581343  0.41549239  0.01910832  1
  O2-  O568  1  0.82376231  0.40651582  0.36222768  1
  O2-  O569  1  0.83406613  0.40076881  0.68610097  1
  O2-  O570  1  0.85406770  0.67909919  0.02842499  1
  O2-  O571  1  0.82784850  0.64199174  0.36660762  1
  O2-  O572  1  0.79699618  0.57902784  0.69869760  1
  O2-  O573  1  0.77743652  0.88935941  -0.01098393  1
  O2-  O574  1  0.81406548  0.90987183  0.35993308  1
  O2-  O575  1  0.83275652  0.93076277  0.64453009  1
