# generated using pymatgen
data_H2O
_symmetry_space_group_name_H-M   'P 1'
_cell_length_a   17.99610055
_cell_length_b   17.98955746
_cell_length_c   21.99194878
_cell_angle_alpha   90.00556676
_cell_angle_beta   89.99043617
_cell_angle_gamma   120.02057691
_symmetry_Int_Tables_number   1
_chemical_formula_structural   H2O
_chemical_formula_sum   'H384 O192'
_cell_volume   6164.57506159
_cell_formula_units_Z   192
loop_
 _symmetry_equiv_pos_site_id
 _symmetry_equiv_pos_as_xyz
  1  'x, y, z'
loop_
 _atom_type_symbol
 _atom_type_oxidation_number
  H+  1.0
  O2-  -2.0
loop_
 _atom_site_type_symbol
 _atom_site_label
 _atom_site_symmetry_multiplicity
 _atom_site_fract_x
 _atom_site_fract_y
 _atom_site_fract_z
 _atom_site_occupancy
  H+  H0  1  0.59770201  0.20493567  0.00053086  1
  H+  H1  1  0.87691347  0.51496698  0.49860548  1
  H+  H2  1  0.15420692  0.52470069  0.99894091  1
  H+  H3  1  0.63792828  1.01057815  0.17512200  1
  H+  H4  1  0.25852397  0.89025584  1.00165381  1
  H+  H5  1  0.61653628  0.86676717  0.68334587  1
  H+  H6  1  0.01724219  0.88563685  0.15961166  1
  H+  H7  1  0.30919901  0.87742199  0.33627770  1
  H+  H8  1  0.14764290  0.36396798  0.17511533  1
  H+  H9  1  0.63024805  0.02273265  0.50483014  1
  H+  H10  1  0.38280473  0.85786091  0.16525104  1
  H+  H11  1  0.85712747  0.13448594  1.00339017  1
  H+  H12  1  0.90199401  0.14921387  0.51035973  1
  H+  H13  1  0.38561470  0.02724872  0.83011559  1
  H+  H14  1  0.99598872  0.87401882  0.34342274  1
  H+  H15  1  0.48255825  0.89085659  0.83320736  1
  H+  H16  1  0.14299170  0.88100251  0.84006169  1
  H+  H17  1  0.39262597  0.36898064  0.33261216  1
  H+  H18  1  0.37647843  0.47424092  0.00880646  1
  H+  H19  1  0.42005971  0.37059535  0.97900550  1
  H+  H20  1  0.89997698  0.77905748  0.83610590  1
  H+  H21  1  0.12467615  0.24082430  0.33590404  1
  H+  H22  1  0.74600308  0.88320170  0.48209191  1
  H+  H23  1  0.66459757  0.17277467  0.35553274  1
  H+  H24  1  0.70828599  0.08340641  0.66490312  1
  H+  H25  1  0.35902780  0.63177397  0.16226704  1
  H+  H26  1  0.55150210  0.88058191  0.01896474  1
  H+  H27  1  0.61177056  0.47447900  0.34325653  1
  H+  H28  1  0.37838311  0.85558825  0.65473039  1
  H+  H29  1  0.36109528  0.63922072  0.68461717  1
  H+  H30  1  0.11608229  0.13994462  0.00307775  1
  H+  H31  1  0.93607816  0.10198195  0.60236751  1
  H+  H32  1  0.76894472  0.88718659  0.17171941  1
  H+  H33  1  0.84256988  0.73759743  0.33672295  1
  H+  H34  1  0.37779008  0.51899773  0.17711114  1
  H+  H35  1  0.08743598  0.66372617  0.05578755  1
  H+  H36  1  0.83404315  0.75455212  0.64493971  1
  H+  H37  1  0.52760475  0.55586531  0.11340325  1
  H+  H38  1  0.24236301  0.11839159  0.52032294  1
  H+  H39  1  0.72024765  0.62797369  1.00222579  1
  H+  H40  1  0.84893712  0.22766433  0.49167950  1
  H+  H41  1  0.13942867  0.86672015  0.50921872  1
  H+  H42  1  0.59787898  0.11625358  1.01280145  1
  H+  H43  1  0.26291574  0.87930808  0.15338699  1
  H+  H44  1  0.71199236  0.58663870  0.51366985  1
  H+  H45  1  0.82980873  0.37124988  1.00888739  1
  H+  H46  1  0.36028121  0.52177925  0.50793455  1
  H+  H47  1  0.97506157  0.36056006  0.83972559  1
  H+  H48  1  0.45884854  0.11193967  0.16958254  1
  H+  H49  1  0.51869300  0.14523659  0.33414824  1
  H+  H50  1  0.62496253  0.35413935  0.67513661  1
  H+  H51  1  0.38345497  0.52627403  0.33465221  1
  H+  H52  1  0.32611208  0.92015288  0.75643725  1
  H+  H53  1  0.41501242  0.87330191  0.31623475  1
  H+  H54  1  0.38373360  0.14847065  0.81236092  1
  H+  H55  1  0.82394792  0.16069891  0.43581768  1
  H+  H56  1  0.89607325  0.02910930  0.65483351  1
  H+  H57  1  0.11508079  0.42854213  0.06722113  1
  H+  H58  1  0.63589453  0.00181522  1.01716655  1
  H+  H59  1  0.84645463  0.39707963  0.15829164  1
  H+  H60  1  0.93325081  0.37722180  0.11483232  1
  H+  H61  1  0.12775615  0.15510664  0.34578584  1
  H+  H62  1  0.76393867  0.12431468  0.01056416  1
  H+  H63  1  0.16778239  0.83927068  0.60038476  1
  H+  H64  1  0.50594702  0.88241103  0.67673025  1
  H+  H65  1  -0.01974260  0.11154037  0.17069594  1
  H+  H66  1  0.35892894  0.67012712  0.85079551  1
  H+  H67  1  0.61210942  0.38211976  0.34359298  1
  H+  H68  1  0.63588905  0.27481945  0.82942325  1
  H+  H69  1  0.02171837  0.85689642  0.66262922  1
  H+  H70  1  0.08862167  0.21407229  0.50110576  1
  H+  H71  1  0.49651919  0.60491205  0.84841169  1
  H+  H72  1  0.10854913  0.63594293  0.15296471  1
  H+  H73  1  0.56983438  0.64948060  0.08863196  1
  H+  H74  1  0.29150251  0.38400791  0.00494449  1
  H+  H75  1  0.61014548  0.59330179  0.67141947  1
  H+  H76  1  0.13056941  0.01580007  0.16571572  1
  H+  H77  1  0.89036150  0.96642430  0.48005055  1
  H+  H78  1  -0.07705490  0.32589389  0.39386206  1
  H+  H79  1  0.97949770  0.11535152  0.99335846  1
  H+  H80  1  0.73170323  0.61638091  0.85200384  1
  H+  H81  1  0.11996675  0.10837140  0.83770573  1
  H+  H82  1  0.88076943  0.86282235  0.17554664  1
  H+  H83  1  0.61778035  0.13513606  0.67178200  1
  H+  H84  1  0.86127303  0.73117144  1.00476489  1
  H+  H85  1  0.61134191  0.33562121  0.98755095  1
  H+  H86  1  0.91233075  0.84623989  0.26808922  1
  H+  H87  1  0.87345117  0.97646483  0.82534291  1
  H+  H88  1  0.89400181  0.36856624  0.34627855  1
  H+  H89  1  0.37698682  0.88426764  0.82979815  1
  H+  H90  1  0.52421153  0.13809606  0.82068746  1
  H+  H91  1  0.62475246  0.89803170  0.33288758  1
  H+  H92  1  0.14077599  0.61664529  0.32756880  1
  H+  H93  1  0.84071221  0.37448663  0.49205575  1
  H+  H94  1  0.83746298  0.70185886  0.48162693  1
  H+  H95  1  0.77510780  0.38785201  0.82400141  1
  H+  H96  1  0.12068711  0.48093870  0.33372288  1
  H+  H97  1  0.83152113  0.63252560  0.01263046  1
  H+  H98  1  0.14707150  0.36854008  0.32318557  1
  H+  H99  1  0.63235078  1.03079511  0.32713192  1
  H+  H100  1  0.33868728  0.16582839  0.04642300  1
  H+  H101  1  0.87481186  0.51697916  0.15792185  1
  H+  H102  1  0.33228558  0.35556340  0.50987275  1
  H+  H103  1  0.89602233  0.24326571  0.65062514  1
  H+  H104  1  0.27899021  0.38986285  0.34242443  1
  H+  H105  1  0.59433824  0.97428320  0.67615980  1
  H+  H106  1  0.86591657  0.63639306  0.19454581  1
  H+  H107  1  0.38499706  0.10900228  0.98324074  1
  H+  H108  1  0.61985538  0.39707344  0.15091379  1
  H+  H109  1  0.08511100  0.66657880  0.39992012  1
  H+  H110  1  0.85587491  0.24433654  0.65829545  1
  H+  H111  1  0.10319052  0.64084597  0.67711350  1
  H+  H112  1  0.13242440  0.52221662  0.66923102  1
  H+  H113  1  0.13349921  0.67409097  0.81808570  1
  H+  H114  1  0.34036110  0.67454588  0.41707558  1
  H+  H115  1  0.37682447  0.45082067  0.82015607  1
  H+  H116  1  0.37803567  0.85634943  0.50364589  1
  H+  H117  1  0.71976125  0.11121420  0.50832041  1
  H+  H118  1  0.37990146  0.37348080  0.62903651  1
  H+  H119  1  0.37172338  0.24367718  0.51266680  1
  H+  H120  1  0.88686297  0.27218948  0.83184076  1
  H+  H121  1  0.61024445  0.72752327  0.69560618  1
  H+  H122  1  0.41183937  0.08576163  0.31835985  1
  H+  H123  1  0.88397081  0.15549862  0.15897594  1
  H+  H124  1  0.66402726  0.74381757  0.47438958  1
  H+  H125  1  0.73180315  0.37917657  0.16183560  1
  H+  H126  1  0.02731524  0.14083120  0.68669738  1
  H+  H127  1  0.89844370  0.40521796  0.64800079  1
  H+  H128  1  0.09052138  0.92008725  0.44153478  1
  H+  H129  1  0.11865406  0.46988015  0.83563744  1
  H+  H130  1  0.40091069  0.57831205  0.83055676  1
  H+  H131  1  0.41292610  0.27080095  0.82744271  1
  H+  H132  1  0.72657534  0.10956380  0.32604410  1
  H+  H133  1  0.92142362  0.48423185  0.39753436  1
  H+  H134  1  0.14436445  1.03078538  -0.00825403  1
  H+  H135  1  1.01739471  0.63213828  0.14738530  1
  H+  H136  1  0.38103804  0.22921689  0.98855734  1
  H+  H137  1  0.73396567  0.61907466  0.67252686  1
  H+  H138  1  0.23031725  0.61837925  0.32571311  1
  H+  H139  1  1.03180583  0.89303483  0.81676758  1
  H+  H140  1  0.13108014  -0.02119613  0.50100783  1
  H+  H141  1  0.86481625  0.13435898  0.82489161  1
  H+  H142  1  0.35496986  0.22856949  0.34248317  1
  H+  H143  1  0.35191363  0.12240231  0.13756589  1
  H+  H144  1  0.49646015  0.86407719  0.32019308  1
  H+  H145  1  0.64458121  0.79900735  0.32767139  1
  H+  H146  1  0.13692515  0.78925875  0.83810144  1
  H+  H147  1  0.47820061  0.36376043  0.33539946  1
  H+  H148  1  0.70177204  0.34102823  0.99311933  1
  H+  H149  1  0.87547203  0.60102466  0.48843385  1
  H+  H150  1  0.33939654  0.62578344  0.49139639  1
  H+  H151  1  0.37765103  0.79447593  0.84138502  1
  H+  H152  1  0.59295975  0.23712831  0.15636615  1
  H+  H153  1  0.22108304  0.38284494  0.52221432  1
  H+  H154  1  0.83681602  0.88327449  0.66179048  1
  H+  H155  1  0.60813534  0.47016454  0.49705553  1
  H+  H156  1  0.71362073  0.70124171  0.44525896  1
  H+  H157  1  0.61890144  0.26740841  0.51664799  1
  H+  H158  1  0.35231086  0.97008300  0.15396082  1
  H+  H159  1  0.88911244  0.51756718  0.84485970  1
  H+  H160  1  0.87869526  0.87867557  0.32539871  1
  H+  H161  1  0.63735723  0.12596435  0.83321553  1
  H+  H162  1  0.46629972  0.60471448  0.17505957  1
  H+  H163  1  0.98614688  0.12197166  0.32377013  1
  H+  H164  1  0.38998391  0.61128533  -0.00467596  1
  H+  H165  1  0.36466124  0.73171490  0.48943753  1
  H+  H166  1  0.60929138  0.13792155  0.50487346  1
  H+  H167  1  0.59696895  -0.01638740  0.83296779  1
  H+  H168  1  0.99171661  0.61909477  0.31985936  1
  H+  H169  1  0.60961203  0.37639829  0.49730237  1
  H+  H170  1  0.34827425  0.15942407  0.62859179  1
  H+  H171  1  0.49231931  0.57469213  0.49423901  1
  H+  H172  1  0.76903254  0.87129365  -0.01262273  1
  H+  H173  1  0.36428247  0.47996424  0.67116612  1
  H+  H174  1  0.14841859  0.27774073  0.98936974  1
  H+  H175  1  0.13154175  0.48195469  0.16172637  1
  H+  H176  1  0.86341955  0.55699144  0.94375736  1
  H+  H177  1  0.13846038  0.11953943  0.68098310  1
  H+  H178  1  0.04326593  0.39489974  0.15370388  1
  H+  H179  1  0.61761656  0.22713045  0.67263642  1
  H+  H180  1  0.10447395  0.88139337  0.15648536  1
  H+  H181  1  0.97594321  0.60811930  0.85253101  1
  H+  H182  1  0.26378338  0.64926616  0.84130530  1
  H+  H183  1  0.86958416  0.62969643  0.84487384  1
  H+  H184  1  0.52456623  0.64643269  0.00250110  1
  H+  H185  1  1.01613448  0.64663661  0.67800357  1
  H+  H186  1  0.10788692  0.64094734  0.49551827  1
  H+  H187  1  0.70781271  0.35624138  0.51468952  1
  H+  H188  1  0.08032128  0.17347952  0.87676739  1
  H+  H189  1  0.83718373  0.09632967  0.67544667  1
  H+  H190  1  0.48059268  0.62156704  0.67404502  1
  H+  H191  1  0.41869607  0.86699136  0.01375260  1
  H+  H192  1  0.91189419  0.29454080  0.15283227  1
  H+  H193  1  0.13906780  0.27585192  0.67305527  1
  H+  H194  1  0.49362599  0.61475123  0.48257414  1
  H+  H195  1  0.23947038  0.30478204  0.47688880  1
  H+  H196  1  0.88819825  1.02400160  0.17385478  1
  H+  H197  1  1.01378562  0.88856225  0.68028560  1
  H+  H198  1  0.11744759  0.22786269  0.15904760  1
  H+  H199  1  0.52902712  0.86691284  0.16218710  1
  H+  H200  1  0.59167062  0.45351499  0.69948934  1
  H+  H201  1  0.51894581  0.88354927  0.48922278  1
  H+  H202  1  0.46994592  0.09916206  0.98921843  1
  H+  H203  1  0.65598788  0.44774442  0.00346200  1
  H+  H204  1  0.76699213  0.39045977  0.67339117  1
  H+  H205  1  0.90974814  0.62793560  0.30572508  1
  H+  H206  1  0.21811004  0.61280477  0.66962592  1
  H+  H207  1  0.87345813  0.83701647  0.48296571  1
  H+  H208  1  0.62285414  0.87211613  0.17285724  1
  H+  H209  1  0.11113367  0.57732918  0.86271532  1
  H+  H210  1  0.37369585  0.39754566  0.16501070  1
  H+  H211  1  0.37629319  0.15658826  0.50172782  1
  H+  H212  1  0.13898898  0.87132670  -0.00731787  1
  H+  H213  1  0.10402640  0.39289454  0.49665125  1
  H+  H214  1  0.02819086  0.39436410  0.67518478  1
  H+  H215  1  0.85811120  0.21598061  0.34463635  1
  H+  H216  1  0.77627816  0.63480590  0.20011332  1
  H+  H217  1  0.03325032  0.38968910  0.33780262  1
  H+  H218  1  0.03060254  0.89479000  0.00078052  1
  H+  H219  1  0.64013808  0.60755897  0.17242945  1
  H+  H220  1  0.88317963  0.49641248  0.33868179  1
  H+  H221  1  0.50398582  0.16705675  0.35692433  1
  H+  H222  1  0.13960325  0.78379341  0.66270157  1
  H+  H223  1  0.63497956  0.60027151  0.51008488  1
  H+  H224  1  0.37059656  -0.02570674  0.66723624  1
  H+  H225  1  0.40681899  0.77515493  1.00414208  1
  H+  H226  1  0.65732942  0.78210627  0.19228341  1
  H+  H227  1  0.37679348  0.73494515  0.34004232  1
  H+  H228  1  0.50479613  0.36898242  0.82393549  1
  H+  H229  1  0.56328451  0.92486666  0.77123034  1
  H+  H230  1  0.27923273  0.37813873  0.81502924  1
  H+  H231  1  0.62791448  0.63996689  0.84322580  1
  H+  H232  1  0.69500096  0.60602651  0.32813894  1
  H+  H233  1  0.35853587  0.98513862  0.00249669  1
  H+  H234  1  0.63085336  0.53423965  0.00002225  1
  H+  H235  1  0.98301116  0.46168023  0.61125833  1
  H+  H236  1  0.77607256  0.81172727  0.03727018  1
  H+  H237  1  0.76505369  0.90485726  0.68053429  1
  H+  H238  1  0.10692553  0.72151885  0.33732003  1
  H+  H239  1  0.38121627  1.02123186  0.51002802  1
  H+  H240  1  1.01871058  0.63842640  0.48522679  1
  H+  H241  1  0.86720660  -0.00727327  0.33165850  1
  H+  H242  1  0.26689404  0.89607662  0.81837734  1
  H+  H243  1  0.27600341  0.88875945  0.66406724  1
  H+  H244  1  0.31148521  0.96733738  0.33852732  1
  H+  H245  1  0.12706797  0.76702174  0.16302970  1
  H+  H246  1  0.16453480  0.91834771  0.68442829  1
  H+  H247  1  0.22678263  0.61743217  0.16944690  1
  H+  H248  1  0.36966418  0.63958863  0.34132474  1
  H+  H249  1  0.97694548  0.11511024  0.83734847  1
  H+  H250  1  0.49097859  0.38667035  0.17163260  1
  H+  H251  1  0.13406466  0.77398305  0.50969525  1
  H+  H252  1  0.09656641  0.83965671  0.31944339  1
  H+  H253  1  0.37288731  0.25268992  0.64651071  1
  H+  H254  1  0.89190036  0.86305836  0.98676077  1
  H+  H255  1  0.14168504  0.40045673  1.00551669  1
  H+  H256  1  0.26749173  0.12834521  0.13371473  1
  H+  H257  1  0.86481799  0.26782313  -0.00943285  1
  H+  H258  1  0.68071425  0.85267581  0.26242900  1
  H+  H259  1  0.14902073  0.61483852  0.99489139  1
  H+  H260  1  0.90024676  0.86964046  0.83089340  1
  H+  H261  1  0.96495363  0.35785808  0.49313809  1
  H+  H262  1  0.33992062  0.41827311  0.10309962  1
  H+  H263  1  0.16716009  1.01470387  0.69132299  1
  H+  H264  1  0.51555045  0.38186566  0.98283521  1
  H+  H265  1  0.77091397  0.90333792  0.33364180  1
  H+  H266  1  0.89126831  0.02689853  0.99321535  1
  H+  H267  1  0.12212901  0.72382289  -0.00162560  1
  H+  H268  1  0.65379716  0.28283468  0.33367170  1
  H+  H269  1  0.62430819  0.76179539  0.96231468  1
  H+  H270  1  0.62288421  0.38740137  0.79585068  1
  H+  H271  1  0.66994794  0.59135298  0.90999391  1
  H+  H272  1  0.11241354  0.38428557  0.68127917  1
  H+  H273  1  0.87784140  0.53389022  0.66994469  1
  H+  H274  1  0.61484179  0.64829708  0.00254288  1
  H+  H275  1  0.26615990  0.88128179  0.50139008  1
  H+  H276  1  0.37784018  0.76652581  0.65997216  1
  H+  H277  1  0.81797558  0.66128790  0.29409221  1
  H+  H278  1  0.14411797  0.27225423  0.83604148  1
  H+  H279  1  0.23252726  0.11997484  0.98292411  1
  H+  H280  1  0.32696574  0.17388115  0.40315810  1
  H+  H281  1  0.81857948  0.49181154  -0.00191570  1
  H+  H282  1  0.61131061  0.89003674  0.48360870  1
  H+  H283  1  0.64226104  0.52082129  0.16911013  1
  H+  H284  1  0.40463817  0.11253950  0.67263962  1
  H+  H285  1  0.23510209  0.13912360  0.66921467  1
  H+  H286  1  0.87583806  0.62118159  0.66890923  1
  H+  H287  1  0.14628766  0.36215451  0.83742375  1
  H+  H288  1  0.42064925  0.57659401  0.93776063  1
  H+  H289  1  0.36682257  0.19131199  0.75312972  1
  H+  H290  1  0.65069510  0.33512447  0.60870860  1
  H+  H291  1  0.08634169  0.17095593  0.06209965  1
  H+  H292  1  0.32779593  0.40714690  0.40538673  1
  H+  H293  1  0.64344040  0.56249586  0.26851898  1
  H+  H294  1  0.22866474  0.36560743  0.66833644  1
  H+  H295  1  0.58954329  0.41506307  0.42798906  1
  H+  H296  1  0.88469755  0.77576926  0.19252562  1
  H+  H297  1  0.43508850  0.35604905  0.23358719  1
  H+  H298  1  0.65836568  0.33330159  0.88783791  1
  H+  H299  1  0.11281555  0.20447462  0.43367648  1
  H+  H300  1  0.60555920  0.90850737  0.08034290  1
  H+  H301  1  0.84330496  0.64504969  0.78116290  1
  H+  H302  1  0.15006640  0.82335877  0.22389902  1
  H+  H303  1  0.56056591  0.16821951  0.10270440  1
  H+  H304  1  0.58501048  0.16743917  0.76079880  1
  H+  H305  1  0.80426528  0.64059318  0.42288122  1
  H+  H306  1  0.15786461  0.07903207  0.89398576  1
  H+  H307  1  0.82210156  0.91142910  0.10779843  1
  H+  H308  1  0.27733626  0.50386907  0.54143347  1
  H+  H309  1  0.58477000  0.66578845  0.75254453  1
  H+  H310  1  0.36060803  0.72194490  0.15691440  1
  H+  H311  1  0.87455986  0.80117661  0.54812916  1
  H+  H312  1  0.80744958  0.12149677  0.73611206  1
  H+  H313  1  0.57914775  0.27326012  0.29131563  1
  H+  H314  1  0.41730342  0.08060316  0.56895738  1
  H+  H315  1  0.52073996  0.65562273  0.33982703  1
  H+  H316  1  0.33377000  0.10102458  0.32574326  1
  H+  H317  1  0.05990168  -0.00551622  0.31744199  1
  H+  H318  1  0.93068468  0.84472709  0.92629975  1
  H+  H319  1  0.07847415  0.68003697  0.76499483  1
  H+  H320  1  0.18867591  0.85299478  0.32378320  1
  H+  H321  1  0.83022816  0.41902317  0.73117652  1
  H+  H322  1  0.16781672  0.58934401  0.22901618  1
  H+  H323  1  0.28365406  0.63934170  1.00541047  1
  H+  H324  1  0.66178639  0.07919460  0.22616429  1
  H+  H325  1  0.89344426  0.32897327  0.93305927  1
  H+  H326  1  0.92700944  0.57425232  0.21698631  1
  H+  H327  1  0.91358155  0.35053237  0.55366416  1
  H+  H328  1  0.11471555  0.13764826  0.15518061  1
  H+  H329  1  0.92672857  0.09106419  0.26279540  1
  H+  H330  1  0.63667157  0.04064642  0.95341955  1
  H+  H331  1  0.17944035  0.08300157  0.21894008  1
  H+  H332  1  0.40806986  0.58062486  0.27174150  1
  H+  H333  1  0.66851924  0.34472789  0.22185843  1
  H+  H334  1  0.63526150  0.20435571  0.41379299  1
  H+  H335  1  0.69289370  0.85211485  0.54163084  1
  H+  H336  1  0.12907446  0.94333516  0.75553312  1
  H+  H337  1  0.91232389  0.08227274  0.89420530  1
  H+  H338  1  0.11741448  0.99448876  0.82908548  1
  H+  H339  1  0.42084331  0.59628852  0.61369674  1
  H+  H340  1  0.63282559  0.82203346  0.62818233  1
  H+  H341  1  0.17408872  0.37539817  0.58489404  1
  H+  H342  1  0.84555386  0.92622109  0.41458652  1
  H+  H343  1  0.16067719  0.59097410  0.57327393  1
  H+  H344  1  0.58181763  0.91807067  0.39204210  1
  H+  H345  1  0.33893290  0.66256185  0.06635060  1
  H+  H346  1  0.45398959  0.33859047  0.89464905  1
  H+  H347  1  0.38342673  0.07102648  0.22162039  1
  H+  H348  1  0.41617617  0.83003476  0.22398160  1
  H+  H349  1  0.59485451  0.43149899  0.08995634  1
  H+  H350  1  0.78832235  0.68371696  0.72452602  1
  H+  H351  1  0.17283009  0.57866472  0.91570059  1
  H+  H352  1  0.17813279  0.33588476  0.26517044  1
  H+  H353  1  0.08127617  0.17045053  0.74897952  1
  H+  H354  1  0.86314833  0.38478280  0.82315994  1
  H+  H355  1  0.17900482  0.08271699  0.57774147  1
  H+  H356  1  0.49069949  0.11229242  0.66158988  1
  H+  H357  1  0.17320373  0.84678747  0.93169824  1
  H+  H358  1  0.08417676  0.91945202  0.06304960  1
  H+  H359  1  0.21570339  0.62160519  0.51271692  1
  H+  H360  1  0.32879632  0.67183361  0.74118280  1
  H+  H361  1  0.80296278  0.40360667  0.07170162  1
  H+  H362  1  0.23465914  0.36094412  0.17426336  1
  H+  H363  1  0.31827058  0.91316746  0.43978013  1
  H+  H364  1  0.40789313  0.82363214  0.56227104  1
  H+  H365  1  0.95462743  0.10573506  0.49113951  1
  H+  H366  1  0.61562174  0.72211150  0.85411981  1
  H+  H367  1  0.59627467  0.68044062  0.38818963  1
  H+  H368  1  0.08020192  0.40344395  0.42767975  1
  H+  H369  1  0.68581128  0.12301067  0.89205548  1
  H+  H370  1  0.18400264  0.33625693  0.92976200  1
  H+  H371  1  0.77726592  0.13823706  0.82395982  1
  H+  H372  1  0.08527368  0.41557496  0.77390644  1
  H+  H373  1  0.51940536  0.13570517  0.49871077  1
  H+  H374  1  0.63365528  0.55661433  0.61165528  1
  H+  H375  1  0.86519531  0.13141165  0.33958506  1
  H+  H376  1  0.84916000  0.17884147  0.09945416  1
  H+  H377  1  0.80443984  0.40681449  0.43913315  1
  H+  H378  1  0.34004486  0.41082662  0.72416999  1
  H+  H379  1  0.41597019  0.08143536  0.89180150  1
  H+  H380  1  0.92233794  0.83979266  0.63755970  1
  H+  H381  1  0.32142922  0.91958646  0.06767856  1
  H+  H382  1  0.84677515  0.92219699  0.76450234  1
  H+  H383  1  0.65555470  0.07349394  0.60182556  1
  O2-  O384  1  0.08486973  0.16860416  0.14126403  1
  O2-  O385  1  0.13587884  0.22089943  0.47544348  1
  O2-  O386  1  0.07783356  0.16508691  0.83277933  1
  O2-  O387  1  0.10733086  0.42173679  0.14698188  1
  O2-  O388  1  0.05637031  0.38245355  0.46876440  1
  O2-  O389  1  0.08542334  0.41077696  0.81923315  1
  O2-  O390  1  0.08007454  0.66657228  0.13555275  1
  O2-  O391  1  0.08167147  0.67241066  0.47514892  1
  O2-  O392  1  0.08527737  0.68345828  0.81117970  1
  O2-  O393  1  0.07687448  0.91489110  0.14243197  1
  O2-  O394  1  0.09844993  0.91824258  0.48550991  1
  O2-  O395  1  0.09569566  0.92938390  0.80925802  1
  O2-  O396  1  0.32568317  0.15262640  0.11662351  1
  O2-  O397  1  0.34608372  0.18742775  0.48955511  1
  O2-  O398  1  0.36566781  0.18965620  0.79778022  1
  O2-  O399  1  0.33655242  0.42139843  0.14830633  1
  O2-  O400  1  0.29128730  0.36320288  0.48204057  1
  O2-  O401  1  0.33688124  0.40116847  0.79561320  1
  O2-  O402  1  0.32907171  0.66040640  0.14354604  1
  O2-  O403  1  0.33237664  0.67218017  0.46874495  1
  O2-  O404  1  0.32433221  0.68652014  0.82614241  1
  O2-  O405  1  0.32280112  0.90976072  0.13633386  1
  O2-  O406  1  0.32685382  0.91137297  0.48411653  1
  O2-  O407  1  0.32740262  0.92543220  0.80206640  1
  O2-  O408  1  0.54975470  0.17696149  0.14532854  1
  O2-  O409  1  0.58223982  0.17135064  0.48987305  1
  O2-  O410  1  0.58549903  0.16947646  0.80669556  1
  O2-  O411  1  0.59227065  0.43106935  0.13658728  1
  O2-  O412  1  0.58513033  0.41173259  0.47655421  1
  O2-  O413  1  0.59198611  0.41820182  0.78247699  1
  O2-  O414  1  0.55353895  0.61512198  0.12763777  1
  O2-  O415  1  0.65702273  0.68861898  0.45935619  1
  O2-  O416  1  0.59312610  0.66903566  0.82961425  1
  O2-  O417  1  0.59039351  0.89882164  0.15217699  1
  O2-  O418  1  0.57793547  0.91829783  0.47245176  1
  O2-  O419  1  0.55887789  0.92461686  0.81712255  1
  O2-  O420  1  0.86908932  0.19691144  0.14170386  1
  O2-  O421  1  0.82315519  0.16526686  0.48129239  1
  O2-  O422  1  0.83631194  0.16621814  0.80753413  1
  O2-  O423  1  0.81866665  0.42634625  0.13967686  1
  O2-  O424  1  0.80384609  0.40085284  0.48374572  1
  O2-  O425  1  0.83574821  0.41893650  0.80932222  1
  O2-  O426  1  0.83763106  0.66693714  0.21373338  1
  O2-  O427  1  0.80224978  0.63907377  0.46767007  1
  O2-  O428  1  0.84333939  0.66108811  0.82347624  1
  O2-  O429  1  0.83076004  0.91683253  0.15215004  1
  O2-  O430  1  0.84497467  0.91490480  0.46099994  1
  O2-  O431  1  0.85278172  0.91776867  0.80877148  1
  O2-  O432  1  0.16445708  0.07907464  0.17606704  1
  O2-  O433  1  0.18515809  0.07294724  0.53463357  1
  O2-  O434  1  0.15082210  0.07440485  0.84902415  1
  O2-  O435  1  0.17427663  0.32964647  0.19043865  1
  O2-  O436  1  0.18921345  0.40643550  0.54512278  1
  O2-  O437  1  0.18023591  0.33441141  0.84916088  1
  O2-  O438  1  0.16568309  0.58763405  0.18384566  1
  O2-  O439  1  0.15709688  0.59288775  0.52818519  1
  O2-  O440  1  0.16492167  0.57706847  0.86724588  1
  O2-  O441  1  0.15774136  0.82805224  0.17886191  1
  O2-  O442  1  0.16755639  0.83340638  0.52675170  1
  O2-  O443  1  0.17277902  0.84889040  0.85395026  1
  O2-  O444  1  0.39531879  0.06867797  0.17811741  1
  O2-  O445  1  0.41510869  0.08208580  0.52390284  1
  O2-  O446  1  0.42083384  0.08677409  0.84653499  1
  O2-  O447  1  0.43251289  0.36353416  0.18929380  1
  O2-  O448  1  0.40049126  0.33808284  0.54704543  1
  O2-  O449  1  0.44922915  0.33310030  0.84710221  1
  O2-  O450  1  0.40842796  0.57973948  0.19388429  1
  O2-  O451  1  0.33712189  0.55221439  0.53097061  1
  O2-  O452  1  0.43334220  0.56481309  0.85943749  1
  O2-  O453  1  0.41114942  0.82562384  0.17914050  1
  O2-  O454  1  0.40825270  0.82430607  0.51648223  1
  O2-  O455  1  0.41032554  0.85769023  0.84903766  1
  O2-  O456  1  0.66321826  0.07280023  0.18198369  1
  O2-  O457  1  0.65942287  0.08053017  0.52424262  1
  O2-  O458  1  0.66721530  0.09603200  0.85219400  1
  O2-  O459  1  0.66649243  0.34453066  0.17724440  1
  O2-  O460  1  0.64697648  0.32978400  0.53010075  1
  O2-  O461  1  0.66447934  0.33627071  0.84266876  1
  O2-  O462  1  0.66787186  0.57826484  0.19183932  1
  O2-  O463  1  0.65197054  0.56131201  0.52997659  1
  O2-  O464  1  0.67115968  0.59112252  0.86429345  1
  O2-  O465  1  0.68263401  0.84308063  0.20071724  1
  O2-  O466  1  0.68500232  0.85083236  0.49780384  1
  O2-  O467  1  0.71804658  0.86884442  0.92913844  1
  O2-  O468  1  0.92191186  0.08444066  0.18934890  1
  O2-  O469  1  0.94911740  0.13850481  0.52425403  1
  O2-  O470  1  0.91260234  0.08282656  0.84911679  1
  O2-  O471  1  0.94016470  0.36018436  0.15556211  1
  O2-  O472  1  0.90421274  0.33448600  0.50972443  1
  O2-  O473  1  0.91232983  0.33198571  0.84808921  1
  O2-  O474  1  0.91637600  0.58072209  0.17381035  1
  O2-  O475  1  0.91404997  0.57793962  0.49693722  1
  O2-  O476  1  0.91567515  0.57487662  0.86567656  1
  O2-  O477  1  0.91703309  0.84002389  0.19357127  1
  O2-  O478  1  0.88461469  0.79539313  0.50450573  1
  O2-  O479  1  0.93377918  0.84091323  0.84619228  1
  O2-  O480  1  0.10484797  -0.02028295  0.32392702  1
  O2-  O481  1  0.17368222  0.09470982  0.66432673  1
  O2-  O482  1  0.16958099  0.08969663  0.97424211  1
  O2-  O483  1  0.17783368  0.33717433  0.31125161  1
  O2-  O484  1  0.16578655  0.33631485  0.65811246  1
  O2-  O485  1  0.18564798  0.33797923  0.97523922  1
  O2-  O486  1  0.17091331  0.58685938  0.31036847  1
  O2-  O487  1  0.15798434  0.58291425  0.65451578  1
  O2-  O488  1  0.18233328  0.58615531  0.98045190  1
  O2-  O489  1  0.13244825  0.81560714  0.30360981  1
  O2-  O490  1  0.17337863  0.84349157  0.64652694  1
  O2-  O491  1  0.17384705  0.84490596  0.97731921  1
  O2-  O492  1  0.35155812  0.05986016  0.30603923  1
  O2-  O493  1  0.42730409  0.08124023  0.65012506  1
  O2-  O494  1  0.40899374  0.07015341  0.97206865  1
  O2-  O495  1  0.42004209  0.33645612  0.31689939  1
  O2-  O496  1  0.40872033  0.34172539  0.61330542  1
  O2-  O497  1  0.45416541  0.34545984  0.96285540  1
  O2-  O498  1  0.40822471  0.58559221  0.31729614  1
  O2-  O499  1  0.42007027  0.59468098  0.65826084  1
  O2-  O500  1  0.42178973  0.58090007  0.98286954  1
  O2-  O501  1  0.43249029  0.83172523  0.30571584  1
  O2-  O502  1  0.40894658  0.82464799  0.64060596  1
  O2-  O503  1  0.44424126  0.83698527  0.99362987  1
  O2-  O504  1  0.66632718  0.09223014  0.31530003  1
  O2-  O505  1  0.65039195  0.07108475  0.64722661  1
  O2-  O506  1  0.65220736  0.06117435  0.99501573  1
  O2-  O507  1  0.63532187  0.31695525  0.30611313  1
  O2-  O508  1  0.65857137  0.33194725  0.65350349  1
  O2-  O509  1  0.64389733  0.30936486  0.97076786  1
  O2-  O510  1  0.63807721  0.56090676  0.31386404  1
  O2-  O511  1  0.63527815  0.55802486  0.65694469  1
  O2-  O512  1  0.65983458  0.59646303  0.98499098  1
  O2-  O513  1  0.67949392  0.85935993  0.31220704  1
  O2-  O514  1  0.64816939  0.83546524  0.67079538  1
  O2-  O515  1  0.63976993  0.79485273  0.92243044  1
  O2-  O516  1  0.92578106  0.09170809  0.30905228  1
  O2-  O517  1  0.93035581  0.09214539  0.64691908  1
  O2-  O518  1  0.91882261  0.08549148  0.97771248  1
  O2-  O519  1  0.91772987  0.32906063  0.34987171  1
  O2-  O520  1  0.94550896  0.40276779  0.62456286  1
  O2-  O521  1  0.88576488  0.32794464  0.97750588  1
  O2-  O522  1  0.93331809  0.58991232  0.29979419  1
  O2-  O523  1  0.91284005  0.59656144  0.66160785  1
  O2-  O524  1  0.82489093  0.54493125  0.97848340  1
  O2-  O525  1  0.90716412  0.84425792  0.31405379  1
  O2-  O526  1  0.86174798  0.81302535  0.62560073  1
  O2-  O527  1  0.93198282  0.84409524  0.97171369  1
  O2-  O528  1  0.08470235  0.16994560  0.01656398  1
  O2-  O529  1  0.09185605  0.18038395  0.35386481  1
  O2-  O530  1  0.08677168  0.17082937  0.70418879  1
  O2-  O531  1  0.11626655  0.43414189  0.02211572  1
  O2-  O532  1  0.09542589  0.42008003  0.34763071  1
  O2-  O533  1  0.08435038  0.41767090  0.69575943  1
  O2-  O534  1  0.09630094  0.66350266  0.01102576  1
  O2-  O535  1  0.08566250  0.66227035  0.35393606  1
  O2-  O536  1  0.07848484  0.67664320  0.69112511  1
  O2-  O537  1  0.09081686  0.92296036  0.01780465  1
  O2-  O538  1  0.05884191  0.89771084  0.35718972  1
  O2-  O539  1  0.17055827  0.96517897  0.71288913  1
  O2-  O540  1  0.34308003  0.16822964  -0.00010393  1
  O2-  O541  1  0.31810309  0.16927138  0.35858546  1
  O2-  O542  1  0.34896370  0.19206716  0.66429221  1
  O2-  O543  1  0.35095158  0.41321099  0.02194570  1
  O2-  O544  1  0.33759146  0.42149189  0.36125459  1
  O2-  O545  1  0.33612351  0.41727291  0.67817800  1
  O2-  O546  1  0.34419896  0.66663316  0.02094351  1
  O2-  O547  1  0.34370796  0.67557938  0.35827093  1
  O2-  O548  1  0.32752222  0.66769503  0.69634366  1
  O2-  O549  1  0.32214398  0.92257887  0.02031552  1
  O2-  O550  1  0.28695322  0.90860824  0.35878947  1
  O2-  O551  1  0.33590519  0.91329297  0.68103784  1
  O2-  O552  1  0.56438214  0.14634833  0.01894596  1
  O2-  O553  1  0.67298475  0.22511650  0.37774245  1
  O2-  O554  1  0.58652631  0.16558988  0.68634021  1
  O2-  O555  1  0.59870587  0.43406819  0.01661018  1
  O2-  O556  1  0.58699984  0.41500109  0.36387338  1
  O2-  O557  1  0.57075743  0.39557165  0.71776805  1
  O2-  O558  1  0.58621916  0.68286469  0.01528724  1
  O2-  O559  1  0.57801458  0.70102551  0.35304548  1
  O2-  O560  1  0.58079867  0.66570920  0.70684164  1
  O2-  O561  1  0.61108195  0.91519141  0.03465761  1
  O2-  O562  1  0.58424880  0.91996660  0.34681941  1
  O2-  O563  1  0.56373625  0.91589474  0.69668557  1
  O2-  O564  1  0.82596312  0.16259992  0.01960673  1
  O2-  O565  1  0.82984747  0.15485105  0.35737380  1
  O2-  O566  1  0.78567905  0.08693034  0.69808689  1
  O2-  O567  1  0.79265134  0.39360433  0.02509075  1
  O2-  O568  1  0.87440547  0.45107069  0.36918578  1
  O2-  O569  1  0.82856198  0.42366459  0.68578814  1
  O2-  O570  1  0.82014637  0.67888570  0.02683697  1
  O2-  O571  1  0.81360422  0.67353650  0.33796066  1
  O2-  O572  1  0.79531875  0.66311642  0.68507560  1
  O2-  O573  1  0.80709626  0.87095206  0.02273706  1
  O2-  O574  1  0.83465757  0.93204724  0.34780148  1
  O2-  O575  1  0.82753797  0.92678604  0.68305837  1
