# generated using pymatgen
data_H2O
_symmetry_space_group_name_H-M   'P 1'
_cell_length_a   17.99284707
_cell_length_b   17.98486725
_cell_length_c   22.00174273
_cell_angle_alpha   89.99037699
_cell_angle_beta   89.99709135
_cell_angle_gamma   119.98249912
_symmetry_Int_Tables_number   1
_chemical_formula_structural   H2O
_chemical_formula_sum   'H384 O192'
_cell_volume   6166.96364905
_cell_formula_units_Z   192
loop_
 _symmetry_equiv_pos_site_id
 _symmetry_equiv_pos_as_xyz
  1  'x, y, z'
loop_
 _atom_type_symbol
 _atom_type_oxidation_number
  H+  1.0
  O2-  -2.0
loop_
 _atom_site_type_symbol
 _atom_site_label
 _atom_site_symmetry_multiplicity
 _atom_site_fract_x
 _atom_site_fract_y
 _atom_site_fract_z
 _atom_site_occupancy
  H+  H0  1  0.14040147  0.24036271  0.32186196  1
  H+  H1  1  0.36240296  0.63435350  0.83491342  1
  H+  H2  1  0.46353881  0.59857780  0.99655872  1
  H+  H3  1  0.88067855  0.90343517  0.83190864  1
  H+  H4  1  0.14253886  0.31782146  0.56439580  1
  H+  H5  1  0.34421403  0.66673936  0.77201518  1
  H+  H6  1  0.71247389  0.60147138  0.84365382  1
  H+  H7  1  0.61203212  0.96940374  0.66759679  1
  H+  H8  1  0.15105173  0.44889742  0.31936994  1
  H+  H9  1  0.62526968  0.76539501  0.51166575  1
  H+  H10  1  0.02808463  0.37582443  0.15810102  1
  H+  H11  1  0.89538219  0.35173882  0.33372208  1
  H+  H12  1  0.87061156  0.22264716  -0.00555713  1
  H+  H13  1  0.63503628  0.85862975  0.66150035  1
  H+  H14  1  0.11362758  0.21849204  0.15531986  1
  H+  H15  1  0.14704036  0.78944740  0.82844161  1
  H+  H16  1  0.70610133  0.33559026  1.00637821  1
  H+  H17  1  0.11829845  0.89097612  0.99607777  1
  H+  H18  1  0.22408144  0.94745734  0.30847255  1
  H+  H19  1  0.38676259  0.27010794  0.16908384  1
  H+  H20  1  0.86913834  0.98820626  0.67389593  1
  H+  H21  1  0.68601454  0.57907403  0.65260209  1
  H+  H22  1  0.37576289  0.50523205  0.32275673  1
  H+  H23  1  0.97894992  0.86260762  0.51607950  1
  H+  H24  1  0.87035760  0.45344883  0.33667546  1
  H+  H25  1  0.62742274  0.60987936  0.84655774  1
  H+  H26  1  0.62339368  0.50989772  0.33471566  1
  H+  H27  1  0.38209209  0.62559163  0.68857875  1
  H+  H28  1  0.36877718  0.13303638  1.00382040  1
  H+  H29  1  0.90078053  0.11205480  0.33113957  1
  H+  H30  1  0.60329173  0.21861196  0.15614435  1
  H+  H31  1  0.67180532  0.36329663  0.85025960  1
  H+  H32  1  0.67257331  0.92686911  0.81882737  1
  H+  H33  1  0.37369389  0.12994353  0.34068007  1
  H+  H34  1  0.87659735  0.59543881  0.82624649  1
  H+  H35  1  0.60961815  0.37551914  0.33709551  1
  H+  H36  1  0.29692704  0.88960553  0.33889386  1
  H+  H37  1  0.61115029  0.72033120  0.83355396  1
  H+  H38  1  0.89564540  0.36227106  0.18152494  1
  H+  H39  1  0.85027658  0.70613148  0.82049473  1
  H+  H40  1  0.87280562  0.60578055  0.50850292  1
  H+  H41  1  0.02892526  0.14923261  0.66585504  1
  H+  H42  1  0.09539770  0.63701753  0.20373809  1
  H+  H43  1  0.98298551  0.70278231  0.97097648  1
  H+  H44  1  0.90683241  0.11550258  0.98408527  1
  H+  H45  1  0.37062459  0.98878953  0.15499328  1
  H+  H46  1  0.61607901  0.47289680  0.48802323  1
  H+  H47  1  0.36937014  0.72438929  0.00445736  1
  H+  H48  1  0.14202314  0.91966986  0.82899081  1
  H+  H49  1  0.88599175  0.46902779  0.95422099  1
  H+  H50  1  0.52372229  0.88086438  0.66323261  1
  H+  H51  1  0.09219882  0.64925990  0.66672148  1
  H+  H52  1  0.62714844  0.36806416  0.49263249  1
  H+  H53  1  0.17140265  0.59508039  0.69488511  1
  H+  H54  1  0.64638540  0.14010823  0.83882042  1
  H+  H55  1  0.14906031  0.27411812  0.65460983  1
  H+  H56  1  0.00626315  0.89012440  0.67454882  1
  H+  H57  1  0.02958903  0.63965870  0.82485778  1
  H+  H58  1  0.14543477  0.11061264  0.17926221  1
  H+  H59  1  0.63840508  0.60528754  0.18003121  1
  H+  H60  1  0.11902816  0.37450490  0.67087862  1
  H+  H61  1  0.89161737  0.22464197  0.35772889  1
  H+  H62  1  0.95159491  0.83860561  0.89727142  1
  H+  H63  1  0.02237278  0.66057565  0.20621937  1
  H+  H64  1  0.93370538  0.56002714  0.98334731  1
  H+  H65  1  0.98973923  0.36164141  0.33072341  1
  H+  H66  1  0.85906855  0.72879329  0.51048481  1
  H+  H67  1  0.05597439  0.27785288  0.52666927  1
  H+  H68  1  0.39732615  0.77615860  0.50400466  1
  H+  H69  1  0.47347950  0.35521817  -0.00296665  1
  H+  H70  1  0.27997641  0.38345499  0.15439956  1
  H+  H71  1  0.10172121  0.73106948  0.33054914  1
  H+  H72  1  0.83020394  0.43818175  0.04169792  1
  H+  H73  1  0.52855901  0.14015248  0.67357650  1
  H+  H74  1  0.26720234  0.12397158  0.49089856  1
  H+  H75  1  0.37223593  0.50664640  1.00091860  1
  H+  H76  1  0.64196572  0.73859797  0.68080436  1
  H+  H77  1  0.29608268  0.62500994  0.67849113  1
  H+  H78  1  0.11186590  0.21633519  0.48323632  1
  H+  H79  1  0.64738708  0.86230459  -0.00936447  1
  H+  H80  1  0.88429257  0.26992345  0.84099536  1
  H+  H81  1  0.14055148  0.39660828  0.48617091  1
  H+  H82  1  0.16370061  0.70201919  0.04659749  1
  H+  H83  1  0.51757525  0.38064716  0.15928108  1
  H+  H84  1  0.51337766  0.62514037  0.50220370  1
  H+  H85  1  0.71699649  0.61657206  0.99988416  1
  H+  H86  1  0.27476522  0.88394341  0.49673111  1
  H+  H87  1  0.30072032  0.14201330  0.80621024  1
  H+  H88  1  0.13055531  0.01272400  0.99940819  1
  H+  H89  1  0.60579646  0.37610326  0.68204540  1
  H+  H90  1  0.13245860  0.01576692  0.50554566  1
  H+  H91  1  1.08532905  0.13471735  0.82103618  1
  H+  H92  1  0.87949012  0.90590782  0.67655045  1
  H+  H93  1  0.23810521  0.60281792  -0.01238318  1
  H+  H94  1  0.86986036  0.23143364  0.17895177  1
  H+  H95  1  0.96295685  0.62933962  0.66730901  1
  H+  H96  1  0.15194382  0.50488208  0.67034526  1
  H+  H97  1  0.64386099  0.74280131  0.15831478  1
  H+  H98  1  0.88376417  0.65134560  0.30361553  1
  H+  H99  1  0.53751633  0.15198603  0.82884973  1
  H+  H100  1  0.36746297  0.21572333  0.33683662  1
  H+  H101  1  0.29247944  0.64570030  0.50108182  1
  H+  H102  1  0.57993709  0.41136141  0.10050727  1
  H+  H103  1  0.85604364  0.14164433  0.83353377  1
  H+  H104  1  0.37002788  0.13564522  0.16235211  1
  H+  H105  1  0.07611863  0.90788070  0.43951236  1
  H+  H106  1  0.91668653  0.80828235  0.69056019  1
  H+  H107  1  0.51002701  0.36105150  0.68533756  1
  H+  H108  1  0.60288704  0.62820474  0.00475953  1
  H+  H109  1  0.37496414  0.37965674  0.49633307  1
  H+  H110  1  0.11547510  0.11979074  0.01278023  1
  H+  H111  1  0.98201508  0.09882067  0.32360654  1
  H+  H112  1  0.11646197  0.14370902  0.66552434  1
  H+  H113  1  0.72084697  0.35993373  0.49714789  1
  H+  H114  1  0.40425457  0.11832656  0.83325318  1
  H+  H115  1  0.11780698  0.11147637  0.33685003  1
  H+  H116  1  0.86317392  0.48584126  0.67529905  1
  H+  H117  1  0.39099524  0.86255334  0.50754875  1
  H+  H118  1  0.61731591  0.22283453  0.34143336  1
  H+  H119  1  0.85737373  0.89039564  0.35454618  1
  H+  H120  1  0.24053818  0.87611666  0.97976637  1
  H+  H121  1  0.39071036  0.76977279  0.65994541  1
  H+  H122  1  0.38461379  0.34941867  0.32326968  1
  H+  H123  1  0.13691096  0.32742209  0.32471564  1
  H+  H124  1  0.01015977  0.86567153  0.15212923  1
  H+  H125  1  -0.02249083  0.68561055  0.00299321  1
  H+  H126  1  0.17734086  0.54025880  0.51610185  1
  H+  H127  1  0.15619886  0.61141594  0.98243807  1
  H+  H128  1  0.92205701  0.89637475  0.92743955  1
  H+  H129  1  0.38529382  0.35951429  0.16668044  1
  H+  H130  1  0.36035576  0.30653702  0.68159375  1
  H+  H131  1  0.38864226  0.02191138  0.50706056  1
  H+  H132  1  0.83004324  0.39997753  0.39894580  1
  H+  H133  1  0.59659233  0.62306919  0.34603620  1
  H+  H134  1  0.72599328  0.35435345  0.32412250  1
  H+  H135  1  0.87223099  0.49122673  0.17203094  1
  H+  H136  1  0.71962670  0.36715314  0.67170445  1
  H+  H137  1  0.36659728  0.63232907  0.00576029  1
  H+  H138  1  0.56635831  0.65425618  0.43917065  1
  H+  H139  1  0.85871291  0.94492542  0.44424941  1
  H+  H140  1  0.36899199  0.20043683  0.72691550  1
  H+  H141  1  0.88500217  0.38252911  0.82539795  1
  H+  H142  1  0.17644004  0.07306327  0.26847830  1
  H+  H143  1  0.86490516  0.78175279  0.33530572  1
  H+  H144  1  0.10493253  0.88010966  0.15067967  1
  H+  H145  1  0.87541204  0.02600117  0.83935294  1
  H+  H146  1  0.27149668  0.36382742  0.33984461  1
  H+  H147  1  0.71949815  0.10623661  0.66673872  1
  H+  H148  1  0.58117240  0.66635731  0.06248709  1
  H+  H149  1  0.74469657  0.64982577  0.35790729  1
  H+  H150  1  0.02118411  0.12660973  0.00161710  1
  H+  H151  1  0.88111994  0.75710709  0.18115586  1
  H+  H152  1  0.38911992  0.50404662  0.16568090  1
  H+  H153  1  0.63511526  0.27586108  0.66882562  1
  H+  H154  1  0.27652861  0.12809531  1.01108564  1
  H+  H155  1  0.81537460  0.38982768  0.21593755  1
  H+  H156  1  -0.02887445  0.35281585  0.46712385  1
  H+  H157  1  0.85735156  0.21508577  0.68249093  1
  H+  H158  1  0.61392423  -0.02442517  0.99968351  1
  H+  H159  1  0.87172731  -0.01216591  0.16099833  1
  H+  H160  1  0.13528597  0.90952385  0.67775086  1
  H+  H161  1  0.11051913  0.50538380  0.17954031  1
  H+  H162  1  0.53933066  0.89020499  0.16071568  1
  H+  H163  1  0.98783297  0.36181953  0.67491363  1
  H+  H164  1  0.60838872  0.63531175  0.67415002  1
  H+  H165  1  0.11418700  0.88332973  0.49760612  1
  H+  H166  1  0.23413643  0.09789715  0.32992409  1
  H+  H167  1  0.11672842  0.65343029  0.34251488  1
  H+  H168  1  0.13263958  0.10462061  0.49922440  1
  H+  H169  1  0.12299995  0.53840518  0.35128828  1
  H+  H170  1  0.11939405  0.37969663  0.00185440  1
  H+  H171  1  0.65352274  0.57089951  0.27676412  1
  H+  H172  1  0.20006448  0.17351349  0.86231660  1
  H+  H173  1  0.80381823  0.71720650  0.65068821  1
  H+  H174  1  0.28101016  0.68767456  0.15751460  1
  H+  H175  1  0.08825187  0.40851098  0.09859723  1
  H+  H176  1  0.62708835  0.89199601  0.15590691  1
  H+  H177  1  0.68913054  0.70447710  0.11935788  1
  H+  H178  1  0.37959501  0.87760661  0.34795807  1
  H+  H179  1  0.86841759  0.61632784  0.66192402  1
  H+  H180  1  0.01238478  0.64398573  0.49362511  1
  H+  H181  1  0.38908871  0.51531791  0.50460627  1
  H+  H182  1  0.35425166  0.70439198  0.33825669  1
  H+  H183  1  0.23631726  0.87368014  0.66179131  1
  H+  H184  1  0.68015117  0.01718808  0.81983540  1
  H+  H185  1  0.89139455  0.64538384  0.33632798  1
  H+  H186  1  0.15693526  0.26444807  0.83846409  1
  H+  H187  1  0.73058549  0.84997575  0.83969670  1
  H+  H188  1  0.36958289  0.98000416  0.66968706  1
  H+  H189  1  0.86112410  0.97860633  0.35139084  1
  H+  H190  1  0.08123338  0.43389614  0.47140654  1
  H+  H191  1  0.33978400  0.16172480  0.10130586  1
  H+  H192  1  0.61835527  0.11122390  0.99042379  1
  H+  H193  1  0.85360089  0.46171991  0.49753399  1
  H+  H194  1  0.23388670  0.86974150  0.16873264  1
  H+  H195  1  0.48080926  0.86281730  0.99267779  1
  H+  H196  1  0.87037112  0.39977243  0.67155958  1
  H+  H197  1  0.16318131  0.07122443  0.84507789  1
  H+  H198  1  0.24091217  0.36834705  0.99935348  1
  H+  H199  1  0.89235364  0.11407280  0.18027607  1
  H+  H200  1  0.35900565  0.38985458  0.01006025  1
  H+  H201  1  0.11931460  0.64063717  0.82372673  1
  H+  H202  1  0.35328402  0.48662658  0.81895770  1
  H+  H203  1  0.73542634  0.87295211  0.17206386  1
  H+  H204  1  0.43132981  0.76737524  0.17846941  1
  H+  H205  1  1.12001484  0.46864758  1.00112836  1
  H+  H206  1  0.60412359  0.47242360  0.83425902  1
  H+  H207  1  0.71567249  0.35438986  0.17194501  1
  H+  H208  1  0.22999986  0.61476592  0.83290025  1
  H+  H209  1  0.14070600  0.79138479  0.66463011  1
  H+  H210  1  0.48056747  0.11058379  0.17131369  1
  H+  H211  1  0.75362646  0.13213166  0.35598175  1
  H+  H212  1  0.66069661  0.82447751  0.57041462  1
  H+  H213  1  0.28816919  0.38705539  0.80771369  1
  H+  H214  1  0.61646249  0.13862218  0.67538454  1
  H+  H215  1  0.35648884  0.48385781  0.72091363  1
  H+  H216  1  0.38162237  0.60140370  0.51137946  1
  H+  H217  1  0.42278726  0.07698077  0.23293191  1
  H+  H218  1  0.11767766  0.47712767  0.82058899  1
  H+  H219  1  0.15207660  0.27608478  0.99680627  1
  H+  H220  1  1.02334757  0.12976877  0.16008947  1
  H+  H221  1  0.23454128  0.66149396  0.16693900  1
  H+  H222  1  0.56409572  0.92280789  0.35144024  1
  H+  H223  1  0.62331002  0.76073301  0.32344811  1
  H+  H224  1  0.15078454  0.74401798  -0.01167370  1
  H+  H225  1  0.62695299  0.60276991  0.50348128  1
  H+  H226  1  0.86711634  0.69695259  0.01564471  1
  H+  H227  1  0.06430021  0.93685130  0.83723076  1
  H+  H228  1  0.88894921  0.35229566  0.00669314  1
  H+  H229  1  0.61124848  0.46522853  0.00877652  1
  H+  H230  1  0.61706799  0.25238457  0.99375336  1
  H+  H231  1  0.50860828  0.62368031  0.34206869  1
  H+  H232  1  0.39015802  0.86258258  0.84309285  1
  H+  H233  1  0.72920360  0.86751115  0.66355927  1
  H+  H234  1  0.49011046  0.11046685  0.32838468  1
  H+  H235  1  0.96173916  0.85981204  0.33161348  1
  H+  H236  1  0.97294354  0.31192528  0.46437497  1
  H+  H237  1  0.37426874  0.98252604  0.82576708  1
  H+  H238  1  0.76799555  0.63922083  0.50608433  1
  H+  H239  1  0.10037982  0.87750946  0.34470461  1
  H+  H240  1  0.38521231  0.26687349  0.99907955  1
  H+  H241  1  0.63300416  0.76705663  -0.00938448  1
  H+  H242  1  0.35713994  0.51620064  0.59871284  1
  H+  H243  1  0.38270097  0.23475604  0.82736643  1
  H+  H244  1  0.24047921  0.87586323  0.82871783  1
  H+  H245  1  0.62585470  0.50960975  0.17816387  1
  H+  H246  1  0.02154884  0.13519624  0.48433367  1
  H+  H247  1  0.71296425  0.11092760  0.19453547  1
  H+  H248  1  0.60867106  0.37324050  1.00983203  1
  H+  H249  1  0.13963614  0.35245123  0.17094950  1
  H+  H250  1  0.98230787  0.36163383  0.99470553  1
  H+  H251  1  0.16135983  0.08658358  0.94614839  1
  H+  H252  1  0.47908683  0.80442440  0.34708135  1
  H+  H253  1  0.48937593  0.12050484  -0.01212398  1
  H+  H254  1  0.64761136  0.85892091  0.32808604  1
  H+  H255  1  0.62535171  0.26695396  0.49675685  1
  H+  H256  1  0.23766936  0.11826712  0.17832096  1
  H+  H257  1  0.52196757  0.13975737  0.49443900  1
  H+  H258  1  0.35095736  0.25099267  0.51520179  1
  H+  H259  1  0.87954812  0.47912652  0.82154842  1
  H+  H260  1  0.63627301  0.11243657  0.51368033  1
  H+  H261  1  0.77138585  0.15245248  0.83413989  1
  H+  H262  1  0.60171746  0.48852239  0.65733378  1
  H+  H263  1  0.93193676  0.33332722  0.23837761  1
  H+  H264  1  0.23205872  0.37195454  0.64039698  1
  H+  H265  1  0.89101391  0.92532010  0.50784741  1
  H+  H266  1  0.83875374  0.36462047  0.50346765  1
  H+  H267  1  0.39830430  0.12476690  0.65477750  1
  H+  H268  1  0.85467697  0.23591695  0.52826008  1
  H+  H269  1  0.71081292  0.11081311  -0.01257628  1
  H+  H270  1  0.53291442  0.89034892  0.49806867  1
  H+  H271  1  0.94698213  0.57990776  0.13926401  1
  H+  H272  1  0.98496590  0.59036332  0.31702205  1
  H+  H273  1  0.47362164  0.35156144  0.84715747  1
  H+  H274  1  0.37158814  0.89070791  0.99858179  1
  H+  H275  1  0.83276804  0.80732136  1.01072646  1
  H+  H276  1  0.96238050  0.11606204  0.83033220  1
  H+  H277  1  0.84183455  0.92879212  0.05080248  1
  H+  H278  1  0.85009047  0.41776026  0.75869255  1
  H+  H279  1  0.08537747  0.14600360  0.39317699  1
  H+  H280  1  0.39423397  0.03212156  0.98241333  1
  H+  H281  1  0.59243196  0.91825944  0.05969544  1
  H+  H282  1  0.14560919  1.04253630  0.65839599  1
  H+  H283  1  0.14689722  0.78470643  0.19341896  1
  H+  H284  1  0.09348108  0.40655687  0.73423237  1
  H+  H285  1  0.10664168  0.96698856  0.34410012  1
  H+  H286  1  0.41473558  0.64658141  0.15116770  1
  H+  H287  1  0.40482861  1.01961103  0.33013024  1
  H+  H288  1  0.40760844  0.57405893  0.90625881  1
  H+  H289  1  0.57081067  0.15319321  0.05319499  1
  H+  H290  1  0.82597957  0.15753159  0.74170844  1
  H+  H291  1  0.33394512  0.41543091  0.08827697  1
  H+  H292  1  0.07203501  0.68087602  0.43534344  1
  H+  H293  1  0.60855950  0.92540388  0.41489809  1
  H+  H294  1  0.42639174  0.08954558  0.89702651  1
  H+  H295  1  0.91759528  0.09991943  0.60089785  1
  H+  H296  1  0.37720309  0.30103316  0.57791367  1
  H+  H297  1  0.76059486  0.61580120  0.16901657  1
  H+  H298  1  0.66305677  0.32607824  0.26538979  1
  H+  H299  1  0.92323156  0.08053566  0.23689636  1
  H+  H300  1  0.58229907  0.40979452  0.42886903  1
  H+  H301  1  0.66844679  0.83204794  0.22966684  1
  H+  H302  1  0.33912629  0.66024788  0.43621255  1
  H+  H303  1  0.38686880  0.77280798  0.84458450  1
  H+  H304  1  0.13196728  0.55497964  0.24377834  1
  H+  H305  1  0.83916162  0.14792059  0.04308423  1
  H+  H306  1  0.48428409  0.58394286  0.17662937  1
  H+  H307  1  0.17996370  0.84677551  0.92062512  1
  H+  H308  1  0.51737618  0.37045966  0.33615206  1
  H+  H309  1  0.33864821  0.91290514  0.43917834  1
  H+  H310  1  0.34468918  0.92364871  0.76541557  1
  H+  H311  1  0.72743075  0.69330409  0.69705222  1
  H+  H312  1  0.37733369  0.90666111  0.13762950  1
  H+  H313  1  0.47009612  0.60853391  0.84754284  1
  H+  H314  1  0.19669320  0.87217095  0.26129967  1
  H+  H315  1  0.41125109  0.31339676  0.90508883  1
  H+  H316  1  0.62959521  0.14078648  0.35203724  1
  H+  H317  1  0.07472177  0.90505366  0.05517630  1
  H+  H318  1  0.81946345  0.37728766  0.09529311  1
  H+  H319  1  0.63553513  0.02372361  0.17009012  1
  H+  H320  1  0.93809038  0.08881612  0.92611153  1
  H+  H321  1  0.04713200  0.68486264  0.09776396  1
  H+  H322  1  0.89868793  0.05312016  0.50436743  1
  H+  H323  1  0.84835085  0.61427428  0.15792838  1
  H+  H324  1  0.42164166  0.08598228  0.59799647  1
  H+  H325  1  0.33777403  0.92732038  0.05216503  1
  H+  H326  1  0.16906430  0.31543326  0.22746770  1
  H+  H327  1  0.80988880  0.16413943  0.12977791  1
  H+  H328  1  0.62760184  0.35728568  0.17076093  1
  H+  H329  1  0.40918772  0.56495683  0.26333942  1
  H+  H330  1  0.19705030  0.58926116  0.57890261  1
  H+  H331  1  0.61896812  0.88399575  0.50300227  1
  H+  H332  1  0.92938885  0.84368061  0.57876020  1
  H+  H333  1  0.17121797  0.83871523  0.56667011  1
  H+  H334  1  0.34922059  0.61328583  0.33445712  1
  H+  H335  1  0.33287528  0.15875907  0.43426408  1
  H+  H336  1  0.38449188  0.10913876  0.50559513  1
  H+  H337  1  0.17149323  0.58046161  0.89170172  1
  H+  H338  1  0.41890298  0.83261418  0.93409284  1
  H+  H339  1  0.91146291  0.82493468  0.23516138  1
  H+  H340  1  0.03167734  0.38694683  0.82430493  1
  H+  H341  1  0.36621378  0.88821452  0.66978771  1
  H+  H342  1  0.44986112  0.45336850  0.45815099  1
  H+  H343  1  0.66349614  0.08360975  0.60532860  1
  H+  H344  1  0.80866415  0.65839686  0.76002108  1
  H+  H345  1  0.22066361  0.60886045  0.33612586  1
  H+  H346  1  0.66497235  0.09830016  0.89884261  1
  H+  H347  1  0.07877622  0.67405251  0.73447571  1
  H+  H348  1  0.89989144  0.56247669  0.88696387  1
  H+  H349  1  0.11352323  0.94795567  0.73777546  1
  H+  H350  1  0.64020290  0.02593554  0.51483829  1
  H+  H351  1  0.03627020  0.72008009  0.10056415  1
  H+  H352  1  0.44806150  0.81665908  0.28117859  1
  H+  H353  1  0.66940707  0.04313183  0.35249237  1
  H+  H354  1  0.57756128  0.41252947  0.77455679  1
  H+  H355  1  0.64457740  0.56054399  0.56153453  1
  H+  H356  1  0.92792361  0.55009761  0.25774539  1
  H+  H357  1  0.20380133  0.31119754  0.89910182  1
  H+  H358  1  0.12808939  0.42406827  0.38983972  1
  H+  H359  1  0.67028882  0.82522382  0.89802051  1
  H+  H360  1  0.38712607  0.68695063  0.09581576  1
  H+  H361  1  0.88629304  0.11618335  0.66500709  1
  H+  H362  1  0.58347599  0.16783267  0.43514182  1
  H+  H363  1  0.41373097  0.32255945  0.26237321  1
  H+  H364  1  0.59345424  0.18290829  0.76938297  1
  H+  H365  1  0.84233820  0.92129966  0.77008120  1
  H+  H366  1  0.81945278  0.67978190  0.07854279  1
  H+  H367  1  0.60502802  0.13028964  0.15803925  1
  H+  H368  1  0.87651479  0.16330318  0.41664145  1
  H+  H369  1  0.66026489  0.57906890  0.93936840  1
  H+  H370  1  0.77910554  0.84641584  0.98201625  1
  H+  H371  1  0.91454861  0.33161124  0.72230932  1
  H+  H372  1  0.07232717  0.16925460  0.75691442  1
  H+  H373  1  0.16398257  0.09190647  0.59536646  1
  H+  H374  1  0.80880143  0.68565962  0.41508019  1
  H+  H375  1  0.41334818  0.82679569  0.59926578  1
  H+  H376  1  0.58712167  0.66115856  0.77548956  1
  H+  H377  1  0.13311314  0.77514592  0.50820408  1
  H+  H378  1  0.07792461  0.15332109  0.07289948  1
  H+  H379  1  0.34171584  0.40517479  0.39541120  1
  H+  H380  1  0.90450499  0.57668157  0.56558395  1
  H+  H381  1  0.86509364  0.29287383  0.58491190  1
  H+  H382  1  0.39487985  0.82767745  0.20153678  1
  H+  H383  1  0.91762145  0.33593301  0.89924951  1
  O2-  O384  1  0.08179810  0.15717843  0.14072147  1
  O2-  O385  1  0.08164256  0.15600813  0.46889359  1
  O2-  O386  1  0.06116136  0.16767366  0.80190735  1
  O2-  O387  1  0.08902869  0.40691797  0.14399725  1
  O2-  O388  1  0.13984103  0.44584787  0.46402217  1
  O2-  O389  1  0.08911926  0.41676979  0.80558793  1
  O2-  O390  1  0.08349654  0.68419131  0.21462499  1
  O2-  O391  1  0.07244246  0.68106827  0.48029589  1
  O2-  O392  1  0.08866758  0.67115021  0.80815497  1
  O2-  O393  1  0.06491622  0.89216592  0.12831138  1
  O2-  O394  1  0.07983800  0.91087798  0.48485170  1
  O2-  O395  1  0.12053145  0.95985450  0.81753266  1
  O2-  O396  1  0.34040620  0.16620960  0.14687690  1
  O2-  O397  1  0.32968389  0.15636768  0.47955505  1
  O2-  O398  1  0.36182692  0.17860218  0.79902956  1
  O2-  O399  1  0.33952811  0.41435417  0.13861457  1
  O2-  O400  1  0.38908538  0.42981234  0.46726023  1
  O2-  O401  1  0.32555449  0.44203132  0.78688387  1
  O2-  O402  1  0.42126490  0.70076155  0.13418882  1
  O2-  O403  1  0.35051707  0.66998411  0.48036441  1
  O2-  O404  1  0.33347867  0.66485795  0.81660096  1
  O2-  O405  1  0.33884238  0.92975863  0.13413014  1
  O2-  O406  1  0.33685520  0.91453527  0.48431870  1
  O2-  O407  1  0.34045728  0.92137573  0.81065096  1
  O2-  O408  1  0.57195599  0.15795200  0.14208955  1
  O2-  O409  1  0.58332260  0.17344738  0.48075826  1
  O2-  O410  1  0.59746049  0.18840621  0.81439076  1
  O2-  O411  1  0.57960428  0.41210091  0.14658799  1
  O2-  O412  1  0.58652406  0.41127988  0.47442657  1
  O2-  O413  1  0.57502975  0.41174747  0.81990113  1
  O2-  O414  1  0.63359380  0.68691718  0.13814678  1
  O2-  O415  1  0.57204058  0.65337327  0.48442627  1
  O2-  O416  1  0.57720567  0.65803588  0.82000240  1
  O2-  O417  1  0.59593223  0.92152883  0.14061113  1
  O2-  O418  1  0.59425410  0.91999549  0.48555501  1
  O2-  O419  1  0.70378596  0.98409650  0.80052871  1
  O2-  O420  1  0.83440071  0.16752733  0.16972431  1
  O2-  O421  1  0.89313905  0.16465349  0.49271468  1
  O2-  O422  1  0.83378749  0.17929496  0.81791125  1
  O2-  O423  1  0.83183926  0.40321764  0.17335748  1
  O2-  O424  1  0.82114570  0.40187796  0.48123018  1
  O2-  O425  1  0.85936527  0.41867064  0.80498380  1
  O2-  O426  1  0.81825669  0.64715613  0.14903641  1
  O2-  O427  1  0.82974652  0.66908619  0.49380036  1
  O2-  O428  1  0.82107675  0.64908979  0.80237591  1
  O2-  O429  1  0.83581753  0.93189710  0.13823949  1
  O2-  O430  1  0.87427017  0.96401806  0.48837508  1
  O2-  O431  1  0.83891573  0.91840525  0.81546470  1
  O2-  O432  1  0.18060617  0.08938980  0.19864621  1
  O2-  O433  1  0.16502152  0.07812965  0.51690774  1
  O2-  O434  1  0.15664859  0.11293664  0.87049632  1
  O2-  O435  1  0.16887364  0.31949105  0.18233232  1
  O2-  O436  1  0.11842750  0.30822475  0.52139347  1
  O2-  O437  1  0.21348144  0.29253933  0.85870113  1
  O2-  O438  1  0.11472763  0.55554642  0.20151418  1
  O2-  O439  1  0.20064066  0.59751126  0.53451147  1
  O2-  O440  1  0.16793965  0.58533995  0.84647568  1
  O2-  O441  1  0.18005672  0.84928402  0.19209585  1
  O2-  O442  1  0.17094832  0.83728818  0.52148136  1
  O2-  O443  1  0.17812673  0.84992622  0.84217323  1
  O2-  O444  1  0.41887765  0.07814608  0.18774731  1
  O2-  O445  1  0.41918997  0.08310955  0.52075745  1
  O2-  O446  1  0.42799251  0.08382622  0.85108932  1
  O2-  O447  1  0.41569501  0.33049807  0.18508764  1
  O2-  O448  1  0.35443393  0.30105567  0.53729956  1
  O2-  O449  1  0.41295166  0.31207956  0.85952829  1
  O2-  O450  1  0.42432874  0.56436778  0.18590590  1
  O2-  O451  1  0.40411785  0.56616302  0.53082719  1
  O2-  O452  1  0.40904946  0.58048117  0.86068472  1
  O2-  O453  1  0.44427222  0.81986344  0.20640359  1
  O2-  O454  1  0.42421998  0.83496365  0.52198438  1
  O2-  O455  1  0.41714828  0.83176527  0.86164033  1
  O2-  O456  1  0.65055565  0.07996191  0.18881119  1
  O2-  O457  1  0.66557886  0.08446332  0.53253547  1
  O2-  O458  1  0.67855354  0.11088088  0.85454130  1
  O2-  O459  1  0.65510276  0.32407902  0.18643260  1
  O2-  O460  1  0.65759056  0.33184208  0.50836723  1
  O2-  O461  1  0.70812956  0.42468665  0.83927201  1
  O2-  O462  1  0.65865253  0.56788810  0.19804217  1
  O2-  O463  1  0.65849040  0.57267765  0.51711735  1
  O2-  O464  1  0.65578420  0.57751025  0.86297981  1
  O2-  O465  1  0.67373461  0.83622426  0.18367336  1
  O2-  O466  1  0.65553175  0.82569494  0.52554292  1
  O2-  O467  1  0.66953161  0.81991201  0.85277898  1
  O2-  O468  1  0.92417656  0.08369454  0.19066761  1
  O2-  O469  1  0.93160391  0.11723934  0.51999772  1
  O2-  O470  1  0.90762907  0.08651287  0.85435706  1
  O2-  O471  1  0.92854765  0.33180457  0.19294011  1
  O2-  O472  1  0.84498475  0.28255531  0.54306274  1
  O2-  O473  1  0.91810256  0.33439612  0.85388157  1
  O2-  O474  1  0.90627027  0.56280917  0.17283969  1
  O2-  O475  1  0.90127851  0.57203896  0.52091967  1
  O2-  O476  1  0.91336119  0.57321962  0.84275315  1
  O2-  O477  1  0.91603804  0.81871546  0.19053686  1
  O2-  O478  1  0.92021300  0.83742878  0.53439880  1
  O2-  O479  1  0.95131827  0.89194631  0.89037178  1
  O2-  O480  1  0.17381122  0.06417804  0.31463925  1
  O2-  O481  1  0.16501659  0.09966336  0.64023269  1
  O2-  O482  1  0.16165374  0.07887598  0.99094724  1
  O2-  O483  1  0.17094850  0.30270318  0.30820632  1
  O2-  O484  1  0.17019198  0.33197130  0.63423879  1
  O2-  O485  1  0.17957430  0.33355350  0.97860583  1
  O2-  O486  1  0.15846296  0.58733376  0.32512765  1
  O2-  O487  1  0.18678367  0.56922137  0.66196399  1
  O2-  O488  1  0.17870749  0.57268705  0.96997556  1
  O2-  O489  1  0.20524741  0.88625128  0.30690461  1
  O2-  O490  1  0.17505132  0.84986952  0.64765811  1
  O2-  O491  1  0.17904516  0.84272584  0.96589702  1
  O2-  O492  1  0.42904432  0.07847451  0.31324791  1
  O2-  O493  1  0.42086087  0.08646343  0.64363571  1
  O2-  O494  1  0.42343547  0.09363580  0.97089409  1
  O2-  O495  1  0.41479361  0.31911329  0.30799257  1
  O2-  O496  1  0.39875942  0.28955848  0.66210164  1
  O2-  O497  1  0.41324646  0.32590415  0.98166821  1
  O2-  O498  1  0.40272024  0.56622165  0.30855509  1
  O2-  O499  1  0.32357052  0.48232321  0.63530131  1
  O2-  O500  1  0.40313067  0.56925838  0.98234833  1
  O2-  O501  1  0.43661090  0.81420131  0.32643743  1
  O2-  O502  1  0.41080872  0.82860390  0.64472434  1
  O2-  O503  1  0.41896584  0.83305620  0.98052832  1
  O2-  O504  1  0.69287580  0.10470055  0.34302072  1
  O2-  O505  1  0.65995036  0.08116037  0.65151771  1
  O2-  O506  1  0.65063219  0.07799833  0.97471432  1
  O2-  O507  1  0.66477862  0.32683898  0.31094088  1
  O2-  O508  1  0.65996103  0.33780305  0.65752326  1
  O2-  O509  1  0.65100242  0.31803724  0.98686238  1
  O2-  O510  1  0.64809329  0.57104362  0.32186623  1
  O2-  O511  1  0.62757263  0.54676727  0.63623661  1
  O2-  O512  1  0.65790049  0.57809751  0.98504325  1
  O2-  O513  1  0.64519122  0.81481131  0.30025651  1
  O2-  O514  1  0.66905450  0.82822257  0.65095077  1
  O2-  O515  1  0.67214831  0.82661256  0.97572682  1
  O2-  O516  1  0.92197066  0.07695944  0.30940437  1
  O2-  O517  1  0.92080939  0.09275453  0.64547777  1
  O2-  O518  1  0.94378131  0.09153938  0.97180974  1
  O2-  O519  1  0.92964460  0.32589382  0.31759899  1
  O2-  O520  1  0.92310992  0.33613080  0.67833378  1
  O2-  O521  1  0.92081573  0.33287478  0.98019244  1
  O2-  O522  1  0.94059933  0.53621247  0.29823524  1
  O2-  O523  1  0.90347620  0.59069885  0.65158681  1
  O2-  O524  1  0.88158440  0.52023545  0.96130717  1
  O2-  O525  1  0.90401432  0.83752727  0.31382793  1
  O2-  O526  1  0.94306349  0.85663796  0.66251815  1
  O2-  O527  1  0.83875266  0.86052307  0.99289790  1
  O2-  O528  1  0.08280590  0.15337751  0.02539721  1
  O2-  O529  1  0.08713721  0.14348391  0.34768971  1
  O2-  O530  1  0.08896814  0.17794599  0.68193582  1
  O2-  O531  1  0.08702229  0.40844262  0.01697230  1
  O2-  O532  1  0.10770377  0.40680390  0.34665028  1
  O2-  O533  1  0.09070149  0.40611773  0.68775020  1
  O2-  O534  1  0.13458310  0.68683842  0.00745829  1
  O2-  O535  1  0.07967452  0.67798079  0.35376591  1
  O2-  O536  1  0.06908973  0.67972038  0.68949047  1
  O2-  O537  1  0.08422766  0.91727640  0.00999568  1
  O2-  O538  1  0.07139863  0.90733421  0.36100431  1
  O2-  O539  1  0.10521877  0.94030236  0.69295879  1
  O2-  O540  1  0.33712968  0.15975793  0.02455924  1
  O2-  O541  1  0.33954948  0.15661294  0.35478608  1
  O2-  O542  1  0.36220712  0.19935221  0.68073799  1
  O2-  O543  1  0.32807926  0.41796598  0.02632918  1
  O2-  O544  1  0.33335707  0.40238118  0.35046545  1
  O2-  O545  1  0.38656195  0.52246511  0.68419325  1
  O2-  O546  1  0.33946611  0.66555657  0.02266955  1
  O2-  O547  1  0.32041312  0.64413008  0.35261936  1
  O2-  O548  1  0.35586402  0.66233423  0.69312932  1
  O2-  O549  1  0.34025282  0.92303779  0.00742408  1
  O2-  O550  1  0.35338740  0.91221641  0.35984116  1
  O2-  O551  1  0.33745028  0.91985847  0.68556696  1
  O2-  O552  1  0.57305943  0.15463653  0.00854833  1
  O2-  O553  1  0.58889259  0.16410055  0.35944487  1
  O2-  O554  1  0.58814314  0.17184721  0.68943668  1
  O2-  O555  1  0.57999696  0.40630171  0.02566447  1
  O2-  O556  1  0.57697608  0.40294583  0.35323311  1
  O2-  O557  1  0.56988145  0.40302857  0.69604265  1
  O2-  O558  1  0.57378964  0.66105298  0.01785736  1
  O2-  O559  1  0.56693745  0.65464762  0.36028920  1
  O2-  O560  1  0.63715524  0.68524952  0.70157415  1
  O2-  O561  1  0.59060014  0.91486279  0.01447961  1
  O2-  O562  1  0.61751740  0.93099753  0.36865369  1
  O2-  O563  1  0.58501955  0.90640240  0.67384024  1
  O2-  O564  1  0.83965302  0.15873417  -0.00020076  1
  O2-  O565  1  0.86367519  0.16436420  0.37198900  1
  O2-  O566  1  0.82756517  0.15489133  0.69600610  1
  O2-  O567  1  0.82091786  0.38075301  0.05006469  1
  O2-  O568  1  0.83098139  0.39447472  0.35401836  1
  O2-  O569  1  0.83882541  0.42579631  0.69053959  1
  O2-  O570  1  0.81846423  0.69742872  0.03487525  1
  O2-  O571  1  0.79452478  0.70106059  0.37543815  1
  O2-  O572  1  0.78076954  0.68700916  0.68898692  1
  O2-  O573  1  0.82980437  0.96542924  0.07891103  1
  O2-  O574  1  0.83529921  0.92465805  0.37514750  1
  O2-  O575  1  0.84228512  0.92855284  0.69060446  1
