# generated using pymatgen
data_H2O
_symmetry_space_group_name_H-M   'P 1'
_cell_length_a   17.97999399
_cell_length_b   17.98933328
_cell_length_c   22.00128630
_cell_angle_alpha   89.99530937
_cell_angle_beta   90.04466992
_cell_angle_gamma   120.02791727
_symmetry_Int_Tables_number   1
_chemical_formula_structural   H2O
_chemical_formula_sum   'H384 O192'
_cell_volume   6161.13767315
_cell_formula_units_Z   192
loop_
 _symmetry_equiv_pos_site_id
 _symmetry_equiv_pos_as_xyz
  1  'x, y, z'
loop_
 _atom_type_symbol
 _atom_type_oxidation_number
  H+  1.0
  O2-  -2.0
loop_
 _atom_site_type_symbol
 _atom_site_label
 _atom_site_symmetry_multiplicity
 _atom_site_fract_x
 _atom_site_fract_y
 _atom_site_fract_z
 _atom_site_occupancy
  H+  H0  1  0.35014107  0.91456039  0.06288009  1
  H+  H1  1  0.62690711  0.74508945  0.66903160  1
  H+  H2  1  0.65074585  0.01421922  0.98590636  1
  H+  H3  1  0.16017289  0.61291384  0.32121138  1
  H+  H4  1  0.13990354  0.27970499  0.86158484  1
  H+  H5  1  0.53453907  0.38827507  0.16865175  1
  H+  H6  1  0.58206670  0.14419707  0.34330887  1
  H+  H7  1  0.11745268  0.38769470  0.83913221  1
  H+  H8  1  0.12661142  0.72842797  0.15794620  1
  H+  H9  1  0.76303053  0.86973209  0.34489639  1
  H+  H10  1  0.73861329  0.59921376  0.85302972  1
  H+  H11  1  1.00963022  0.89783613  0.18728418  1
  H+  H12  1  0.32506505  0.43333753  0.72892691  1
  H+  H13  1  0.35568423  0.21723100  0.69096114  1
  H+  H14  1  1.01548006  0.39274285  0.47859713  1
  H+  H15  1  1.01631386  0.64168320  0.68242536  1
  H+  H16  1  0.33920970  0.71623215  0.82404219  1
  H+  H17  1  0.38600586  0.89442667  0.16067150  1
  H+  H18  1  0.60014185  0.74517964  0.82345784  1
  H+  H19  1  0.61414685  0.13386595  0.67544255  1
  H+  H20  1  0.63811016  0.02494447  0.65331208  1
  H+  H21  1  0.11393809  0.88255695  0.50161514  1
  H+  H22  1  0.35871603  0.93174942  0.57208812  1
  H+  H23  1  0.47289217  0.36899120  0.32918016  1
  H+  H24  1  0.61710271  0.14985551  0.49451464  1
  H+  H25  1  0.88178166  0.03490527  0.50748626  1
  H+  H26  1  0.10962991  0.71645901  0.68914031  1
  H+  H27  1  0.26536726  0.63693101  0.48858429  1
  H+  H28  1  0.75555817  0.42642619  0.35510654  1
  H+  H29  1  0.41711462  0.12034272  0.10744048  1
  H+  H30  1  0.24176404  0.17926314  0.97250866  1
  H+  H31  1  0.37066411  0.47011879  0.12987282  1
  H+  H32  1  0.36107116  0.38922486  0.33888763  1
  H+  H33  1  0.36134632  0.23150366  0.49573914  1
  H+  H34  1  0.84812590  0.46552290  0.68470815  1
  H+  H35  1  0.44289578  0.84027690  0.82171527  1
  H+  H36  1  1.01619491  0.15302503  0.48951411  1
  H+  H37  1  0.89116306  0.12323614  0.66515910  1
  H+  H38  1  0.87653529  0.98192754  0.82805204  1
  H+  H39  1  0.12583387  0.63129753  0.15653331  1
  H+  H40  1  0.34996304  0.89212707  0.81946009  1
  H+  H41  1  0.12462077  0.71787577  -0.00666361  1
  H+  H42  1  0.83719544  0.62821791  0.36007202  1
  H+  H43  1  0.60212393  0.21597870  0.67619215  1
  H+  H44  1  0.77808153  0.88298440  0.16747532  1
  H+  H45  1  0.54254015  0.14470843  0.15188237  1
  H+  H46  1  0.89443441  0.52530161  0.99892682  1
  H+  H47  1  0.12222640  0.39676983  0.03258230  1
  H+  H48  1  0.34577228  1.00906542  0.67872797  1
  H+  H49  1  0.61339542  0.97620920  0.49779675  1
  H+  H50  1  0.15731696  0.08533767  0.27580068  1
  H+  H51  1  0.38851954  0.12277617  0.50374686  1
  H+  H52  1  0.11020896  0.47231929  0.32364332  1
  H+  H53  1  0.00332770  0.85301817  0.65880236  1
  H+  H54  1  0.19196788  0.38104396  0.19801208  1
  H+  H55  1  0.86822740  0.90066418  0.50321411  1
  H+  H56  1  0.12716649  0.61000470  0.86490288  1
  H+  H57  1  0.35473772  0.13927110  0.84366765  1
  H+  H58  1  0.26467317  0.14845882  0.34604928  1
  H+  H59  1  0.64365495  0.76638624  0.16881097  1
  H+  H60  1  0.47640578  0.11661951  0.84408651  1
  H+  H61  1  0.48889853  0.83748646  0.63949425  1
  H+  H62  1  0.85230158  0.50794795  0.35189723  1
  H+  H63  1  0.22811571  0.86072100  0.52139410  1
  H+  H64  1  0.25961765  0.38790976  0.67474280  1
  H+  H65  1  0.78108399  0.63087006  0.17007612  1
  H+  H66  1  0.09982718  0.47829622  0.67789448  1
  H+  H67  1  0.61033484  0.17353081  0.09913681  1
  H+  H68  1  0.63909617  0.13198485  0.00850039  1
  H+  H69  1  0.27733492  0.13751021  0.49846497  1
  H+  H70  1  0.89105906  0.27583092  0.84506269  1
  H+  H71  1  0.44459484  0.59870302  0.79037251  1
  H+  H72  1  0.61041460  0.22550744  0.82965016  1
  H+  H73  1  0.77884897  0.11950170  0.14030667  1
  H+  H74  1  0.41477390  0.29122432  0.02491733  1
  H+  H75  1  0.86877300  0.20042506  0.32322815  1
  H+  H76  1  0.03394612  0.63089441  -0.01001468  1
  H+  H77  1  0.59355700  0.62812921  0.33588351  1
  H+  H78  1  0.42792334  0.82734810  0.32104872  1
  H+  H79  1  0.47265369  0.61853558  0.49800660  1
  H+  H80  1  0.57491437  0.84764252  0.30372332  1
  H+  H81  1  0.25388386  0.21693190  -0.00689365  1
  H+  H82  1  0.11238112  0.47289929  0.83999748  1
  H+  H83  1  0.14754203  0.85662501  0.16508088  1
  H+  H84  1  0.72032872  0.35157361  0.84257054  1
  H+  H85  1  0.57863231  0.89192652  0.81252340  1
  H+  H86  1  0.28251042  0.63579368  -0.01606252  1
  H+  H87  1  0.00996343  0.00888755  0.96097282  1
  H+  H88  1  0.40953250  0.56742760  0.21651207  1
  H+  H89  1  0.65876980  0.50204952  0.86319559  1
  H+  H90  1  0.32097257  0.16966299  0.75674908  1
  H+  H91  1  0.89008022  0.77646916  0.84349164  1
  H+  H92  1  0.63659180  0.28251516  0.50962700  1
  H+  H93  1  1.03115730  0.63164464  0.16052605  1
  H+  H94  1  0.39433707  0.77218149  -0.02049348  1
  H+  H95  1  0.39210423  0.37417394  1.03144528  1
  H+  H96  1  0.26271162  0.13258842  0.84511919  1
  H+  H97  1  0.86356516  0.22463185  0.67008386  1
  H+  H98  1  0.92642369  0.33883308  0.94280429  1
  H+  H99  1  0.97895756  0.11466730  0.17191472  1
  H+  H100  1  0.39441594  0.60739107  0.15655461  1
  H+  H101  1  0.42314255  0.06737079  0.59366040  1
  H+  H102  1  0.00225390  0.60868254  0.32642391  1
  H+  H103  1  1.01221631  0.63109284  0.84179749  1
  H+  H104  1  0.28949692  0.64435935  0.14791298  1
  H+  H105  1  0.87174949  0.98432644  0.67261972  1
  H+  H106  1  0.22185634  0.37855498  0.49703839  1
  H+  H107  1  0.64776654  0.61247128  0.17401048  1
  H+  H108  1  0.53079404  0.62847319  0.15879111  1
  H+  H109  1  0.36854986  0.12611012  0.33403178  1
  H+  H110  1  0.87556267  0.39242283  0.00634941  1
  H+  H111  1  0.62118036  0.49167450  1.02128835  1
  H+  H112  1  0.38087954  0.72992399  0.15039950  1
  H+  H113  1  0.59191813  0.04801281  0.39744112  1
  H+  H114  1  0.71385412  0.61735296  0.33363068  1
  H+  H115  1  0.36017410  0.48306866  0.49071706  1
  H+  H116  1  0.62474710  0.47770531  0.17101241  1
  H+  H117  1  0.34172006  0.98121228  0.33303284  1
  H+  H118  1  0.13115179  0.97701323  0.16251769  1
  H+  H119  1  0.34454443  0.70945384  0.66941083  1
  H+  H120  1  0.39866682  0.32986011  0.57025176  1
  H+  H121  1  0.15597866  0.81773347  0.57035969  1
  H+  H122  1  0.00044801  0.15870535  0.02402909  1
  H+  H123  1  0.74156958  0.08505662  0.31266455  1
  H+  H124  1  0.62267710  0.63587774  1.01117686  1
  H+  H125  1  0.98187635  0.36938964  1.00383743  1
  H+  H126  1  0.57066120  0.41601206  0.59980044  1
  H+  H127  1  0.74169724  0.87479773  0.65789994  1
  H+  H128  1  0.14023529  0.61270250  0.95848362  1
  H+  H129  1  0.85165751  0.86836807  0.35092869  1
  H+  H130  1  0.07686433  0.16556166  0.10467605  1
  H+  H131  1  0.14647917  0.52299405  0.15530203  1
  H+  H132  1  0.57889605  0.93508870  0.29717985  1
  H+  H133  1  0.39507541  0.10745653  0.27108365  1
  H+  H134  1  0.88483674  1.00622046  0.34000517  1
  H+  H135  1  0.63914642  0.03951406  0.83516223  1
  H+  H136  1  0.54483210  0.54774634  0.81772114  1
  H+  H137  1  0.22700511  0.35613056  0.32178060  1
  H+  H138  1  0.64966001  0.36515683  0.17659942  1
  H+  H139  1  0.12012331  0.83452263  0.31131613  1
  H+  H140  1  0.87353154  0.28170136  0.48958136  1
  H+  H141  1  0.53601037  0.54856687  0.85099544  1
  H+  H142  1  0.87543991  0.89892357  0.17425706  1
  H+  H143  1  0.60764248  0.39365532  0.34554039  1
  H+  H144  1  0.84003532  0.12365517  0.08334583  1
  H+  H145  1  0.87984602  0.11336447  0.15645904  1
  H+  H146  1  0.89933725  0.86970666  0.84415205  1
  H+  H147  1  0.87346106  0.47176414  0.16240672  1
  H+  H148  1  0.68520028  0.88857302  0.86193087  1
  H+  H149  1  0.23929064  0.36643082  0.14275822  1
  H+  H150  1  0.46505708  0.36722485  0.51426970  1
  H+  H151  1  0.38000630  0.76422255  0.49153740  1
  H+  H152  1  0.88566355  0.63075730  0.65576003  1
  H+  H153  1  0.13958220  0.85342240  0.66971695  1
  H+  H154  1  0.86085838  0.14919512  0.48937367  1
  H+  H155  1  0.38578389  1.02931828  0.84941245  1
  H+  H156  1  0.12627377  0.11748164  0.33541852  1
  H+  H157  1  0.13607369  0.29341473  0.65083286  1
  H+  H158  1  0.38700949  0.61640755  0.65702887  1
  H+  H159  1  0.21842540  0.85877114  0.31810419  1
  H+  H160  1  0.29928365  0.68263601  0.32781836  1
  H+  H161  1  0.11596863  0.60286883  0.66310947  1
  H+  H162  1  0.07647837  0.41717647  0.73764925  1
  H+  H163  1  0.09954611  0.23643115  0.01768012  1
  H+  H164  1  0.53620794  0.79736073  0.78662181  1
  H+  H165  1  0.72353297  0.37345346  0.51398410  1
  H+  H166  1  0.62962736  -0.02472333  0.14464540  1
  H+  H167  1  0.09916804  0.96748975  0.01043778  1
  H+  H168  1  0.11345933  0.22406685  0.16242905  1
  H+  H169  1  0.12854301  0.37760343  0.65653058  1
  H+  H170  1  0.54569186  0.01410477  0.39252336  1
  H+  H171  1  0.98619615  0.36517545  0.14091283  1
  H+  H172  1  0.72752970  0.86601658  0.50734448  1
  H+  H173  1  0.66179418  0.32780152  0.60735547  1
  H+  H174  1  0.61122709  0.73197076  0.48956843  1
  H+  H175  1  0.45887747  0.35702226  0.65813942  1
  H+  H176  1  0.63042167  0.62294750  0.66429574  1
  H+  H177  1  0.65317299  0.11358769  0.16320552  1
  H+  H178  1  0.43585591  0.08757576  0.93792460  1
  H+  H179  1  0.63285695  0.28792937  0.33176090  1
  H+  H180  1  0.36589872  -0.01977903  0.51375722  1
  H+  H181  1  0.79415688  0.88855264  0.83112244  1
  H+  H182  1  0.10863942  0.63362853  0.49218020  1
  H+  H183  1  0.16399452  0.93816186  0.36794908  1
  H+  H184  1  0.14086812  0.11012693  0.17602504  1
  H+  H185  1  0.25541612  0.62585375  0.83314531  1
  H+  H186  1  1.11610283  0.37967003  0.12363540  1
  H+  H187  1  0.98050529  0.36375701  0.84611583  1
  H+  H188  1  0.62618939  0.35748660  0.66048757  1
  H+  H189  1  0.29332294  0.88660777  0.15802425  1
  H+  H190  1  0.85935866  0.39896453  0.30665673  1
  H+  H191  1  0.79178522  0.09235400  -0.02910427  1
  H+  H192  1  0.22789840  0.12190397  0.67545095  1
  H+  H193  1  0.47913092  0.07906964  0.65256873  1
  H+  H194  1  0.37308972  0.51294777  0.31650669  1
  H+  H195  1  0.86481356  0.39842001  0.48822181  1
  H+  H196  1  0.86675722  0.11291471  0.33882756  1
  H+  H197  1  0.14767273  0.86100022  0.00008343  1
  H+  H198  1  0.50004311  0.15289045  0.34184445  1
  H+  H199  1  0.35345734  0.58665080  0.79547823  1
  H+  H200  1  0.39714348  0.86236001  0.98557217  1
  H+  H201  1  0.86263419  0.14007901  0.82335190  1
  H+  H202  1  0.91063834  0.33838149  0.55008577  1
  H+  H203  1  0.35953975  0.59192630  0.30580211  1
  H+  H204  1  0.88719304  1.02140323  0.17378651  1
  H+  H205  1  0.22160269  0.86171479  0.84442632  1
  H+  H206  1  0.49903338  0.86721697  0.15826494  1
  H+  H207  1  0.35255471  0.63545938  0.48394332  1
  H+  H208  1  0.10650257  0.39586020  0.47974061  1
  H+  H209  1  0.22143322  0.84462308  0.66303445  1
  H+  H210  1  0.89311264  0.36777080  0.15759878  1
  H+  H211  1  0.11411116  0.72541725  0.48953326  1
  H+  H212  1  0.59322056  0.66104632  0.10151774  1
  H+  H213  1  0.73790981  0.36032634  0.98962145  1
  H+  H214  1  0.19138998  0.25723949  0.71240261  1
  H+  H215  1  0.10423741  0.24234168  0.48662089  1
  H+  H216  1  0.28682278  0.88741118  0.00564709  1
  H+  H217  1  0.42665205  0.80067327  0.58127125  1
  H+  H218  1  0.40773726  0.02392565  0.99538220  1
  H+  H219  1  0.10810738  0.13800027  0.83554136  1
  H+  H220  1  0.97735076  0.12175560  0.84353646  1
  H+  H221  1  1.02329834  0.88185023  0.83172870  1
  H+  H222  1  0.63026352  0.62092608  0.50528600  1
  H+  H223  1  0.86071793  0.64697625  0.49936312  1
  H+  H224  1  0.64387795  0.76372909  1.00022205  1
  H+  H225  1  0.87012376  0.89062671  0.01401658  1
  H+  H226  1  0.65575474  0.26673167  -0.00686888  1
  H+  H227  1  1.02312842  0.87488346  1.01332878  1
  H+  H228  1  0.23088444  0.36484514  1.01801551  1
  H+  H229  1  0.85985519  0.64165391  0.82395589  1
  H+  H230  1  0.76056542  0.37820682  0.68201117  1
  H+  H231  1  0.98163403  0.62170180  0.50081769  1
  H+  H232  1  0.60233372  0.48125274  0.65319397  1
  H+  H233  1  0.90083235  0.60835300  0.17441098  1
  H+  H234  1  0.75989672  0.64020973  0.67477663  1
  H+  H235  1  0.86348216  0.72713625  0.34835412  1
  H+  H236  1  0.85507151  0.50073315  0.84698746  1
  H+  H237  1  0.35429614  0.39107781  0.49418772  1
  H+  H238  1  0.97377604  0.09761567  0.33611079  1
  H+  H239  1  0.19413558  0.96196508  0.70546034  1
  H+  H240  1  0.13852826  1.03695936  0.66993782  1
  H+  H241  1  0.12494380  0.52350149  0.50065505  1
  H+  H242  1  0.12595004  0.71476698  0.33586925  1
  H+  H243  1  0.77592264  0.14527967  0.82597330  1
  H+  H244  1  0.62591515  0.89317143  0.65938051  1
  H+  H245  1  0.39561690  0.51493548  1.01779279  1
  H+  H246  1  -0.01267747  0.86207235  0.34671120  1
  H+  H247  1  0.83210380  0.91831868  0.44190031  1
  H+  H248  1  0.98774654  0.35034832  0.30057191  1
  H+  H249  1  0.07121427  0.09711775  0.99257977  1
  H+  H250  1  0.78173196  0.38261881  0.16584258  1
  H+  H251  1  0.11300575  0.88325776  0.83657376  1
  H+  H252  1  0.87660757  0.63910728  0.01223957  1
  H+  H253  1  0.35808815  0.47102757  0.83420830  1
  H+  H254  1  0.67251739  0.58495519  0.23671988  1
  H+  H255  1  0.22919402  0.11137131  0.19470535  1
  H+  H256  1  0.50545017  0.39273897  0.02420636  1
  H+  H257  1  0.73289692  0.85587445  0.00365007  1
  H+  H258  1  0.36622514  0.34740999  0.66936623  1
  H+  H259  1  -0.01688682  0.13023196  0.66164651  1
  H+  H260  1  0.39852524  0.03520008  0.14401847  1
  H+  H261  1  0.62500259  0.76175002  0.32224703  1
  H+  H262  1  0.39605618  0.36163309  0.16417833  1
  H+  H263  1  0.32761438  0.17775884  0.40500260  1
  H+  H264  1  0.72487038  0.12338137  0.50173545  1
  H+  H265  1  0.62887396  0.52458570  0.33173098  1
  H+  H266  1  0.15076171  1.02341360  0.51865732  1
  H+  H267  1  0.60972005  0.39540334  0.50257714  1
  H+  H268  1  0.90291016  0.09196595  0.89493162  1
  H+  H269  1  0.86165728  0.38216518  0.33775834  1
  H+  H270  1  0.14134046  0.16454578  0.68339443  1
  H+  H271  1  0.87487158  0.49999345  0.50031234  1
  H+  H272  1  0.98128643  0.87232800  0.51122482  1
  H+  H273  1  0.53006962  0.88050604  -0.00726190  1
  H+  H274  1  0.38292822  0.28071050  0.32696469  1
  H+  H275  1  0.12445555  0.99494194  0.34793569  1
  H+  H276  1  0.57938565  0.16340919  0.76956086  1
  H+  H277  1  0.85668908  0.72247386  0.67431345  1
  H+  H278  1  0.39605733  0.60067360  0.99789478  1
  H+  H279  1  0.89098437  0.77366858  1.00048999  1
  H+  H280  1  0.63573355  0.12537468  0.83930084  1
  H+  H281  1  0.41028837  0.14744261  0.01604841  1
  H+  H282  1  0.98414358  0.35587854  0.64954178  1
  H+  H283  1  0.47912676  0.12430396  0.50397474  1
  H+  H284  1  0.87130303  0.71741798  0.17159299  1
  H+  H285  1  0.99473535  0.96134882  0.22657903  1
  H+  H286  1  0.37148008  0.39338140  0.85331069  1
  H+  H287  1  0.60286138  0.36735001  0.84539231  1
  H+  H288  1  0.12489830  1.01764751  0.84419265  1
  H+  H289  1  0.59645265  0.91267410  0.08640381  1
  H+  H290  1  0.07827386  0.17247638  0.40248493  1
  H+  H291  1  0.17917828  0.57748649  0.21821373  1
  H+  H292  1  0.57641769  0.67056533  0.43002829  1
  H+  H293  1  0.09027987  0.92300113  0.44513830  1
  H+  H294  1  0.18177140  0.08921404  0.57432527  1
  H+  H295  1  0.41685288  0.59868416  0.55754635  1
  H+  H296  1  0.84412729  0.92346257  0.73012376  1
  H+  H297  1  0.17364066  0.34530983  0.95701161  1
  H+  H298  1  0.36540927  0.22250193  0.19561499  1
  H+  H299  1  0.82555486  0.67906019  0.44516325  1
  H+  H300  1  0.47066766  0.84548051  0.22455778  1
  H+  H301  1  0.67768058  0.08190911  0.93103598  1
  H+  H302  1  0.91386548  0.09688760  0.56520104  1
  H+  H303  1  0.68738387  0.57633613  0.94959997  1
  H+  H304  1  0.68486384  0.07463735  0.21662677  1
  H+  H305  1  0.40255218  0.83006620  0.88804420  1
  H+  H306  1  0.72023476  0.62266203  0.51213028  1
  H+  H307  1  0.88879121  0.78665647  0.51308416  1
  H+  H308  1  0.92660663  0.60531704  0.56278913  1
  H+  H309  1  0.31944018  0.94681856  0.77576034  1
  H+  H310  1  0.52952330  0.63009226  0.01401687  1
  H+  H311  1  0.54904687  0.13076050  0.00730076  1
  H+  H312  1  0.30491533  0.65747368  0.73187938  1
  H+  H313  1  0.86437331  1.02524024  0.02066514  1
  H+  H314  1  0.52802114  0.88492897  0.49256299  1
  H+  H315  1  0.66718705  0.32055228  0.90527035  1
  H+  H316  1  0.65153311  0.27656969  0.17587804  1
  H+  H317  1  0.63801562  0.86599539  0.50844023  1
  H+  H318  1  0.10830688  0.92359444  0.74495416  1
  H+  H319  1  0.23093102  0.36679098  0.86779170  1
  H+  H320  1  0.82686763  0.40365656  0.77434813  1
  H+  H321  1  0.32904263  0.42014767  0.39721901  1
  H+  H322  1  0.17534047  0.83448264  0.93907722  1
  H+  H323  1  0.94434653  0.82698322  0.59907990  1
  H+  H324  1  0.74053469  0.61757812  1.00954731  1
  H+  H325  1  0.83213174  0.16808492  0.42525764  1
  H+  H326  1  0.67225488  0.34406561  0.27186192  1
  H+  H327  1  0.93710779  0.57865856  0.23037868  1
  H+  H328  1  0.36484075  0.13603695  0.18169391  1
  H+  H329  1  0.13351737  0.76921600  0.84836053  1
  H+  H330  1  0.17190549  0.82090527  0.22374884  1
  H+  H331  1  0.06597000  0.42137005  0.38433971  1
  H+  H332  1  0.59390351  0.42831158  0.08115207  1
  H+  H333  1  0.60837924  0.48509804  0.50151281  1
  H+  H334  1  0.50514425  0.62949715  0.33305509  1
  H+  H335  1  0.83333377  0.17256687  0.73384127  1
  H+  H336  1  0.61788193  0.87612907  0.99772688  1
  H+  H337  1  0.31604750  1.06190962  0.71657093  1
  H+  H338  1  0.09670693  0.65947115  0.39759053  1
  H+  H339  1  0.90727353  0.57783001  0.93853473  1
  H+  H340  1  0.16080822  0.35396068  0.55532743  1
  H+  H341  1  0.84942997  0.66828647  0.07341594  1
  H+  H342  1  0.96179225  0.70867817  0.62854984  1
  H+  H343  1  0.57054691  0.90176930  0.71221455  1
  H+  H344  1  0.65031336  0.07377707  0.31684874  1
  H+  H345  1  0.65955764  0.59648574  0.60290274  1
  H+  H346  1  0.09235214  0.91535487  0.10369004  1
  H+  H347  1  0.33924984  0.89146835  0.34362632  1
  H+  H348  1  0.94067009  0.84881870  0.28386808  1
  H+  H349  1  0.80569559  0.54328858  0.87743185  1
  H+  H350  1  0.53220564  0.66354221  0.66620176  1
  H+  H351  1  0.94391811  0.64647786  0.30916073  1
  H+  H352  1  0.57151434  0.70659876  0.75593154  1
  H+  H353  1  0.93499947  0.32476397  0.20851013  1
  H+  H354  1  0.83912338  0.41770941  0.06413541  1
  H+  H355  1  0.12842383  0.06946895  0.90356053  1
  H+  H356  1  0.09254311  0.18482675  0.77982775  1
  H+  H357  1  0.82661146  0.67254957  0.76734836  1
  H+  H358  1  0.83924291  0.91394456  0.07592681  1
  H+  H359  1  0.66659886  0.82192946  0.26362098  1
  H+  H360  1  0.82473403  0.44835573  0.43515235  1
  H+  H361  1  0.57584256  0.42067638  0.40591460  1
  H+  H362  1  0.32971266  0.14900520  0.04312154  1
  H+  H363  1  0.68782937  0.82868067  0.91194238  1
  H+  H364  1  0.35351454  0.80491911  0.27609115  1
  H+  H365  1  0.67929077  0.84029996  0.59759647  1
  H+  H366  1  0.38811744  0.85617291  0.50952475  1
  H+  H367  1  0.18390757  0.30276509  0.26284585  1
  H+  H368  1  0.91969790  0.83238213  0.94018139  1
  H+  H369  1  0.66952184  0.09497595  0.56351655  1
  H+  H370  1  0.20564383  0.60503393  0.65892600  1
  H+  H371  1  0.42121798  0.34604093  0.23175422  1
  H+  H372  1  0.14955396  0.57666766  0.56401162  1
  H+  H373  1  0.86250481  0.38028995  0.83502146  1
  H+  H374  1  0.10769939  0.22287583  0.33774900  1
  H+  H375  1  0.58194029  0.18237236  0.43814670  1
  H+  H376  1  0.44614841  0.69981420  0.62367927  1
  H+  H377  1  0.96828155  0.28264759  0.60463034  1
  H+  H378  1  0.72689671  0.11417243  0.65959573  1
  H+  H379  1  0.50654001  0.37944115  0.90844237  1
  H+  H380  1  0.33399864  0.66577366  0.04743525  1
  H+  H381  1  0.89102279  0.32188451  0.29212057  1
  H+  H382  1  0.64569678  0.85696575  0.16443266  1
  H+  H383  1  0.06840989  0.65286996  0.78186425  1
  O2-  O384  1  0.08067671  0.16293038  0.15033801  1
  O2-  O385  1  0.07494798  0.18195251  0.47230284  1
  O2-  O386  1  0.08217906  0.17441358  0.82416000  1
  O2-  O387  1  0.08508547  0.41234951  0.11540132  1
  O2-  O388  1  0.07530156  0.42554424  0.46382382  1
  O2-  O389  1  0.08684387  0.41578089  0.82032922  1
  O2-  O390  1  0.09368004  0.66370264  0.14571835  1
  O2-  O391  1  0.08091138  0.66559562  0.47310011  1
  O2-  O392  1  0.07149828  0.65674104  0.82743830  1
  O2-  O393  1  0.09853155  0.91535698  0.14922956  1
  O2-  O394  1  0.08491941  0.91554025  0.48984011  1
  O2-  O395  1  0.08502925  0.91421337  0.81814364  1
  O2-  O396  1  0.33492351  0.16018064  0.20555565  1
  O2-  O397  1  0.33645828  0.17242212  0.47854855  1
  O2-  O398  1  0.32169633  0.16607731  0.82867115  1
  O2-  O399  1  0.34047916  0.40760447  0.11832431  1
  O2-  O400  1  0.32728275  0.42234593  0.47536662  1
  O2-  O401  1  0.33582883  0.41908411  0.86058676  1
  O2-  O402  1  0.34868670  0.67187375  0.13174788  1
  O2-  O403  1  0.32303442  0.66657405  0.46983979  1
  O2-  O404  1  0.30945084  0.65572113  0.80905644  1
  O2-  O405  1  0.35325706  0.92066746  0.14334590  1
  O2-  O406  1  0.33964866  0.91998339  0.52954510  1
  O2-  O407  1  0.32107485  0.92730347  0.81781070  1
  O2-  O408  1  0.60565359  0.17378285  0.14492784  1
  O2-  O409  1  0.58771473  0.18334305  0.48299775  1
  O2-  O410  1  0.58013226  0.16354714  0.81520627  1
  O2-  O411  1  0.59619394  0.41721451  0.15559790  1
  O2-  O412  1  0.57545572  0.42264667  0.49011246  1
  O2-  O413  1  0.57921020  0.40717463  0.83645111  1
  O2-  O414  1  0.59301016  0.66022522  0.14752418  1
  O2-  O415  1  0.57962023  0.67061512  0.47532262  1
  O2-  O416  1  0.55049259  0.71833779  0.79543666  1
  O2-  O417  1  0.59941058  0.91357416  0.13198531  1
  O2-  O418  1  0.59077064  0.91649240  0.48409756  1
  O2-  O419  1  0.53389425  0.85341450  0.78460216  1
  O2-  O420  1  0.83987916  0.14251873  0.12571787  1
  O2-  O421  1  0.83174486  0.17860202  0.46991532  1
  O2-  O422  1  0.83553486  0.17411513  0.80955818  1
  O2-  O423  1  0.84220578  0.41075100  0.14876095  1
  O2-  O424  1  0.83810919  0.43818334  0.48100024  1
  O2-  O425  1  0.82666585  0.40499723  0.81991038  1
  O2-  O426  1  0.84347906  0.65861055  0.15641071  1
  O2-  O427  1  0.82928557  0.67796763  0.49031734  1
  O2-  O428  1  0.83324969  0.67656954  0.81280553  1
  O2-  O429  1  0.84007780  0.91983606  0.15406936  1
  O2-  O430  1  0.83529550  0.92734546  0.48680187  1
  O2-  O431  1  0.85279567  0.92159948  0.81343239  1
  O2-  O432  1  0.16418914  0.07623507  0.19557096  1
  O2-  O433  1  0.18783597  0.08430008  0.53005911  1
  O2-  O434  1  0.14873719  0.07715928  0.86077845  1
  O2-  O435  1  0.18048789  0.34630572  0.16130935  1
  O2-  O436  1  0.16024785  0.35206348  0.51003553  1
  O2-  O437  1  0.16769696  0.33923945  0.87777282  1
  O2-  O438  1  0.17382088  0.58151479  0.17314458  1
  O2-  O439  1  0.15360590  0.58249550  0.51880256  1
  O2-  O440  1  0.16070903  0.58051290  0.87410740  1
  O2-  O441  1  0.17498769  0.82220125  0.17812587  1
  O2-  O442  1  0.16411336  0.82599085  0.52565402  1
  O2-  O443  1  0.16231989  0.82978980  0.86247537  1
  O2-  O444  1  0.42687907  0.09896705  0.14645753  1
  O2-  O445  1  0.41828996  0.09098397  0.51756297  1
  O2-  O446  1  0.41920178  0.08949356  0.86473914  1
  O2-  O447  1  0.42662589  0.33765240  0.18724849  1
  O2-  O448  1  0.40300710  0.33532202  0.52493558  1
  O2-  O449  1  0.49392016  0.36587970  0.86518795  1
  O2-  O450  1  0.41806704  0.57103742  0.17144115  1
  O2-  O451  1  0.41197076  0.58715456  0.51294848  1
  O2-  O452  1  0.38386288  0.55515299  0.78457854  1
  O2-  O453  1  0.44494399  0.83982297  0.18364169  1
  O2-  O454  1  0.41853504  0.82312232  0.51043200  1
  O2-  O455  1  0.38855834  0.82481229  0.84351303  1
  O2-  O456  1  0.68306290  0.08010657  0.17145462  1
  O2-  O457  1  0.66534379  0.09561312  0.51816191  1
  O2-  O458  1  0.66973729  0.09634249  0.85344698  1
  O2-  O459  1  0.68146760  0.33655577  0.19263933  1
  O2-  O460  1  0.66344377  0.34226229  0.52759150  1
  O2-  O461  1  0.66023585  0.32100406  0.85867059  1
  O2-  O462  1  0.67980015  0.58469156  0.19151473  1
  O2-  O463  1  0.65860961  0.59039398  0.52436982  1
  O2-  O464  1  0.71066121  0.55116339  0.88259005  1
  O2-  O465  1  0.67452935  0.82748799  0.18352761  1
  O2-  O466  1  0.66683553  0.83224499  0.52183126  1
  O2-  O467  1  0.69230851  0.83855976  0.86600978  1
  O2-  O468  1  0.91563964  0.08525254  0.18249122  1
  O2-  O469  1  0.90864859  0.09650402  0.52021911  1
  O2-  O470  1  0.91365269  0.08707725  0.85142776  1
  O2-  O471  1  0.92871259  0.33623020  0.16305319  1
  O2-  O472  1  0.90161030  0.34285104  0.50570641  1
  O2-  O473  1  0.92027118  0.33527796  0.86179085  1
  O2-  O474  1  0.93501332  0.57982010  0.18490876  1
  O2-  O475  1  0.92099944  0.59163549  0.51791311  1
  O2-  O476  1  0.86470010  0.55650216  0.86549681  1
  O2-  O477  1  0.96542777  0.90119873  0.21376983  1
  O2-  O478  1  0.92201211  0.84645811  0.52896143  1
  O2-  O479  1  0.92439473  0.83530867  0.86172296  1
  O2-  O480  1  0.15899117  0.08721526  0.32106018  1
  O2-  O481  1  0.16914081  0.09699308  0.65553341  1
  O2-  O482  1  0.06998385  0.04667306  0.97205778  1
  O2-  O483  1  0.17015099  0.32106341  0.30066076  1
  O2-  O484  1  0.15945487  0.35222890  0.63435871  1
  O2-  O485  1  0.17098797  0.34278917  1.00271973  1
  O2-  O486  1  0.18880406  0.58658426  0.29694032  1
  O2-  O487  1  0.14419435  0.57318696  0.64387528  1
  O2-  O488  1  0.17562809  0.58692177  0.94036589  1
  O2-  O489  1  0.15957531  0.81403798  0.30028940  1
  O2-  O490  1  0.16060072  0.81538343  0.65206115  1
  O2-  O491  1  0.18033535  0.83406855  0.98451310  1
  O2-  O492  1  0.39937324  0.09731951  0.31437086  1
  O2-  O493  1  0.42477912  0.03777852  0.63153854  1
  O2-  O494  1  0.44301277  0.08576450  0.98346606  1
  O2-  O495  1  0.41460348  0.34058658  0.31027252  1
  O2-  O496  1  0.39633367  0.31931103  0.65048627  1
  O2-  O497  1  0.43318423  0.35091934  1.01232676  1
  O2-  O498  1  0.39997440  0.57126600  0.29669533  1
  O2-  O499  1  0.43868976  0.64080456  0.63108627  1
  O2-  O500  1  0.43003538  0.57140145  0.99742808  1
  O2-  O501  1  0.36448034  0.80372883  0.31945218  1
  O2-  O502  1  0.43554512  0.78641892  0.62420300  1
  O2-  O503  1  0.42576179  0.83345357  0.96534263  1
  O2-  O504  1  0.68235261  0.05360188  0.29307124  1
  O2-  O505  1  0.66763164  0.08751885  0.64248336  1
  O2-  O506  1  0.68953717  0.07604923  0.97452393  1
  O2-  O507  1  0.66634875  0.34816147  0.31687355  1
  O2-  O508  1  0.65707897  0.32561043  0.65253736  1
  O2-  O509  1  0.67801986  0.32430921  0.97471244  1
  O2-  O510  1  0.65697616  0.58380773  0.31370570  1
  O2-  O511  1  0.65901260  0.59106687  0.64824151  1
  O2-  O512  1  0.68033540  0.58724945  0.99348551  1
  O2-  O513  1  0.65901817  0.82298279  0.30847227  1
  O2-  O514  1  0.67975502  0.84329231  0.64335977  1
  O2-  O515  1  0.67529089  0.82465326  0.98375247  1
  O2-  O516  1  0.91291518  0.06443964  0.32191342  1
  O2-  O517  1  0.92459364  0.09807653  0.64600219  1
  O2-  O518  1  0.88051614  0.08775528  1.02195724  1
  O2-  O519  1  0.93320273  0.30680111  0.27718621  1
  O2-  O520  1  0.93978971  0.31247888  0.62091309  1
  O2-  O521  1  0.92288101  0.34111068  0.98782161  1
  O2-  O522  1  0.94323488  0.59185689  0.30866270  1
  O2-  O523  1  0.93984510  0.64572314  0.63331697  1
  O2-  O524  1  0.92245205  0.58599954  0.98264540  1
  O2-  O525  1  0.93026363  0.83057515  0.32734325  1
  O2-  O526  1  0.95677295  0.80438052  0.63743871  1
  O2-  O527  1  0.92010284  0.83464381  0.98582384  1
  O2-  O528  1  0.06127881  0.17484049  0.03034752  1
  O2-  O529  1  0.07836971  0.16428314  0.35620452  1
  O2-  O530  1  0.13283280  0.21133673  0.70210046  1
  O2-  O531  1  0.08696640  0.42233555  0.04835404  1
  O2-  O532  1  0.05754777  0.42319014  0.33975269  1
  O2-  O533  1  0.07238542  0.41690695  0.69247991  1
  O2-  O534  1  0.09676241  0.65451258  -0.00433111  1
  O2-  O535  1  0.09989352  0.65499218  0.35199173  1
  O2-  O536  1  0.07120588  0.65641059  0.70336821  1
  O2-  O537  1  0.08443968  0.91064687  0.02700065  1
  O2-  O538  1  0.10832588  0.93484059  0.36391561  1
  O2-  O539  1  0.12978448  0.93280279  0.70156994  1
  O2-  O540  1  0.39225601  0.17900013  0.04540075  1
  O2-  O541  1  0.32627681  0.17924336  0.35892249  1
  O2-  O542  1  0.31891111  0.16069644  0.71072350  1
  O2-  O543  1  0.33977851  0.40694744  0.05014329  1
  O2-  O544  1  0.32747204  0.41725896  0.35163460  1
  O2-  O545  1  0.30012597  0.38241553  0.70264382  1
  O2-  O546  1  0.34034331  0.66667444  0.00259574  1
  O2-  O547  1  0.27369000  0.61902516  0.32574759  1
  O2-  O548  1  0.30357861  0.65230379  0.68653612  1
  O2-  O549  1  0.34905149  0.91651949  0.01768614  1
  O2-  O550  1  0.30574293  0.92118597  0.34750876  1
  O2-  O551  1  0.30300726  1.00136710  0.71177441  1
  O2-  O552  1  0.60884485  0.16172540  0.02402269  1
  O2-  O553  1  0.56129827  0.18184709  0.35741846  1
  O2-  O554  1  0.57663002  0.15597377  0.69149538  1
  O2-  O555  1  0.58490210  0.43064183  0.03621196  1
  O2-  O556  1  0.57636953  0.42284027  0.36068064  1
  O2-  O557  1  0.57159616  0.41788599  0.64426277  1
  O2-  O558  1  0.59247461  0.66608874  0.02661118  1
  O2-  O559  1  0.56443325  0.65975261  0.35022832  1
  O2-  O560  1  0.58951080  0.68534191  0.68638909  1
  O2-  O561  1  0.59021658  0.91048902  0.00929867  1
  O2-  O562  1  0.53735303  0.87310993  0.29617707  1
  O2-  O563  1  0.58719160  0.91735597  0.66911811  1
  O2-  O564  1  0.85122917  0.10128434  -0.03717796  1
  O2-  O565  1  0.83478645  0.14676883  0.34627020  1
  O2-  O566  1  0.83180995  0.16647340  0.68819692  1
  O2-  O567  1  0.84355751  0.42334024  0.01953442  1
  O2-  O568  1  0.80258053  0.47446611  0.37918112  1
  O2-  O569  1  0.82099473  0.40587923  0.69742768  1
  O2-  O570  1  0.84751710  0.67075069  0.02856423  1
  O2-  O571  1  0.81928994  0.67070050  0.36639639  1
  O2-  O572  1  0.81976757  0.66447796  0.69162751  1
  O2-  O573  1  0.83840558  0.91870134  0.03066676  1
  O2-  O574  1  0.82118215  0.89830815  0.36424985  1
  O2-  O575  1  0.83959249  0.92356082  0.68526474  1
