# generated using pymatgen
data_H2O
_symmetry_space_group_name_H-M   'P 1'
_cell_length_a   17.99918212
_cell_length_b   17.99526607
_cell_length_c   22.01074061
_cell_angle_alpha   89.99970444
_cell_angle_beta   89.99366032
_cell_angle_gamma   119.99464378
_symmetry_Int_Tables_number   1
_chemical_formula_structural   H2O
_chemical_formula_sum   'H384 O192'
_cell_volume   6174.47114060
_cell_formula_units_Z   192
loop_
 _symmetry_equiv_pos_site_id
 _symmetry_equiv_pos_as_xyz
  1  'x, y, z'
loop_
 _atom_type_symbol
 _atom_type_oxidation_number
  H+  1.0
  O2-  -2.0
loop_
 _atom_site_type_symbol
 _atom_site_label
 _atom_site_symmetry_multiplicity
 _atom_site_fract_x
 _atom_site_fract_y
 _atom_site_fract_z
 _atom_site_occupancy
  H+  H0  1  0.25880119  0.62221642  0.67036210  1
  H+  H1  1  0.07642399  0.44310101  0.35549949  1
  H+  H2  1  0.88598545  0.87680076  0.50805901  1
  H+  H3  1  0.39105796  0.79229036  0.30849455  1
  H+  H4  1  0.71106538  0.36286413  0.65749487  1
  H+  H5  1  0.11812351  0.49031958  0.14762074  1
  H+  H6  1  0.54731225  0.63426634  0.32954750  1
  H+  H7  1  0.59661311  0.21866018  0.00228592  1
  H+  H8  1  0.64929815  0.33904817  0.56698165  1
  H+  H9  1  0.74086663  0.36146610  0.83576708  1
  H+  H10  1  0.77157163  0.88801333  0.82859215  1
  H+  H11  1  0.07554356  0.90409736  0.78045253  1
  H+  H12  1  0.10419441  0.13866362  0.33136317  1
  H+  H13  1  0.13351705  0.01293755  0.84855243  1
  H+  H14  1  0.35777412  0.34354141  0.49365119  1
  H+  H15  1  0.08934356  0.18958269  -0.01608527  1
  H+  H16  1  0.53963601  0.92595652  0.69168865  1
  H+  H17  1  0.47330474  0.10419373  0.65918530  1
  H+  H18  1  0.85674727  0.13619609  0.00616327  1
  H+  H19  1  0.28121638  0.40553837  0.00946921  1
  H+  H20  1  0.94419080  0.36234881  0.40302904  1
  H+  H21  1  0.76482462  0.87796865  0.48276774  1
  H+  H22  1  0.96598467  0.83589368  0.67124530  1
  H+  H23  1  0.68593885  0.46662755  0.38679880  1
  H+  H24  1  0.69631607  0.39103956  0.50554334  1
  H+  H25  1  0.11236027  0.13341293  0.83830768  1
  H+  H26  1  0.86355014  0.22381713  0.15423621  1
  H+  H27  1  0.21259946  0.08063244  0.88971803  1
  H+  H28  1  0.86817143  -0.10722890  0.11724549  1
  H+  H29  1  0.86593429  0.96821075  0.32985908  1
  H+  H30  1  0.91240749  0.38730400  0.00085975  1
  H+  H31  1  0.59495095  0.37090338  1.00416515  1
  H+  H32  1  0.61000736  0.14420550  0.67010840  1
  H+  H33  1  0.12649867  0.49332093  0.50355630  1
  H+  H34  1  0.85994704  0.88567251  0.83162632  1
  H+  H35  1  0.38949767  0.87600508  0.50167680  1
  H+  H36  1  0.59584782  0.21851611  0.82081637  1
  H+  H37  1  0.45232125  0.34515629  0.49518012  1
  H+  H38  1  0.86657046  0.23071059  0.00867843  1
  H+  H39  1  0.85738073  0.53345583  0.32900989  1
  H+  H40  1  0.72022113  0.60338274  0.65366290  1
  H+  H41  1  0.53171756  0.38630725  0.16051445  1
  H+  H42  1  0.98233714  0.86745355  0.29969921  1
  H+  H43  1  0.35987913  -0.01542800  0.49125219  1
  H+  H44  1  0.13342109  0.27829835  0.17008099  1
  H+  H45  1  1.02551040  0.64321234  0.68629996  1
  H+  H46  1  0.36669076  0.39892676  0.00939712  1
  H+  H47  1  0.87495290  0.62825909  0.99512076  1
  H+  H48  1  0.81569270  0.68511752  0.07817763  1
  H+  H49  1  0.64166290  0.64541739  0.32943900  1
  H+  H50  1  0.65330543  0.04108593  0.66123224  1
  H+  H51  1  0.22842888  0.36211465  0.51656232  1
  H+  H52  1  0.38435044  0.52540456  0.16812736  1
  H+  H53  1  0.67645291  0.46082497  0.80912123  1
  H+  H54  1  0.48369010  0.13042464  0.49695105  1
  H+  H55  1  0.12474152  0.49348012  0.84141892  1
  H+  H56  1  0.37459391  0.60763791  0.84669574  1
  H+  H57  1  0.10720790  0.87019178  0.67803795  1
  H+  H58  1  0.88095360  0.10131732  0.31885185  1
  H+  H59  1  0.35150238  0.13183035  0.48326213  1
  H+  H60  1  0.37853735  0.02425413  0.99211063  1
  H+  H61  1  0.87933254  0.60753781  0.67487685  1
  H+  H62  1  0.84973406  0.11414571  0.48463525  1
  H+  H63  1  0.74404284  0.12031037  0.84622110  1
  H+  H64  1  0.74837470  0.10723349  0.32973620  1
  H+  H65  1  0.14879556  0.42051840  0.33839450  1
  H+  H66  1  0.69747086  0.72209676  0.72593895  1
  H+  H67  1  0.37240257  0.34471867  0.32280435  1
  H+  H68  1  1.03180963  0.39895118  0.13995550  1
  H+  H69  1  0.60442389  0.38606561  0.66984038  1
  H+  H70  1  0.88225752  0.79103150  0.14474754  1
  H+  H71  1  0.46829861  0.61783821  0.84709477  1
  H+  H72  1  0.14165412  0.30565642  1.01485609  1
  H+  H73  1  0.38574625  0.23166015  0.33169714  1
  H+  H74  1  0.00174771  0.37619081  0.49376645  1
  H+  H75  1  0.62141873  0.27205326  0.65162090  1
  H+  H76  1  0.34377969  0.67140176  0.35038207  1
  H+  H77  1  0.26473514  0.87810389  0.83870824  1
  H+  H78  1  0.87639046  0.26671771  0.84467218  1
  H+  H79  1  0.08986775  -0.04080779  1.02406173  1
  H+  H80  1  0.15538498  0.81808833  0.17029763  1
  H+  H81  1  0.26726594  0.12298437  0.15592925  1
  H+  H82  1  0.60683102  0.72125556  0.13112013  1
  H+  H83  1  0.63327998  0.78464027  0.84589986  1
  H+  H84  1  0.51261856  0.87509885  0.17931662  1
  H+  H85  1  0.36432986  0.45886035  0.49847822  1
  H+  H86  1  0.78202077  0.63998048  0.36908831  1
  H+  H87  1  0.62869298  0.10475733  0.17064381  1
  H+  H88  1  0.03682383  0.40220746  0.66900769  1
  H+  H89  1  0.36875339  0.14870982  0.00533966  1
  H+  H90  1  0.39159407  0.66478199  0.51974045  1
  H+  H91  1  0.99448765  0.12328283  1.00641696  1
  H+  H92  1  1.10417522  0.12995386  0.15383066  1
  H+  H93  1  0.33094107  0.15974434  0.42040262  1
  H+  H94  1  0.46275136  0.82022487  0.64417358  1
  H+  H95  1  0.43839149  0.59388700  0.52494822  1
  H+  H96  1  0.70426200  0.66568651  0.45718505  1
  H+  H97  1  0.19277449  0.78181275  0.29192568  1
  H+  H98  1  0.62614770  0.89949692  0.83637951  1
  H+  H99  1  0.36194776  0.59594685  0.66915812  1
  H+  H100  1  0.39283909  0.09864760  0.31003256  1
  H+  H101  1  0.13383592  0.28158185  0.32473909  1
  H+  H102  1  0.37009466  0.74579535  0.65747775  1
  H+  H103  1  0.77115551  0.64018843  -0.00076318  1
  H+  H104  1  0.11572863  0.14198485  0.67718713  1
  H+  H105  1  0.35636337  0.13649337  0.66457938  1
  H+  H106  1  0.35715600  0.86935027  0.67968468  1
  H+  H107  1  0.00105181  0.64523054  0.48639440  1
  H+  H108  1  0.52852725  0.89350014  0.01143299  1
  H+  H109  1  0.11116915  0.88368858  0.33684278  1
  H+  H110  1  0.27141839  0.89113108  0.01916207  1
  H+  H111  1  0.98736865  0.37314163  0.98537207  1
  H+  H112  1  0.78765692  0.14536558  0.67575778  1
  H+  H113  1  0.17701350  0.84744191  0.25540553  1
  H+  H114  1  0.20739683  0.10452698  0.49824776  1
  H+  H115  1  0.40803904  0.33541952  0.94170002  1
  H+  H116  1  0.37186779  0.01798533  0.83818842  1
  H+  H117  1  0.39061036  0.53656169  0.00167124  1
  H+  H118  1  0.12550888  0.01417858  0.14695023  1
  H+  H119  1  0.72484326  0.86261341  0.99653096  1
  H+  H120  1  0.22760135  0.62491896  0.15944292  1
  H+  H121  1  0.10586909  0.60612994  0.51476954  1
  H+  H122  1  0.87636757  0.50636785  0.84125829  1
  H+  H123  1  0.87212517  0.01057500  1.00343718  1
  H+  H124  1  0.89355993  0.86322163  0.30023275  1
  H+  H125  1  0.86595800  0.13090043  0.83220285  1
  H+  H126  1  0.63164284  0.12036902  -0.00923115  1
  H+  H127  1  0.11854699  0.65632801  0.68316664  1
  H+  H128  1  0.13444627  0.53340615  0.66784796  1
  H+  H129  1  0.13861248  0.36967120  0.16554323  1
  H+  H130  1  0.77906531  0.87866217  0.32551147  1
  H+  H131  1  0.21942397  0.86003479  0.50138670  1
  H+  H132  1  0.22764872  0.88054697  0.65547325  1
  H+  H133  1  0.38532154  0.36671724  0.84342237  1
  H+  H134  1  0.41687951  0.80604384  0.85019085  1
  H+  H135  1  0.02078691  0.64202099  0.83345612  1
  H+  H136  1  0.86098384  0.00602119  0.49298963  1
  H+  H137  1  0.49009273  0.54633679  0.54451046  1
  H+  H138  1  0.07666782  0.90963020  0.39466018  1
  H+  H139  1  0.62528721  1.00909477  0.50519804  1
  H+  H140  1  0.07313201  0.16603801  0.09902306  1
  H+  H141  1  0.02922561  0.14687103  0.68517242  1
  H+  H142  1  0.95617890  0.85024262  1.00755017  1
  H+  H143  1  0.97255402  0.10529303  0.84850931  1
  H+  H144  1  0.16521908  0.56353119  0.31763211  1
  H+  H145  1  0.65250596  0.88332629  0.33231850  1
  H+  H146  1  0.10671140  0.87978863  0.48945474  1
  H+  H147  1  0.20097170  0.62989372  0.50617899  1
  H+  H148  1  0.90439610  0.56771531  0.89897386  1
  H+  H149  1  0.26843682  0.14814595  0.81368682  1
  H+  H150  1  0.09395759  0.36755385  0.82851418  1
  H+  H151  1  0.36722895  0.50034045  0.67967180  1
  H+  H152  1  0.93775112  0.33745748  0.21053856  1
  H+  H153  1  0.24793598  0.90428983  0.17577119  1
  H+  H154  1  0.22739876  0.66482785  0.30440792  1
  H+  H155  1  0.60092940  0.20933900  0.15562500  1
  H+  H156  1  0.86536269  0.75586073  -0.00001848  1
  H+  H157  1  0.71486898  0.34653699  0.32343998  1
  H+  H158  1  0.37947793  0.88165365  0.16783732  1
  H+  H159  1  0.62474428  0.51617540  -0.00079376  1
  H+  H160  1  0.34901477  0.63074640  0.53236553  1
  H+  H161  1  0.91072668  0.52072172  0.01921385  1
  H+  H162  1  0.51942293  0.11751373  0.33083533  1
  H+  H163  1  0.86249828  0.87837262  0.67815206  1
  H+  H164  1  0.14911361  0.37880117  0.52323176  1
  H+  H165  1  0.35795224  0.24739687  0.48838772  1
  H+  H166  1  0.21953660  0.12102012  0.65475472  1
  H+  H167  1  0.60270152  0.96034764  0.17994250  1
  H+  H168  1  0.01485445  0.88386674  0.12262931  1
  H+  H169  1  0.32687285  0.74656613  0.48060910  1
  H+  H170  1  0.63025890  0.85000888  0.16666013  1
  H+  H171  1  0.11048052  0.88545094  0.84135989  1
  H+  H172  1  0.12349639  0.01405710  0.50176697  1
  H+  H173  1  0.97095474  0.86372436  0.85275449  1
  H+  H174  1  0.83223555  0.36787979  0.82764411  1
  H+  H175  1  0.38692949  0.26786011  0.16927137  1
  H+  H176  1  0.85052104  0.71196394  0.67511321  1
  H+  H177  1  0.61539242  -0.01899701  1.00471442  1
  H+  H178  1  0.35979941  0.23193976  0.82106588  1
  H+  H179  1  0.50755280  0.13252125  0.81374770  1
  H+  H180  1  0.66394158  0.32237114  0.22512976  1
  H+  H181  1  0.17314018  0.86336966  0.59504705  1
  H+  H182  1  0.57009041  0.16969718  0.72666062  1
  H+  H183  1  0.65872386  0.00019798  0.51818463  1
  H+  H184  1  0.28488065  0.57476759  0.36677482  1
  H+  H185  1  0.38036954  0.27717248  0.00165408  1
  H+  H186  1  0.89244419  0.00774249  0.65519142  1
  H+  H187  1  0.60933175  0.24336343  0.48104992  1
  H+  H188  1  0.36706584  0.64539148  0.15732563  1
  H+  H189  1  0.90523072  0.33241554  0.90058801  1
  H+  H190  1  0.86227850  0.49628155  0.48396088  1
  H+  H191  1  0.72543161  0.12471873  -0.00513204  1
  H+  H192  1  0.49828559  0.82959190  0.31140191  1
  H+  H193  1  0.01877738  0.88280122  0.49000343  1
  H+  H194  1  0.17668740  0.33652990  0.59621778  1
  H+  H195  1  0.65957382  0.53851381  0.32909001  1
  H+  H196  1  0.51509768  0.38624274  0.01094500  1
  H+  H197  1  0.86278192  0.41213219  0.34483891  1
  H+  H198  1  0.16604007  0.34033477  0.26529587  1
  H+  H199  1  0.78131471  0.15824199  0.48764615  1
  H+  H200  1  0.12466916  0.01565819  0.32159691  1
  H+  H201  1  0.38335275  0.28330483  0.66017090  1
  H+  H202  1  0.67316485  0.84700672  0.90408242  1
  H+  H203  1  0.31518477  0.69367327  0.81779860  1
  H+  H204  1  0.91357683  0.82795212  0.60961538  1
  H+  H205  1  0.41069298  0.59615190  0.32618589  1
  H+  H206  1  0.12830882  0.77108061  0.50438778  1
  H+  H207  1  0.66812313  0.17247450  0.50791267  1
  H+  H208  1  0.14136876  0.26979226  0.66551867  1
  H+  H209  1  0.68395112  0.33651475  0.99156807  1
  H+  H210  1  0.36210330  -0.04019827  0.68799012  1
  H+  H211  1  0.40812423  0.08174595  0.93143484  1
  H+  H212  1  0.13530254  0.26861295  0.84868863  1
  H+  H213  1  0.38714104  0.35724583  0.16843907  1
  H+  H214  1  0.64423105  0.74722089  0.68303350  1
  H+  H215  1  0.64409039  0.87216608  0.65929673  1
  H+  H216  1  0.47162287  0.37146400  0.66796519  1
  H+  H217  1  0.27569313  0.38906707  0.16066565  1
  H+  H218  1  0.60819128  0.47724799  0.67063429  1
  H+  H219  1  0.62413758  0.09102098  0.32537081  1
  H+  H220  1  0.66588419  0.82231862  0.55811327  1
  H+  H221  1  1.00599757  0.37163446  0.82810642  1
  H+  H222  1  0.59965479  0.64457940  0.84113976  1
  H+  H223  1  0.62636086  0.60507067  1.01045431  1
  H+  H224  1  0.12682965  0.77507718  0.84832746  1
  H+  H225  1  0.16128674  0.83501407  0.90910470  1
  H+  H226  1  0.54162145  0.91116827  0.83688463  1
  H+  H227  1  0.86395434  0.61649815  0.44837285  1
  H+  H228  1  0.23417960  0.36081426  0.66876964  1
  H+  H229  1  0.11823128  0.66283049  0.15971221  1
  H+  H230  1  0.83838055  0.46483263  0.68293355  1
  H+  H231  1  0.33962099  0.93783352  0.07360907  1
  H+  H232  1  0.56126685  0.46181083  0.50044238  1
  H+  H233  1  0.78844328  0.44344200  0.95588268  1
  H+  H234  1  0.09190356  0.12304136  0.48379230  1
  H+  H235  1  0.73266692  0.61982473  0.17183832  1
  H+  H236  1  0.62638716  0.53579780  0.84648181  1
  H+  H237  1  0.64164872  0.61650452  0.66389176  1
  H+  H238  1  0.36189664  0.73393121  0.15405218  1
  H+  H239  1  0.97429883  0.61179776  0.18724760  1
  H+  H240  1  0.52498468  0.64695079  0.03361391  1
  H+  H241  1  0.57846196  0.38125211  0.49979755  1
  H+  H242  1  0.80148198  0.40974935  -0.04458524  1
  H+  H243  1  0.84578328  0.73181908  0.82811399  1
  H+  H244  1  0.38347685  0.64751251  1.00614890  1
  H+  H245  1  0.64043909  0.35695678  0.16634424  1
  H+  H246  1  0.81381873  0.40294973  0.51433693  1
  H+  H247  1  0.78309591  0.38585541  0.15901247  1
  H+  H248  1  0.65994040  0.76292146  0.49985334  1
  H+  H249  1  0.36418032  0.38574670  0.68470818  1
  H+  H250  1  0.83605287  0.19601722  0.32811682  1
  H+  H251  1  0.26460541  0.88709618  0.34026985  1
  H+  H252  1  0.37301815  0.10786855  0.83382557  1
  H+  H253  1  0.60584861  0.60033497  0.50489767  1
  H+  H254  1  0.36026207  0.96525922  0.33472845  1
  H+  H255  1  0.86032419  0.87134978  0.01889501  1
  H+  H256  1  0.96864034  0.64353398  0.97710738  1
  H+  H257  1  0.37050231  0.46591577  0.33631674  1
  H+  H258  1  0.12963478  0.56481883  0.99511112  1
  H+  H259  1  0.64679250  0.76646196  0.31087274  1
  H+  H260  1  0.45465368  0.06706043  0.15664005  1
  H+  H261  1  0.09528994  0.08155361  1.00973508  1
  H+  H262  1  0.64984593  0.02917186  0.84806719  1
  H+  H263  1  0.61336060  0.34081818  0.84908523  1
  H+  H264  1  0.37856495  0.74435934  0.00745575  1
  H+  H265  1  0.90758710  0.27930045  0.65125953  1
  H+  H266  1  0.71895361  0.10617994  0.17290780  1
  H+  H267  1  0.09131739  0.63910563  0.33447323  1
  H+  H268  1  1.00389746  0.12339952  0.48080007  1
  H+  H269  1  0.50570310  0.84454518  0.46897474  1
  H+  H270  1  0.12475848  0.85298822  0.01281350  1
  H+  H271  1  0.88598114  0.12132563  0.16859171  1
  H+  H272  1  0.27344669  0.38649353  0.33834538  1
  H+  H273  1  0.14818305  0.39096952  0.99216288  1
  H+  H274  1  0.88324531  0.01641418  0.84268026  1
  H+  H275  1  0.58675358  0.82886203  0.47646944  1
  H+  H276  1  0.65464399  0.52392068  0.17955345  1
  H+  H277  1  0.91969040  0.38717541  0.49526321  1
  H+  H278  1  0.87190592  0.13796027  0.67522961  1
  H+  H279  1  0.32832174  0.82386167  0.32846331  1
  H+  H280  1  0.63709675  0.96879640  0.34222204  1
  H+  H281  1  0.73284356  0.87283925  0.65785711  1
  H+  H282  1  0.08608301  0.72312354  0.33857420  1
  H+  H283  1  0.13400386  0.77006107  1.00418030  1
  H+  H284  1  0.12483575  0.63723090  0.06552166  1
  H+  H285  1  0.98219459  0.12092427  0.16843202  1
  H+  H286  1  0.38234629  0.86814691  1.00613150  1
  H+  H287  1  0.49962284  0.87217265  0.30829407  1
  H+  H288  1  0.65341872  0.06461823  0.26317185  1
  H+  H289  1  0.32884513  0.41323003  0.74647426  1
  H+  H290  1  0.33925851  0.17201277  0.06665287  1
  H+  H291  1  0.36557089  0.81906201  0.22262951  1
  H+  H292  1  0.90650378  0.83353074  0.90966047  1
  H+  H293  1  0.58633779  0.17259540  0.42692419  1
  H+  H294  1  0.59884198  0.88761614  0.39893928  1
  H+  H295  1  0.16371379  0.33356321  0.90513780  1
  H+  H296  1  0.89181964  0.36667541  0.16171140  1
  H+  H297  1  0.14440017  0.05771233  0.21319374  1
  H+  H298  1  0.68573288  0.10802469  0.60477752  1
  H+  H299  1  0.40821344  0.55887742  0.61594313  1
  H+  H300  1  -0.05241771  0.61727581  0.33027867  1
  H+  H301  1  0.32762041  0.41127027  0.43230038  1
  H+  H302  1  0.16540326  0.59898462  0.21669442  1
  H+  H303  1  0.83507909  0.91624426  0.73471277  1
  H+  H304  1  0.33649362  0.42204487  0.10204812  1
  H+  H305  1  0.94180635  0.34547894  0.33180005  1
  H+  H306  1  0.82763231  0.90805697  0.42315757  1
  H+  H307  1  0.96521516  0.93329973  0.54799575  1
  H+  H308  1  0.15464580  0.08963011  0.59906925  1
  H+  H309  1  0.40851107  0.82817079  0.55557206  1
  H+  H310  1  0.79361610  0.39840980  0.73693792  1
  H+  H311  1  0.91715438  0.57936162  0.62034292  1
  H+  H312  1  0.40494631  0.32110859  0.26074186  1
  H+  H313  1  0.60581975  0.20944239  0.33140832  1
  H+  H314  1  0.34757566  0.67838765  0.06889306  1
  H+  H315  1  0.69735151  0.59372416  0.26884128  1
  H+  H316  1  0.43235775  0.57563636  0.26038431  1
  H+  H317  1  0.06672370  0.66497168  0.43390830  1
  H+  H318  1  0.91931215  0.08898909  0.23263775  1
  H+  H319  1  0.97632586  0.06198640  0.61627108  1
  H+  H320  1  0.08183724  0.42711843  0.73360741  1
  H+  H321  1  0.04620087  0.79252000  0.71862724  1
  H+  H322  1  0.88977185  0.06602726  0.55408246  1
  H+  H323  1  0.92867864  0.85523747  0.20074436  1
  H+  H324  1  0.71718135  0.85358471  0.14395047  1
  H+  H325  1  0.27005428  0.38672358  0.83740406  1
  H+  H326  1  0.40811922  0.05125480  0.25305702  1
  H+  H327  1  0.47138382  0.61270453  0.15805982  1
  H+  H328  1  0.33015550  0.92229570  0.43345183  1
  H+  H329  1  0.81636650  0.14425012  0.41846329  1
  H+  H330  1  0.63190863  0.30554220  0.91356331  1
  H+  H331  1  0.75249914  0.64931693  0.83096033  1
  H+  H332  1  0.39272983  0.88000349  0.84802138  1
  H+  H333  1  0.75086942  0.22899507  0.54821451  1
  H+  H334  1  0.60017313  0.43192496  0.76316990  1
  H+  H335  1  0.93680070  0.32775822  0.58816193  1
  H+  H336  1  0.31631581  0.64248978  0.73196331  1
  H+  H337  1  0.33151896  0.17146174  0.72242774  1
  H+  H338  1  0.51534156  0.12302934  0.00391409  1
  H+  H339  1  0.32161490  0.89896611  0.77743404  1
  H+  H340  1  0.67811101  0.09486349  0.91240078  1
  H+  H341  1  0.59006726  0.42339598  0.40494118  1
  H+  H342  1  0.12074300  0.05078494  0.95027713  1
  H+  H343  1  0.87156146  0.47575913  0.17246851  1
  H+  H344  1  0.82997674  0.15941072  0.09873254  1
  H+  H345  1  0.30470306  0.66582295  0.44079470  1
  H+  H346  1  0.47270545  0.36459460  0.84527462  1
  H+  H347  1  0.20960207  0.10478411  0.31348415  1
  H+  H348  1  0.58754246  0.41544320  0.10033229  1
  H+  H349  1  0.07190119  0.16405529  0.39177270  1
  H+  H350  1  0.35896894  0.47752987  0.83856867  1
  H+  H351  1  0.64101013  0.87133842  0.99229975  1
  H+  H352  1  0.03168796  0.57383703  0.03906473  1
  H+  H353  1  0.57511914  0.15247841  0.09555933  1
  H+  H354  1  0.62892447  0.67672530  0.42231050  1
  H+  H355  1  0.81470199  0.41928608  0.40066592  1
  H+  H356  1  0.64728635  0.58644850  0.91022244  1
  H+  H357  1  0.63024440  0.34859730  0.32600440  1
  H+  H358  1  0.42844015  0.12021789  0.55549461  1
  H+  H359  1  0.16141571  0.59353018  0.60750016  1
  H+  H360  1  0.16704613  0.54152870  0.90412003  1
  H+  H361  1  0.41850266  0.84863988  0.94475329  1
  H+  H362  1  0.89864253  0.06491397  0.94000866  1
  H+  H363  1  0.40250865  0.03334610  0.61373557  1
  H+  H364  1  0.24679463  0.59607665  0.82878301  1
  H+  H365  1  0.10405720  0.44911039  0.05451881  1
  H+  H366  1  0.60314071  0.93841357  0.74403687  1
  H+  H367  1  0.44212270  0.20366998  0.36963851  1
  H+  H368  1  0.35010030  0.11276072  0.15708958  1
  H+  H369  1  0.83856771  0.16335178  0.77197472  1
  H+  H370  1  0.08327130  0.68415997  0.77636172  1
  H+  H371  1  0.67232751  0.82626917  0.25006883  1
  H+  H372  1  0.81328178  0.65772206  0.73577220  1
  H+  H373  1  0.12841406  0.44507480  0.44313141  1
  H+  H374  1  0.86184189  0.61107511  0.51743019  1
  H+  H375  1  0.58209963  0.67854325  0.77960502  1
  H+  H376  1  0.42127016  0.59524863  0.94162434  1
  H+  H377  1  0.06642577  0.69095508  0.11536877  1
  H+  H378  1  0.90344260  0.58022621  0.23932644  1
  H+  H379  1  0.61256733  0.56294238  0.57101799  1
  H+  H380  1  0.76023998  0.71880142  0.11330026  1
  H+  H381  1  0.89851329  0.46433716  0.07960244  1
  H+  H382  1  0.08619994  0.16500517  0.77827592  1
  H+  H383  1  0.97754960  0.11502645  0.31979899  1
  O2-  O384  1  0.07526553  0.16444686  0.14410331  1
  O2-  O385  1  0.06281658  0.15199196  0.46501470  1
  O2-  O386  1  0.08174848  0.16273906  0.82362070  1
  O2-  O387  1  0.09398926  0.43198171  0.12905363  1
  O2-  O388  1  0.11162549  0.43509428  0.48644809  1
  O2-  O389  1  0.06593283  0.39870726  0.81199304  1
  O2-  O390  1  0.08757564  0.69612010  0.15689333  1
  O2-  O391  1  0.06273414  0.66568910  0.47911089  1
  O2-  O392  1  0.07981054  0.68700139  0.82144775  1
  O2-  O393  1  0.07679915  0.91251528  0.10696428  1
  O2-  O394  1  0.07731225  0.91040532  0.47229843  1
  O2-  O395  1  0.08035531  0.91627658  0.82482196  1
  O2-  O396  1  0.32989491  0.15362413  0.14787636  1
  O2-  O397  1  0.31702946  0.15574423  0.46509276  1
  O2-  O398  1  0.32900573  0.17360520  0.80187943  1
  O2-  O399  1  0.33671763  0.41949774  0.14761318  1
  O2-  O400  1  0.32513865  0.40301504  0.47799173  1
  O2-  O401  1  0.33078571  0.41747031  0.82217473  1
  O2-  O402  1  0.33594403  0.67338233  0.13887096  1
  O2-  O403  1  0.27836404  0.69574708  0.46064323  1
  O2-  O404  1  0.30790307  0.63759269  0.80830576  1
  O2-  O405  1  0.34788232  0.95068043  0.14967639  1
  O2-  O406  1  0.33123760  0.92369097  0.47905369  1
  O2-  O407  1  0.32541258  0.90702027  0.82245351  1
  O2-  O408  1  0.57229369  0.14871219  0.14133251  1
  O2-  O409  1  0.58880442  0.18169370  0.47215165  1
  O2-  O410  1  0.56572607  0.16478998  0.79585667  1
  O2-  O411  1  0.59181485  0.41448133  0.14579896  1
  O2-  O412  1  0.54418833  0.40468955  0.48033555  1
  O2-  O413  1  0.61494511  0.44045506  0.80795592  1
  O2-  O414  1  0.56974239  0.66029759  0.11657118  1
  O2-  O415  1  0.65325130  0.68041041  0.46366037  1
  O2-  O416  1  0.57093710  0.67611046  0.82381332  1
  O2-  O417  1  0.57448081  0.89748884  0.18496032  1
  O2-  O418  1  0.54876713  0.83595099  0.44660331  1
  O2-  O419  1  0.60113638  0.93645457  0.82061691  1
  O2-  O420  1  0.83335351  0.16104669  0.14456634  1
  O2-  O421  1  0.82719631  0.15304864  0.46389856  1
  O2-  O422  1  0.83502192  0.16108573  0.81737112  1
  O2-  O423  1  0.84614548  0.41753304  0.15089359  1
  O2-  O424  1  0.84550893  0.43399980  0.47830549  1
  O2-  O425  1  0.79786723  0.39424128  0.81459553  1
  O2-  O426  1  0.80213819  0.70101926  0.12210087  1
  O2-  O427  1  0.75605368  0.62663981  0.45532265  1
  O2-  O428  1  0.80599074  0.67795517  0.80667984  1
  O2-  O429  1  0.82498417  0.90798832  0.10073153  1
  O2-  O430  1  0.82622315  0.91232309  0.46883051  1
  O2-  O431  1  0.83189197  0.91641961  0.81243781  1
  O2-  O432  1  0.15073542  0.06998165  0.16908518  1
  O2-  O433  1  0.14908419  0.07490964  0.51589408  1
  O2-  O434  1  0.16377360  0.07392478  0.86605993  1
  O2-  O435  1  0.16463320  0.33828186  0.18519276  1
  O2-  O436  1  0.17352272  0.34285068  0.53872259  1
  O2-  O437  1  0.16388302  0.33060140  0.86011467  1
  O2-  O438  1  0.16569683  0.59754605  0.17135829  1
  O2-  O439  1  0.14691223  0.58758650  0.52831959  1
  O2-  O440  1  0.16658633  0.55055800  0.85987075  1
  O2-  O441  1  0.18672590  0.87334371  0.19180532  1
  O2-  O442  1  0.15966922  0.83275830  0.51698068  1
  O2-  O443  1  0.16311984  0.83804604  0.86417180  1
  O2-  O444  1  0.39602890  0.04070069  0.17476553  1
  O2-  O445  1  0.42318142  0.10310258  0.51277642  1
  O2-  O446  1  0.40319755  0.07930827  0.85098531  1
  O2-  O447  1  0.41758664  0.32792183  0.18436081  1
  O2-  O448  1  0.38737009  0.30887794  0.50638058  1
  O2-  O449  1  0.41204944  0.33170491  0.85634608  1
  O2-  O450  1  0.41612267  0.58751427  0.18068473  1
  O2-  O451  1  0.43105650  0.54314929  0.54658450  1
  O2-  O452  1  0.40892032  0.58343137  0.86469791  1
  O2-  O453  1  0.39119793  0.83436711  0.18189790  1
  O2-  O454  1  0.41374608  0.83794301  0.51127050  1
  O2-  O455  1  0.43570165  0.86377521  0.86497699  1
  O2-  O456  1  0.66018377  0.07739997  0.18976857  1
  O2-  O457  1  0.71717238  0.17216967  0.53007697  1
  O2-  O458  1  0.68272919  0.09126297  0.86335953  1
  O2-  O459  1  0.66894502  0.32393978  0.18025671  1
  O2-  O460  1  0.64340208  0.34163176  0.52007222  1
  O2-  O461  1  0.63945961  0.30796774  0.86433337  1
  O2-  O462  1  0.68504770  0.58092732  0.19917502  1
  O2-  O463  1  0.57536830  0.54886052  0.53414034  1
  O2-  O464  1  0.64810672  0.59337213  0.86457070  1
  O2-  O465  1  0.66385518  0.81885880  0.16744531  1
  O2-  O466  1  0.66627680  0.81983928  0.51317125  1
  O2-  O467  1  0.66978705  0.84645164  0.85703745  1
  O2-  O468  1  0.92029907  0.09336913  0.18547626  1
  O2-  O469  1  0.88667054  0.06766773  0.50911959  1
  O2-  O470  1  0.91121965  0.07548393  0.86140074  1
  O2-  O471  1  0.92590392  0.33434362  0.16715689  1
  O2-  O472  1  0.93764276  0.34404879  0.49092081  1
  O2-  O473  1  0.90235395  0.32839213  0.85549372  1
  O2-  O474  1  0.91409949  0.57012238  0.19609462  1
  O2-  O475  1  0.88784051  0.59819766  0.48303927  1
  O2-  O476  1  0.91859068  0.56406697  0.85613992  1
  O2-  O477  1  0.92489871  0.85323980  0.15487859  1
  O2-  O478  1  0.93049397  0.87420118  0.53406011  1
  O2-  O479  1  0.90939154  0.83662374  0.86422759  1
  O2-  O480  1  0.14909743  0.07403349  0.30218795  1
  O2-  O481  1  0.15799055  0.09641738  0.64384680  1
  O2-  O482  1  0.12077514  0.04745315  0.99478991  1
  O2-  O483  1  0.16821245  0.34243769  0.31065895  1
  O2-  O484  1  0.17615522  0.32983025  0.64832406  1
  O2-  O485  1  0.17267411  0.35175063  0.98556240  1
  O2-  O486  1  0.16997282  0.61482729  0.29655549  1
  O2-  O487  1  0.16918701  0.59590980  0.65244118  1
  O2-  O488  1  0.16007695  0.53221881  0.98555006  1
  O2-  O489  1  0.17237902  0.82203716  0.29974564  1
  O2-  O490  1  0.18689138  0.89337908  0.63479117  1
  O2-  O491  1  0.16025819  0.83074305  0.99330311  1
  O2-  O492  1  0.41584715  0.06068120  0.29823149  1
  O2-  O493  1  0.40935058  0.06923526  0.64886935  1
  O2-  O494  1  0.41120213  0.08420946  0.97662230  1
  O2-  O495  1  0.39938586  0.31294024  0.30589441  1
  O2-  O496  1  0.41075693  0.34643396  0.65460874  1
  O2-  O497  1  0.40723130  0.33918748  0.98643196  1
  O2-  O498  1  0.43823086  0.56789679  0.30478229  1
  O2-  O499  1  0.39646051  0.56320930  0.66054347  1
  O2-  O500  1  0.42196094  0.59822479  0.98735055  1
  O2-  O501  1  0.32976230  0.77469212  0.30713937  1
  O2-  O502  1  0.40312685  0.80647891  0.64135920  1
  O2-  O503  1  0.41281690  0.83829448  0.98936243  1
  O2-  O504  1  0.65445677  0.06090112  0.30932543  1
  O2-  O505  1  0.68321791  0.10271979  0.64947029  1
  O2-  O506  1  0.66802641  0.09422610  0.97486789  1
  O2-  O507  1  0.65423870  0.31385347  0.30907504  1
  O2-  O508  1  0.65129278  0.33264080  0.63644085  1
  O2-  O509  1  0.62463568  0.30510749  0.97772381  1
  O2-  O510  1  0.69503318  0.59830762  0.31525146  1
  O2-  O511  1  0.65833393  0.57871320  0.64190297  1
  O2-  O512  1  0.65021424  0.57709545  0.98469356  1
  O2-  O513  1  0.67543000  0.82815360  0.29542543  1
  O2-  O514  1  0.67183247  0.84054538  0.64358597  1
  O2-  O515  1  0.67126599  0.84303412  0.97348122  1
  O2-  O516  1  0.91758577  0.07979102  0.30152246  1
  O2-  O517  1  0.92712429  0.06439347  0.63272418  1
  O2-  O518  1  0.89842771  0.06996141  0.98532342  1
  O2-  O519  1  0.95835177  0.39042044  0.36221071  1
  O2-  O520  1  0.93909375  0.33636782  0.63215608  1
  O2-  O521  1  0.92417590  0.34389091  0.98191596  1
  O2-  O522  1  0.88939793  0.59223285  0.31282771  1
  O2-  O523  1  0.91304589  0.57817106  0.66442073  1
  O2-  O524  1  0.90899855  0.59801250  0.97937220  1
  O2-  O525  1  0.92954517  0.84763033  0.27575051  1
  O2-  O526  1  0.90766902  0.81935825  0.65424579  1
  O2-  O527  1  0.89816031  0.82684357  0.98996501  1
  O2-  O528  1  0.05769482  0.15689209  0.01955396  1
  O2-  O529  1  0.07515163  0.17019236  0.34566427  1
  O2-  O530  1  0.08941154  0.17486007  0.69838458  1
  O2-  O531  1  0.10025094  0.44512290  0.00821545  1
  O2-  O532  1  0.13941417  0.46629035  0.35701936  1
  O2-  O533  1  0.09242543  0.43979523  0.68963990  1
  O2-  O534  1  0.08938870  0.62565972  0.02938422  1
  O2-  O535  1  0.05952575  0.66402495  0.35470987  1
  O2-  O536  1  0.08565843  0.68350837  0.69789571  1
  O2-  O537  1  0.06570861  0.89783198  0.04076895  1
  O2-  O538  1  0.08157770  0.91440217  0.34919517  1
  O2-  O539  1  0.05589668  0.84920679  0.70697713  1
  O2-  O540  1  0.34159720  0.18069888  0.02211280  1
  O2-  O541  1  0.38384630  0.17870173  0.35373403  1
  O2-  O542  1  0.33006566  0.17081415  0.67709058  1
  O2-  O543  1  0.34110908  0.43436658  0.02489726  1
  O2-  O544  1  0.33173144  0.40984419  0.35670470  1
  O2-  O545  1  0.32917214  0.41407553  0.70057855  1
  O2-  O546  1  0.35289084  0.68156216  0.02227927  1
  O2-  O547  1  0.34280439  0.62356626  0.37236264  1
  O2-  O548  1  0.32161337  0.64508937  0.68626272  1
  O2-  O549  1  0.33369942  0.92342215  0.02867046  1
  O2-  O550  1  0.32395556  0.90934761  0.35659080  1
  O2-  O551  1  0.32901694  0.89839316  0.69915537  1
  O2-  O552  1  0.57619493  0.15544751  0.01825314  1
  O2-  O553  1  0.57786263  0.15003490  0.34950021  1
  O2-  O554  1  0.57148577  0.16719249  0.67946322  1
  O2-  O555  1  0.57668610  0.41179665  0.02227775  1
  O2-  O556  1  0.62838333  0.43474404  0.36940947  1
  O2-  O557  1  0.57865170  0.41846014  0.68917972  1
  O2-  O558  1  0.58342395  0.66827943  0.05027616  1
  O2-  O559  1  0.60730660  0.67378921  0.34277172  1
  O2-  O560  1  0.64056099  0.69856597  0.70773420  1
  O2-  O561  1  0.59057808  0.92167221  0.01972427  1
  O2-  O562  1  0.64464251  0.92324005  0.36320917  1
  O2-  O563  1  0.59826225  0.93799744  0.69821410  1
  O2-  O564  1  0.83128927  0.17026011  0.02275634  1
  O2-  O565  1  0.81120449  0.13853022  0.34533621  1
  O2-  O566  1  0.84717186  0.17085055  0.69253306  1
  O2-  O567  1  0.93205724  0.48562618  0.04134089  1
  O2-  O568  1  0.81357049  0.41914524  0.35562287  1
  O2-  O569  1  0.79569081  0.40434640  0.69165017  1
  O2-  O570  1  0.83004883  0.67272493  0.01535155  1
  O2-  O571  1  0.81841276  0.66430541  0.40625898  1
  O2-  O572  1  0.81870563  0.65160031  0.69031412  1
  O2-  O573  1  0.83278058  0.91032698  0.03361140  1
  O2-  O574  1  0.83585378  0.90914621  0.34641847  1
  O2-  O575  1  0.83569122  0.91409322  0.68895192  1
