# generated using pymatgen
data_H2O
_symmetry_space_group_name_H-M   'P 1'
_cell_length_a   17.98319514
_cell_length_b   17.97340360
_cell_length_c   21.99731976
_cell_angle_alpha   89.98515689
_cell_angle_beta   90.04051003
_cell_angle_gamma   119.95623051
_symmetry_Int_Tables_number   1
_chemical_formula_structural   H2O
_chemical_formula_sum   'H384 O192'
_cell_volume   6160.11541312
_cell_formula_units_Z   192
loop_
 _symmetry_equiv_pos_site_id
 _symmetry_equiv_pos_as_xyz
  1  'x, y, z'
loop_
 _atom_type_symbol
 _atom_type_oxidation_number
  H+  1.0
  O2-  -2.0
loop_
 _atom_site_type_symbol
 _atom_site_label
 _atom_site_symmetry_multiplicity
 _atom_site_fract_x
 _atom_site_fract_y
 _atom_site_fract_z
 _atom_site_occupancy
  H+  H0  1  0.84230565  0.66977479  0.40320487  1
  H+  H1  1  0.37736989  0.98046964  0.82515437  1
  H+  H2  1  0.38426550  0.89452141  0.82201186  1
  H+  H3  1  0.35264220  0.92657504  0.73705540  1
  H+  H4  1  0.06910889  0.67323096  0.73676884  1
  H+  H5  1  0.87241492  0.84548698  0.15906896  1
  H+  H6  1  0.47803392  0.62237295  0.51127974  1
  H+  H7  1  0.47875392  0.36642997  0.84036366  1
  H+  H8  1  0.40223731  0.57829460  0.23011457  1
  H+  H9  1  0.15854737  0.55269202  0.68070716  1
  H+  H10  1  0.12753459  0.02264402  0.83217190  1
  H+  H11  1  0.47912948  0.62064091  0.98990713  1
  H+  H12  1  0.12153922  0.39930426  0.33536331  1
  H+  H13  1  0.15924245  0.13851310  0.65580978  1
  H+  H14  1  0.36773420  -0.01548766  0.16839942  1
  H+  H15  1  0.41511032  0.87656164  0.67301949  1
  H+  H16  1  0.18612669  0.33763747  0.94480329  1
  H+  H17  1  0.36377513  0.11239926  0.50206861  1
  H+  H18  1  0.13889584  0.52474936  0.32546520  1
  H+  H19  1  0.23610133  0.10959657  0.50373535  1
  H+  H20  1  0.86908218  0.24391302  0.33083155  1
  H+  H21  1  0.82311423  0.36267136  0.64667111  1
  H+  H22  1  0.62261423  0.19127162  0.68660875  1
  H+  H23  1  0.15087180  0.03753661  0.17218116  1
  H+  H24  1  0.23256715  0.87368584  0.18537926  1
  H+  H25  1  0.39281762  0.52874643  0.99519051  1
  H+  H26  1  0.39316584  0.38377836  0.51073258  1
  H+  H27  1  0.72637498  0.61738854  0.33623082  1
  H+  H28  1  0.16200395  0.13093026  0.17463199  1
  H+  H29  1  0.37334222  0.64669893  -0.00366799  1
  H+  H30  1  0.58071435  0.14125464  0.77918081  1
  H+  H31  1  0.72278471  0.86431531  0.17758114  1
  H+  H32  1  0.60616438  0.28130549  0.28885822  1
  H+  H33  1  0.91080905  0.58111993  0.61299848  1
  H+  H34  1  0.87034812  0.01310432  0.49856794  1
  H+  H35  1  0.22300716  0.60002877  0.16361057  1
  H+  H36  1  0.73086128  0.60303337  0.98878791  1
  H+  H37  1  0.62119330  0.89320397  0.77503390  1
  H+  H38  1  0.75179896  0.88931761  0.33424160  1
  H+  H39  1  0.11169355  0.88217796  0.67665425  1
  H+  H40  1  0.38202736  0.62868948  0.32430999  1
  H+  H41  1  0.36860331  0.19994207  0.48016296  1
  H+  H42  1  0.03300569  0.45989082  0.03221219  1
  H+  H43  1  0.24868720  0.13646642  0.65405923  1
  H+  H44  1  -0.02190345  0.61855651  -0.00201705  1
  H+  H45  1  0.14909246  0.36925586  0.18610962  1
  H+  H46  1  0.14884060  0.63360294  0.66942177  1
  H+  H47  1  0.39421554  0.61737699  0.66468103  1
  H+  H48  1  0.38826739  0.27476667  0.18693658  1
  H+  H49  1  0.11445031  0.88175035  0.50913409  1
  H+  H50  1  0.49562651  0.61130373  0.34487849  1
  H+  H51  1  0.08552442  0.42782163  0.39372854  1
  H+  H52  1  0.62799255  0.26596718  0.84347534  1
  H+  H53  1  0.48350800  0.37913497  0.66131980  1
  H+  H54  1  0.18073843  0.41962718  0.02771171  1
  H+  H55  1  0.59827094  0.37229760  0.49204982  1
  H+  H56  1  0.76101303  0.38563982  0.31036162  1
  H+  H57  1  0.17862169  0.34830170  0.25138643  1
  H+  H58  1  0.73015443  0.11603446  0.50232881  1
  H+  H59  1  0.09514452  0.89270292  0.13547083  1
  H+  H60  1  0.61288929  0.21950805  -0.00018190  1
  H+  H61  1  0.79519272  0.42172528  0.17622285  1
  H+  H62  1  0.77857461  0.63437557  0.16452617  1
  H+  H63  1  0.65654509  0.11919753  0.98842767  1
  H+  H64  1  0.85224333  0.83083347  0.81664848  1
  H+  H65  1  0.02088722  0.48429132  1.01014000  1
  H+  H66  1  0.39970526  0.78165860  0.83620921  1
  H+  H67  1  0.62918593  0.14567199  0.15648930  1
  H+  H68  1  0.11019590  0.78119096  0.84646633  1
  H+  H69  1  0.48388128  0.37436314  0.50727678  1
  H+  H70  1  0.89139508  0.31901377  0.93827444  1
  H+  H71  1  0.02335504  0.63241563  0.67519926  1
  H+  H72  1  0.88070761  0.86578407  -0.00686725  1
  H+  H73  1  0.41797560  0.58282775  0.90001775  1
  H+  H74  1  1.02915627  0.30314507  0.98374410  1
  H+  H75  1  0.41224576  0.78683794  0.67250231  1
  H+  H76  1  0.54189434  0.88235315  0.68648653  1
  H+  H77  1  0.64584050  0.85732432  0.65886053  1
  H+  H78  1  0.14566414  0.77760084  0.66931403  1
  H+  H79  1  0.11427732  0.71381245  0.34585287  1
  H+  H80  1  0.09651873  0.88745369  0.83269202  1
  H+  H81  1  0.96357764  0.02393317  0.18533693  1
  H+  H82  1  0.00079640  0.38004183  0.62918631  1
  H+  H83  1  0.77229790  0.12690530  0.82585113  1
  H+  H84  1  0.14237580  0.77096956  0.51951397  1
  H+  H85  1  0.32993150  0.68089514  0.43788865  1
  H+  H86  1  0.16582062  0.54897875  0.99959846  1
  H+  H87  1  0.52591568  0.87883097  1.00500748  1
  H+  H88  1  0.52280377  0.12381533  0.83756589  1
  H+  H89  1  0.14393622  0.61855249  0.17037911  1
  H+  H90  1  0.88376117  0.77915484  0.99657829  1
  H+  H91  1  0.34372931  0.75539581  0.18232500  1
  H+  H92  1  0.62005002  0.25345324  0.50042972  1
  H+  H93  1  0.74543675  0.38734028  0.65968033  1
  H+  H94  1  0.51877009  0.38423645  0.19513931  1
  H+  H95  1  0.64999730  0.00626174  0.84506983  1
  H+  H96  1  1.04007132  0.15147900  1.00989983  1
  H+  H97  1  0.99849113  0.33705154  0.63401323  1
  H+  H98  1  0.62490290  0.72966226  0.15725654  1
  H+  H99  1  0.74183247  0.78997200  0.11793922  1
  H+  H100  1  0.91719324  0.08963434  0.25053563  1
  H+  H101  1  0.36553873  0.47946361  0.17560654  1
  H+  H102  1  0.13836942  0.36105943  0.48701446  1
  H+  H103  1  0.77976225  0.64068800  0.67957410  1
  H+  H104  1  0.64707896  0.65439923  0.15365492  1
  H+  H105  1  0.29367475  0.14306980  0.17096467  1
  H+  H106  1  0.63990774  0.61256983  0.50942132  1
  H+  H107  1  0.22965021  0.36438875  0.84750053  1
  H+  H108  1  0.67235198  0.06955693  0.59597509  1
  H+  H109  1  0.81323138  0.46324075  0.45864871  1
  H+  H110  1  0.38931400  0.36487427  0.84202388  1
  H+  H111  1  0.60946118  0.40095598  0.67260857  1
  H+  H112  1  0.36442570  0.63370030  0.82983223  1
  H+  H113  1  -0.00768968  0.63071203  0.17010090  1
  H+  H114  1  0.73358871  0.85587897  0.65386551  1
  H+  H115  1  0.62173977  1.00795605  0.12833649  1
  H+  H116  1  0.39980808  0.11333556  0.66665225  1
  H+  H117  1  0.89937542  0.62761253  0.17058198  1
  H+  H118  1  0.13605122  0.23658724  0.16602494  1
  H+  H119  1  0.11676644  0.38727860  0.85520578  1
  H+  H120  1  0.60727051  0.73961504  0.82383480  1
  H+  H121  1  0.61696634  0.46336476  1.00680665  1
  H+  H122  1  0.02343397  0.38912799  0.49086531  1
  H+  H123  1  0.14785438  0.42834057  0.70074167  1
  H+  H124  1  0.29117631  0.38905004  1.01404554  1
  H+  H125  1  0.62860155  0.85524016  0.98170998  1
  H+  H126  1  0.65587950  0.80781207  0.33618860  1
  H+  H127  1  0.89451495  0.28609989  0.17064074  1
  H+  H128  1  0.94855056  0.36058879  0.99588827  1
  H+  H129  1  0.49527174  0.14460070  0.27367155  1
  H+  H130  1  0.88333229  0.25984758  0.84572664  1
  H+  H131  1  0.46267787  0.36971220  0.33532806  1
  H+  H132  1  0.86589662  0.87333066  0.67246123  1
  H+  H133  1  0.36038443  0.90522351  0.34686616  1
  H+  H134  1  0.57843334  0.82628006  0.15962925  1
  H+  H135  1  0.64435189  1.02299108  0.50268693  1
  H+  H136  1  0.28812370  0.65530877  0.99641446  1
  H+  H137  1  0.86866520  0.64712418  0.00591259  1
  H+  H138  1  0.48572867  0.81477932  0.15409507  1
  H+  H139  1  0.88401634  0.50307809  0.16307661  1
  H+  H140  1  0.92737482  0.99561877  0.20640019  1
  H+  H141  1  0.03034010  0.11923376  0.67046981  1
  H+  H142  1  0.70634982  0.34604522  0.49165270  1
  H+  H143  1  0.97981262  0.37841131  0.32328710  1
  H+  H144  1  0.88198053  0.77315083  0.31956780  1
  H+  H145  1  0.39112617  0.37273580  0.65927210  1
  H+  H146  1  0.36330051  0.98341929  0.00157235  1
  H+  H147  1  0.42898230  0.84275851  0.89361410  1
  H+  H148  1  0.90568258  0.53535954  0.51930776  1
  H+  H149  1  0.89047924  0.76818007  0.66129938  1
  H+  H150  1  0.01291619  0.89700299  0.15560748  1
  H+  H151  1  0.13451923  0.11503558  0.83319832  1
  H+  H152  1  0.36097940  0.22568679  0.82747769  1
  H+  H153  1  0.88423065  0.52380968  0.31666157  1
  H+  H154  1  0.22316107  0.84578749  0.34976751  1
  H+  H155  1  0.61378998  0.48213885  0.34499921  1
  H+  H156  1  1.01767426  0.62240846  0.33455186  1
  H+  H157  1  0.73228395  0.63916856  0.83571388  1
  H+  H158  1  0.60003972  0.28423402  0.64148179  1
  H+  H159  1  0.64784698  0.00763036  0.15490112  1
  H+  H160  1  0.39506150  0.36128855  -0.00250738  1
  H+  H161  1  0.73105914  0.85666862  0.49988144  1
  H+  H162  1  0.02157410  0.14011902  0.83002292  1
  H+  H163  1  0.86585786  0.87898594  0.49029487  1
  H+  H164  1  0.06848139  0.15084502  0.32539404  1
  H+  H165  1  0.78233838  0.15434826  0.32878347  1
  H+  H166  1  1.03605126  0.64527850  0.51099110  1
  H+  H167  1  0.90169616  0.12856380  0.99334742  1
  H+  H168  1  0.14317936  0.85547279  0.21184212  1
  H+  H169  1  0.52403568  0.11550425  0.67838340  1
  H+  H170  1  0.62448328  0.35438990  0.99771232  1
  H+  H171  1  0.92631535  0.59401034  0.26373674  1
  H+  H172  1  0.62593552  0.89365058  0.48866044  1
  H+  H173  1  0.49631330  0.07476832  0.17154900  1
  H+  H174  1  0.63463785  0.96449275  0.68073248  1
  H+  H175  1  0.76345011  0.88887844  0.81637991  1
  H+  H176  1  0.11403729  0.74006726  0.00869964  1
  H+  H177  1  0.65397199  0.32625366  0.90175217  1
  H+  H178  1  0.86494080  0.22462969  0.01826804  1
  H+  H179  1  0.37158080  0.53415756  0.32467855  1
  H+  H180  1  0.12165168  0.65427695  0.00612341  1
  H+  H181  1  0.48275632  0.61576749  0.66140775  1
  H+  H182  1  0.13925951  0.27589033  0.84906720  1
  H+  H183  1  0.13039889  0.03069404  0.98286294  1
  H+  H184  1  0.50599350  0.54390792  0.38250008  1
  H+  H185  1  0.85246160  0.37030023  0.83638623  1
  H+  H186  1  0.11450383  0.37399709  0.61192905  1
  H+  H187  1  0.55957824  0.85366802  0.06363125  1
  H+  H188  1  0.67249975  0.83069959  0.55995418  1
  H+  H189  1  0.13179352  0.61173208  0.84024729  1
  H+  H190  1  0.02609723  0.29597498  0.01751995  1
  H+  H191  1  0.39474444  0.01965308  0.66757963  1
  H+  H192  1  1.03112696  0.38881912  0.16415734  1
  H+  H193  1  0.38934949  0.11544405  0.84155594  1
  H+  H194  1  0.37814555  0.23278192  0.67560833  1
  H+  H195  1  0.11535611  0.09671294  0.33773680  1
  H+  H196  1  0.84624494  0.47121585  0.66681243  1
  H+  H197  1  0.11510831  0.47530150  0.49837390  1
  H+  H198  1  0.86654650  0.64008159  0.34152203  1
  H+  H199  1  0.88655027  0.53072251  0.00043368  1
  H+  H200  1  0.10274609  0.86495556  0.33337495  1
  H+  H201  1  0.37742928  0.22437375  0.01623215  1
  H+  H202  1  0.37304385  0.48727602  0.67327927  1
  H+  H203  1  0.25873847  0.54372304  0.09554260  1
  H+  H204  1  0.89149754  0.61718052  0.51389221  1
  H+  H205  1  0.63788061  0.62439991  0.83764773  1
  H+  H206  1  0.11780388  0.47780046  0.17184554  1
  H+  H207  1  0.75233638  0.90255076  -0.00603679  1
  H+  H208  1  1.02028846  0.87560403  0.31891148  1
  H+  H209  1  0.76674870  0.37523955  0.83410384  1
  H+  H210  1  0.61649301  0.72880114  0.66962861  1
  H+  H211  1  0.88381844  0.50211312  0.84667211  1
  H+  H212  1  0.20131028  0.45612845  0.59849764  1
  H+  H213  1  0.89733163  0.37800445  0.17076921  1
  H+  H214  1  0.26464101  0.40408120  0.34069845  1
  H+  H215  1  0.57399415  0.65433634  0.44255840  1
  H+  H216  1  0.62037819  0.36579508  0.25067623  1
  H+  H217  1  0.47939056  0.10728706  -0.01025857  1
  H+  H218  1  0.61753276  0.72668286  0.49566181  1
  H+  H219  1  0.28383637  0.39930243  0.67146746  1
  H+  H220  1  0.98247568  0.02114588  0.60656044  1
  H+  H221  1  0.12485847  0.14484878  0.00319648  1
  H+  H222  1  0.39546725  0.78685818  0.98889499  1
  H+  H223  1  0.60391392  0.38974190  0.33908661  1
  H+  H224  1  0.86583720  0.72568983  0.15978623  1
  H+  H225  1  0.27153630  0.13605592  0.82310518  1
  H+  H226  1  0.64143800  0.53406476  0.66551933  1
  H+  H227  1  0.39484497  0.11600638  1.00092164  1
  H+  H228  1  0.14705595  0.30454813  0.33611033  1
  H+  H229  1  0.84740366  0.38697536  0.01032310  1
  H+  H230  1  0.91429446  0.82440752  0.56754358  1
  H+  H231  1  0.75744368  0.17565469  0.18849124  1
  H+  H232  1  0.12680223  0.73252704  0.16213778  1
  H+  H233  1  0.61702987  0.64103843  0.67478725  1
  H+  H234  1  0.15705707  0.27867366  0.00450980  1
  H+  H235  1  0.63056116  0.60636673  0.33587924  1
  H+  H236  1  0.83509108  0.25823673  0.64099115  1
  H+  H237  1  0.36078991  0.74308275  0.34325402  1
  H+  H238  1  0.29220505  0.65441815  0.67624764  1
  H+  H239  1  0.35805974  0.80445498  0.49674532  1
  H+  H240  1  0.22150912  0.87500668  0.99606630  1
  H+  H241  1  0.38972609  0.00864951  0.51808000  1
  H+  H242  1  0.86067761  0.13691489  0.48636455  1
  H+  H243  1  0.88026907  0.60460144  0.67494105  1
  H+  H244  1  0.36858464  0.58475551  0.16226913  1
  H+  H245  1  0.14663527  0.12766228  0.49576200  1
  H+  H246  1  0.27404316  0.65149836  0.34197106  1
  H+  H247  1  0.86082316  0.96766624  0.82212203  1
  H+  H248  1  0.23070026  0.61503358  0.51411038  1
  H+  H249  1  0.98884264  0.63508338  0.82532692  1
  H+  H250  1  0.47653053  0.61657996  0.83964301  1
  H+  H251  1  0.28448458  0.07232808  0.33938803  1
  H+  H252  1  0.60420166  0.99092057  0.33972397  1
  H+  H253  1  0.26725993  0.38042386  0.18032450  1
  H+  H254  1  0.61484135  0.39246699  0.82829670  1
  H+  H255  1  0.29087570  0.89345743  0.67749950  1
  H+  H256  1  -0.01963144  0.85784743  0.66154210  1
  H+  H257  1  0.64092140  0.52408561  0.18778588  1
  H+  H258  1  0.23154358  0.85835894  0.51909370  1
  H+  H259  1  0.61032981  0.73097359  -0.01051350  1
  H+  H260  1  0.01441909  0.89376001  0.00014305  1
  H+  H261  1  0.07408870  0.93841683  0.05765194  1
  H+  H262  1  0.52142550  0.12482132  0.49844594  1
  H+  H263  1  0.37671402  0.37505363  0.33245624  1
  H+  H264  1  0.63565188  0.08452311  0.65891632  1
  H+  H265  1  0.85094229  0.38483610  0.31959779  1
  H+  H266  1  0.97810329  0.85526272  0.51067785  1
  H+  H267  1  0.83915052  0.91023679  0.42894572  1
  H+  H268  1  0.27797601  0.63934220  0.82737006  1
  H+  H269  1  0.71582996  0.35988707  -0.00568965  1
  H+  H270  1  0.29210882  0.98418781  0.13070674  1
  H+  H271  1  0.66181244  0.13012619  0.37335155  1
  H+  H272  1  0.87621505  0.16131112  0.18171845  1
  H+  H273  1  0.37145052  0.49241202  0.49983706  1
  H+  H274  1  0.88539099  0.10738497  0.83537511  1
  H+  H275  1  0.36571131  0.66075056  0.49774102  1
  H+  H276  1  0.39022368  0.87298720  -0.01106654  1
  H+  H277  1  0.13103096  0.87506261  0.99912020  1
  H+  H278  1  0.90626339  -0.00501696  0.65274110  1
  H+  H279  1  0.86639670  0.15431189  0.66686254  1
  H+  H280  1  0.36548944  0.47928524  0.83112936  1
  H+  H281  1  0.38522764  0.14888270  0.18346169  1
  H+  H282  1  0.47245058  0.87773079  0.32716658  1
  H+  H283  1  0.13169887  0.22444244  0.47604384  1
  H+  H284  1  0.00487139  0.87915325  0.82011014  1
  H+  H285  1  0.36285312  0.37848990  0.17847588  1
  H+  H286  1  0.63471571  0.08835452  0.84400086  1
  H+  H287  1  0.09563661  0.21941192  0.67488685  1
  H+  H288  1  0.28476066  0.39888209  0.49074372  1
  H+  H289  1  0.33052050  0.92383024  0.06049821  1
  H+  H290  1  0.78079267  0.63561083  0.49680639  1
  H+  H291  1  0.87024605  0.72487044  0.49807183  1
  H+  H292  1  0.84236099  0.68587594  0.73734580  1
  H+  H293  1  0.76735316  0.12753100  0.66663373  1
  H+  H294  1  0.16262062  0.09050913  0.92455596  1
  H+  H295  1  0.09533347  0.67915687  0.09847719  1
  H+  H296  1  0.08248701  0.17257101  0.77178485  1
  H+  H297  1  0.83499257  0.91128787  0.72827583  1
  H+  H298  1  0.80675097  0.40165819  0.40722598  1
  H+  H299  1  0.69294139  0.15165689  0.24448695  1
  H+  H300  1  0.17074404  0.33222924  0.54327500  1
  H+  H301  1  0.87975519  0.36157650  0.48551245  1
  H+  H302  1  0.33497237  0.41933742  0.77227461  1
  H+  H303  1  0.37350227  0.85048689  0.16608657  1
  H+  H304  1  0.67930325  0.85865114  0.24288335  1
  H+  H305  1  0.69068838  0.08401428  0.93572459  1
  H+  H306  1  0.09461019  0.14668125  0.42514328  1
  H+  H307  1  0.59561782  0.38382722  0.15990026  1
  H+  H308  1  0.11126790  0.18121845  0.10445478  1
  H+  H309  1  0.13186171  0.52380733  0.85175803  1
  H+  H310  1  0.94812808  0.02578917  0.34901236  1
  H+  H311  1  0.64903701  0.33384565  0.58201203  1
  H+  H312  1  0.17814085  0.81198608  0.28535043  1
  H+  H313  1  0.57347187  0.41187486  0.43508689  1
  H+  H314  1  0.89618807  0.03969372  0.98950187  1
  H+  H315  1  0.84636589  0.16976597  0.11134037  1
  H+  H316  1  0.40594786  0.84388056  0.27164879  1
  H+  H317  1  0.91917853  0.08466922  0.89589457  1
  H+  H318  1  0.83447063  0.67012751  0.06550351  1
  H+  H319  1  0.14514177  1.00635221  0.31684776  1
  H+  H320  1  0.59311661  0.67937776  0.05118711  1
  H+  H321  1  0.41959351  0.07264015  0.57579706  1
  H+  H322  1  0.36233939  0.17337355  0.07867140  1
  H+  H323  1  0.60382221  0.12983108  0.32100379  1
  H+  H324  1  0.77715987  0.97689500  0.04135131  1
  H+  H325  1  0.63911263  0.52323810  0.50884736  1
  H+  H326  1  0.33018345  0.97692734  0.36270013  1
  H+  H327  1  0.61301646  0.13081979  0.49684453  1
  H+  H328  1  0.83040406  0.42687221  0.07021447  1
  H+  H329  1  0.88601686  0.86441632  0.31907177  1
  H+  H330  1  0.42544366  0.35109997  0.57541671  1
  H+  H331  1  0.92477786  0.34686634  0.26162664  1
  H+  H332  1  0.90796910  0.07165089  0.55642151  1
  H+  H333  1  0.83912191  0.17098698  0.42479436  1
  H+  H334  1  0.34728505  0.67130766  0.73660024  1
  H+  H335  1  0.58582339  0.14841540  0.05293547  1
  H+  H336  1  0.86268829  0.31531706  0.57778615  1
  H+  H337  1  0.17624086  0.83604481  0.61045573  1
  H+  H338  1  0.58359122  0.19458570  0.13642755  1
  H+  H339  1  0.69121459  0.32430562  0.11951387  1
  H+  H340  1  0.41491093  0.08471792  0.90295536  1
  H+  H341  1  0.05742168  0.41871790  0.70152151  1
  H+  H342  1  0.07464969  0.91003657  0.73265834  1
  H+  H343  1  0.41746618  0.59246822  0.56949853  1
  H+  H344  1  0.34115156  0.17141984  0.73406464  1
  H+  H345  1  0.59087908  0.92494592  0.43317891  1
  H+  H346  1  0.32353602  0.63940832  0.08286440  1
  H+  H347  1  0.00161790  0.71705854  0.78924537  1
  H+  H348  1  0.66572015  0.84253350  0.91599373  1
  H+  H349  1  0.41807778  0.32786925  0.93680357  1
  H+  H350  1  0.83007622  0.16552994  0.76599031  1
  H+  H351  1  0.51187167  0.16842242  0.34601687  1
  H+  H352  1  0.91072545  0.83391270  0.22359514  1
  H+  H353  1  0.33291236  0.43632326  0.39839585  1
  H+  H354  1  0.58415744  0.42648661  0.73713816  1
  H+  H355  1  0.33340618  0.09422171  0.40093938  1
  H+  H356  1  0.52544000  0.37883896  0.01005441  1
  H+  H357  1  0.66271140  0.30763837  0.18836557  1
  H+  H358  1  0.62064027  0.48545612  0.82652190  1
  H+  H359  1  0.34967455  0.42016375  0.07320973  1
  H+  H360  1  0.17338425  0.59632127  0.93569990  1
  H+  H361  1  0.40471486  0.33263145  0.24861709  1
  H+  H362  1  0.18390568  0.10540514  0.56841010  1
  H+  H363  1  0.89704013  0.15480688  0.28223202  1
  H+  H364  1  0.33632282  0.90595111  0.44179314  1
  H+  H365  1  0.67295466  0.57358505  0.92965155  1
  H+  H366  1  0.13730051  0.43939734  0.08454018  1
  H+  H367  1  0.67422448  0.59345511  0.23901369  1
  H+  H368  1  0.78245315  0.13423353  0.01315911  1
  H+  H369  1  0.91538384  0.56921468  0.90444436  1
  H+  H370  1  0.67475251  0.58961744  0.60454083  1
  H+  H371  1  0.11346658  0.61962233  0.33323624  1
  H+  H372  1  0.18670303  0.08230048  0.26787182  1
  H+  H373  1  0.97113048  0.35038012  0.85640331  1
  H+  H374  1  0.62022707  0.91104089  0.33609332  1
  H+  H375  1  0.79892739  0.88232802  0.08578084  1
  H+  H376  1  0.17151830  0.58820055  0.26602267  1
  H+  H377  1  0.14704325  0.83944075  0.90574884  1
  H+  H378  1  0.09136649  0.42154901  0.79741007  1
  H+  H379  1  0.17640072  0.58679217  0.57666230  1
  H+  H380  1  0.58038674  0.67482093  0.76769946  1
  H+  H381  1  0.12062792  0.63866340  0.50871532  1
  H+  H382  1  0.11050691  0.96768339  0.50671172  1
  H+  H383  1  0.88289127  0.27425892  0.49137954  1
  O2-  O384  1  0.11455535  0.17830189  0.14952575  1
  O2-  O385  1  0.10784708  0.16183683  0.46960891  1
  O2-  O386  1  0.08336239  0.17466649  0.81683235  1
  O2-  O387  1  0.09438668  0.41804822  0.15643635  1
  O2-  O388  1  0.08510134  0.41690903  0.47918133  1
  O2-  O389  1  0.08370354  0.41642555  0.84209088  1
  O2-  O390  1  0.09468631  0.67399670  0.14445732  1
  O2-  O391  1  0.09527859  0.67364956  0.49523693  1
  O2-  O392  1  0.03397166  0.68897585  0.80109631  1
  O2-  O393  1  0.07418516  0.93283092  0.14021242  1
  O2-  O394  1  0.07989309  0.90739629  0.49410619  1
  O2-  O395  1  0.06656093  0.91596421  0.81131076  1
  O2-  O396  1  0.35651487  0.17683165  0.16108571  1
  O2-  O397  1  0.33155996  0.13777323  0.47978806  1
  O2-  O398  1  0.33319658  0.16673651  0.80966660  1
  O2-  O399  1  0.33149337  0.41012626  0.16239084  1
  O2-  O400  1  0.34811880  0.43148024  0.48415800  1
  O2-  O401  1  0.33310981  0.41737632  0.81722664  1
  O2-  O402  1  0.29783067  0.59795131  0.11818491  1
  O2-  O403  1  0.32842438  0.68313161  0.48322994  1
  O2-  O404  1  0.33723542  0.66578850  0.81179068  1
  O2-  O405  1  0.31119808  0.94453688  0.14400885  1
  O2-  O406  1  0.33730270  0.90187940  0.48813208  1
  O2-  O407  1  0.35366762  0.92401997  0.80493731  1
  O2-  O408  1  0.57831287  0.13732191  0.13149817  1
  O2-  O409  1  0.58057393  0.15921392  0.48193518  1
  O2-  O410  1  0.58422752  0.14853118  0.82381877  1
  O2-  O411  1  0.58313366  0.41047316  0.19452858  1
  O2-  O412  1  0.57131723  0.40800797  0.48105077  1
  O2-  O413  1  0.58726530  0.42476217  0.81160931  1
  O2-  O414  1  0.64283324  0.69889014  0.12932472  1
  O2-  O415  1  0.58327799  0.66248202  0.48709279  1
  O2-  O416  1  0.57878230  0.67657587  0.81296968  1
  O2-  O417  1  0.52661975  0.80285635  0.13311274  1
  O2-  O418  1  0.59986457  0.92915749  0.47763878  1
  O2-  O419  1  0.62545631  0.89764419  0.82046298  1
  O2-  O420  1  0.84635362  0.18387625  0.15537628  1
  O2-  O421  1  0.83681660  0.17341493  0.46987754  1
  O2-  O422  1  0.83328068  0.16188749  0.81076439  1
  O2-  O423  1  0.84664631  0.43976140  0.15187896  1
  O2-  O424  1  0.80691091  0.40653576  0.45307645  1
  O2-  O425  1  0.82712422  0.40385017  0.81992790  1
  O2-  O426  1  0.83771935  0.66398646  0.14671247  1
  O2-  O427  1  0.84155408  0.66300196  0.48275948  1
  O2-  O428  1  0.83725295  0.71418239  0.80680198  1
  O2-  O429  1  0.79221707  0.84918544  0.12370825  1
  O2-  O430  1  0.83430107  0.90770321  0.47473177  1
  O2-  O431  1  0.82558218  0.90992501  0.80357778  1
  O2-  O432  1  0.18825932  0.09510386  0.18973068  1
  O2-  O433  1  0.17712948  0.09288050  0.52057858  1
  O2-  O434  1  0.16542489  0.08402665  0.84451193  1
  O2-  O435  1  0.18223476  0.34333110  0.20362055  1
  O2-  O436  1  0.17291749  0.33293877  0.49871370  1
  O2-  O437  1  0.17127130  0.33536618  0.86646697  1
  O2-  O438  1  0.17169274  0.58765557  0.18906396  1
  O2-  O439  1  0.17255661  0.57532627  0.53209014  1
  O2-  O440  1  0.16557268  0.58800017  0.85744801  1
  O2-  O441  1  0.17861072  0.82879324  0.20677690  1
  O2-  O442  1  0.17194737  0.83283372  0.53404445  1
  O2-  O443  1  0.14270508  0.84109030  0.86086786  1
  O2-  O444  1  0.44728786  0.04115526  0.20110837  1
  O2-  O445  1  0.41598183  0.07017376  0.52999419  1
  O2-  O446  1  0.42043356  0.08678645  0.85746857  1
  O2-  O447  1  0.41096990  0.33552130  0.20223629  1
  O2-  O448  1  0.42290113  0.35087068  0.52698293  1
  O2-  O449  1  0.41844168  0.33271225  0.85519081  1
  O2-  O450  1  0.40175048  0.56346307  0.18615934  1
  O2-  O451  1  0.41619491  0.59330874  0.52389787  1
  O2-  O452  1  0.41556572  0.58137563  0.85419740  1
  O2-  O453  1  0.38743983  0.81447991  0.19134894  1
  O2-  O454  1  0.39464006  0.86766830  0.50112910  1
  O2-  O455  1  0.43069905  0.84247346  0.84851128  1
  O2-  O456  1  0.70952594  0.18222865  0.20563809  1
  O2-  O457  1  0.67180847  0.08393903  0.52050078  1
  O2-  O458  1  0.67522133  0.06782961  0.85558219  1
  O2-  O459  1  0.64291782  0.30837876  0.14684738  1
  O2-  O460  1  0.64921319  0.31832404  0.51173791  1
  O2-  O461  1  0.65447518  0.32701924  0.85603701  1
  O2-  O462  1  0.67517652  0.58742783  0.19403585  1
  O2-  O463  1  0.67188339  0.58312452  0.52359636  1
  O2-  O464  1  0.67208548  0.59611550  0.84703593  1
  O2-  O465  1  0.66831498  0.84908026  0.19846457  1
  O2-  O466  1  0.67000380  0.82800913  0.51442354  1
  O2-  O467  1  0.66564683  0.84651554  0.83947925  1
  O2-  O468  1  0.92306288  0.14627762  0.24511332  1
  O2-  O469  1  0.89209424  0.07266447  0.51387790  1
  O2-  O470  1  0.91741073  0.07889960  0.85056319  1
  O2-  O471  1  0.92705929  0.34755089  0.18563027  1
  O2-  O472  1  0.90841519  0.33518347  0.50764457  1
  O2-  O473  1  0.90880362  0.31734193  0.86609386  1
  O2-  O474  1  0.93249611  0.59988493  0.18714278  1
  O2-  O475  1  0.92438839  0.59236616  0.53557284  1
  O2-  O476  1  0.92360167  0.56267205  0.86067650  1
  O2-  O477  1  0.91524038  0.83196163  0.17808234  1
  O2-  O478  1  0.91485057  0.82337969  0.52189695  1
  O2-  O479  1  0.88574110  0.80087196  0.82598859  1
  O2-  O480  1  0.18226576  0.07093155  0.31264726  1
  O2-  O481  1  0.19412122  0.12051978  0.63181231  1
  O2-  O482  1  0.15926614  0.09155445  0.96957115  1
  O2-  O483  1  0.17522164  0.36138714  0.31771930  1
  O2-  O484  1  0.17649786  0.40056608  0.61926328  1
  O2-  O485  1  0.19271644  0.34027813  0.98989418  1
  O2-  O486  1  0.16790062  0.58771411  0.31160933  1
  O2-  O487  1  0.18228839  0.60522124  0.65574393  1
  O2-  O488  1  0.18027755  0.60463580  0.98067665  1
  O2-  O489  1  0.16600739  0.80621844  0.32972055  1
  O2-  O490  1  0.17839393  0.83835138  0.65605549  1
  O2-  O491  1  0.15899328  0.84128585  0.98608757  1
  O2-  O492  1  0.43281719  0.10827557  0.22724315  1
  O2-  O493  1  0.42909405  0.08243772  0.65142359  1
  O2-  O494  1  0.41706528  0.08043436  0.97916438  1
  O2-  O495  1  0.40325831  0.34017941  0.31994075  1
  O2-  O496  1  0.42460459  0.34654759  0.64178976  1
  O2-  O497  1  0.42003493  0.32648089  0.98195797  1
  O2-  O498  1  0.40694024  0.59406318  0.30748194  1
  O2-  O499  1  0.42077666  0.58379494  0.64749936  1
  O2-  O500  1  0.41633305  0.58623074  0.97600287  1
  O2-  O501  1  0.40993761  0.84942095  0.31647444  1
  O2-  O502  1  0.44864038  0.84825856  0.66206779  1
  O2-  O503  1  0.42436480  0.84715696  0.97376175  1
  O2-  O504  1  0.64586742  0.10961206  0.33166683  1
  O2-  O505  1  0.67508102  0.06601579  0.64176609  1
  O2-  O506  1  0.69563946  0.09627268  0.97989476  1
  O2-  O507  1  0.64761757  0.34365986  0.27996035  1
  O2-  O508  1  0.64553547  0.34042294  0.62819598  1
  O2-  O509  1  0.65601701  0.32427860  0.97979524  1
  O2-  O510  1  0.66703918  0.58428117  0.31893939  1
  O2-  O511  1  0.67587203  0.59390825  0.64973528  1
  O2-  O512  1  0.67476540  0.55873457  0.97259223  1
  O2-  O513  1  0.68740166  0.86668549  0.32136202  1
  O2-  O514  1  0.67332854  0.82656809  0.63837483  1
  O2-  O515  1  0.66879211  0.83741079  0.96159042  1
  O2-  O516  1  0.88992657  0.00598107  0.33332471  1
  O2-  O517  1  0.95396042  0.04644985  0.62931100  1
  O2-  O518  1  0.93155774  0.09942444  0.97462127  1
  O2-  O519  1  0.91950338  0.34769860  0.30718217  1
  O2-  O520  1  0.82865919  0.30157061  0.61646843  1
  O2-  O521  1  0.88854224  0.32487048  0.98405943  1
  O2-  O522  1  0.92273043  0.58657386  0.30923109  1
  O2-  O523  1  0.90514001  0.56934424  0.65762469  1
  O2-  O524  1  0.91762794  0.59004737  0.98348437  1
  O2-  O525  1  0.91141942  0.83046632  0.29995617  1
  O2-  O526  1  0.91844758  0.82815999  0.64521096  1
  O2-  O527  1  0.91500510  0.84004369  0.98169683  1
  O2-  O528  1  0.10007448  0.17831745  0.02475655  1
  O2-  O529  1  0.07082691  0.11139538  0.35469631  1
  O2-  O530  1  0.08498654  0.16454808  0.69107786  1
  O2-  O531  1  0.17745405  0.46663987  0.04957741  1
  O2-  O532  1  0.08581711  0.42892609  0.34872864  1
  O2-  O533  1  0.11379808  0.45004700  0.72109897  1
  O2-  O534  1  0.08758532  0.67887038  0.02383917  1
  O2-  O535  1  0.07846692  0.64742327  0.35176520  1
  O2-  O536  1  0.08154485  0.66595833  0.69295132  1
  O2-  O537  1  0.07664585  0.92731379  0.01394619  1
  O2-  O538  1  0.08301472  0.90640634  0.32708403  1
  O2-  O539  1  0.07389965  0.90591414  0.68742487  1
  O2-  O540  1  0.35745686  0.16662710  0.03399832  1
  O2-  O541  1  0.33258758  0.07090857  0.36028571  1
  O2-  O542  1  0.34618077  0.17198531  0.68815583  1
  O2-  O543  1  0.35266636  0.42298048  0.02863162  1
  O2-  O544  1  0.33007607  0.43625464  0.35366820  1
  O2-  O545  1  0.34205365  0.42465102  0.68756345  1
  O2-  O546  1  0.34748488  0.68087586  0.01330767  1
  O2-  O547  1  0.33396369  0.68212109  0.35757577  1
  O2-  O548  1  0.35133406  0.67364450  0.69086501  1
  O2-  O549  1  0.32961037  0.92098564  0.01576805  1
  O2-  O550  1  0.32059065  0.91723785  0.37101227  1
  O2-  O551  1  0.35230018  0.92735277  0.68962913  1
  O2-  O552  1  0.58643958  0.15629101  0.00813065  1
  O2-  O553  1  0.54402798  0.17551425  0.30858149  1
  O2-  O554  1  0.58284572  0.13127961  0.69576729  1
  O2-  O555  1  0.58505819  0.40494847  0.02603651  1
  O2-  O556  1  0.57953142  0.42136500  0.36029521  1
  O2-  O557  1  0.58013650  0.42950469  0.69107040  1
  O2-  O558  1  0.57535059  0.67342584  0.00830055  1
  O2-  O559  1  0.53878659  0.60399812  0.37005000  1
  O2-  O560  1  0.58324641  0.66891115  0.68700095  1
  O2-  O561  1  0.57876338  0.88498512  0.02410242  1
  O2-  O562  1  0.57895600  0.92933716  0.34988023  1
  O2-  O563  1  0.60510275  0.90567725  0.69794503  1
  O2-  O564  1  0.84303556  0.16465254  0.03214341  1
  O2-  O565  1  0.84212919  0.18156678  0.34229377  1
  O2-  O566  1  0.82720687  0.17262585  0.68214655  1
  O2-  O567  1  0.82398597  0.42366617  0.02544652  1
  O2-  O568  1  0.81687843  0.41311022  0.33197068  1
  O2-  O569  1  0.80589180  0.40558402  0.67202372  1
  O2-  O570  1  0.83693569  0.67619271  0.02058399  1
  O2-  O571  1  0.83539282  0.66822790  0.35793797  1
  O2-  O572  1  0.84067349  0.66713074  0.69338020  1
  O2-  O573  1  0.80134166  0.94441356  0.02263661  1
  O2-  O574  1  0.84190588  0.91452057  0.35213854  1
  O2-  O575  1  0.83831358  0.90907713  0.68261862  1
