# generated using pymatgen
data_H2O
_symmetry_space_group_name_H-M   'P 1'
_cell_length_a   17.99377786
_cell_length_b   17.99724530
_cell_length_c   22.00116784
_cell_angle_alpha   90.00796939
_cell_angle_beta   90.01600186
_cell_angle_gamma   120.03198534
_symmetry_Int_Tables_number   1
_chemical_formula_structural   H2O
_chemical_formula_sum   'H384 O192'
_cell_volume   6168.28812084
_cell_formula_units_Z   192
loop_
 _symmetry_equiv_pos_site_id
 _symmetry_equiv_pos_as_xyz
  1  'x, y, z'
loop_
 _atom_type_symbol
 _atom_type_oxidation_number
  H+  1.0
  O2-  -2.0
loop_
 _atom_site_type_symbol
 _atom_site_label
 _atom_site_symmetry_multiplicity
 _atom_site_fract_x
 _atom_site_fract_y
 _atom_site_fract_z
 _atom_site_occupancy
  H+  H0  1  0.11375533  0.14354782  0.85934835  1
  H+  H1  1  0.86621497  0.39740148  0.70657396  1
  H+  H2  1  0.60053601  0.80027561  0.98345165  1
  H+  H3  1  0.11916724  0.24164298  0.02649389  1
  H+  H4  1  0.88889094  0.01664193  0.32197223  1
  H+  H5  1  0.54164344  0.65544567  0.85378980  1
  H+  H6  1  1.01214824  0.71763740  0.30937805  1
  H+  H7  1  -0.03256975  0.87403379  0.67029769  1
  H+  H8  1  0.80061075  0.13012723  0.34616791  1
  H+  H9  1  0.58119772  0.92853762  0.40933355  1
  H+  H10  1  0.85664364  0.14063183  0.00659338  1
  H+  H11  1  0.62750248  0.25579815  0.17361181  1
  H+  H12  1  0.34225918  0.22576268  0.50606244  1
  H+  H13  1  0.38716152  0.02129349  0.17033939  1
  H+  H14  1  0.38163854  0.12419487  0.49139141  1
  H+  H15  1  0.14615268  0.02005559  0.18997890  1
  H+  H16  1  0.14658117  0.84833010  0.50695985  1
  H+  H17  1  0.63325498  0.27246918  -0.00762249  1
  H+  H18  1  0.51586014  0.87522910  0.15567375  1
  H+  H19  1  0.22872176  0.35801886  0.17000513  1
  H+  H20  1  0.13443946  0.88174599  -0.02076432  1
  H+  H21  1  0.59955345  0.61048067  0.32124029  1
  H+  H22  1  0.64134527  0.62722842  0.67124206  1
  H+  H23  1  0.84545628  0.40338337  0.07625758  1
  H+  H24  1  0.62022492  0.74461573  0.93373399  1
  H+  H25  1  0.39918979  0.54034094  0.84081483  1
  H+  H26  1  0.67802243  0.08675263  0.59519942  1
  H+  H27  1  0.87066642  0.90489885  0.82894225  1
  H+  H28  1  0.09462926  0.62177628  0.83808253  1
  H+  H29  1  0.59069864  0.15156648  0.31125427  1
  H+  H30  1  0.50925675  0.37704894  -0.00114417  1
  H+  H31  1  0.98251057  0.61148552  0.51670075  1
  H+  H32  1  0.72735658  0.86494034  0.65790795  1
  H+  H33  1  0.88434680  0.03264401  0.84365766  1
  H+  H34  1  0.97349433  0.36420468  0.81390815  1
  H+  H35  1  0.86491856  0.64798178  0.68400983  1
  H+  H36  1  0.65086944  0.12368083  0.50005313  1
  H+  H37  1  0.12297552  0.22726849  0.32443112  1
  H+  H38  1  0.39654895  0.27742126  0.17526832  1
  H+  H39  1  0.86721188  -0.01140684  0.67324071  1
  H+  H40  1  0.11064241  0.46425453  0.34384829  1
  H+  H41  1  0.64106108  0.62309471  0.02835598  1
  H+  H42  1  0.86056914  0.37852149  0.16946092  1
  H+  H43  1  0.19794959  0.11450488  0.65325425  1
  H+  H44  1  0.35086516  0.71151952  0.33333211  1
  H+  H45  1  0.51609524  0.89234886  0.66921386  1
  H+  H46  1  0.84505370  0.90328531  -0.00835009  1
  H+  H47  1  0.32291787  0.38838961  0.00840939  1
  H+  H48  1  0.13988805  0.52654190  0.50725599  1
  H+  H49  1  0.60375095  0.13185228  0.83684980  1
  H+  H50  1  0.89523594  0.27771958  0.52134711  1
  H+  H51  1  0.40250544  0.65161376  0.98112343  1
  H+  H52  1  0.42456839  0.84334617  0.56547115  1
  H+  H53  1  0.36830881  -0.01624271  0.47657382  1
  H+  H54  1  0.62250307  0.85241076  0.16980410  1
  H+  H55  1  0.62010778  0.98597804  0.49543710  1
  H+  H56  1  0.61068039  0.39381221  0.32719427  1
  H+  H57  1  0.35185145  -0.02728812  0.84157634  1
  H+  H58  1  0.65221535  0.62858773  0.85817419  1
  H+  H59  1  0.36620812  0.25264558  0.34105099  1
  H+  H60  1  0.48756420  0.36531604  0.17194445  1
  H+  H61  1  0.52311739  0.14444170  0.00673952  1
  H+  H62  1  1.03584794  0.13301184  0.32445994  1
  H+  H63  1  0.27432503  0.39924851  0.48982813  1
  H+  H64  1  0.97208527  0.10870182  0.17146172  1
  H+  H65  1  0.65389951  0.31851014  0.23192872  1
  H+  H66  1  0.52801505  0.12542099  0.69888401  1
  H+  H67  1  0.91045018  0.67461342  0.31564057  1
  H+  H68  1  0.36428006  0.13443210  0.16211839  1
  H+  H69  1  0.83498836  1.01866893  -0.00670784  1
  H+  H70  1  0.86197839  0.86539846  0.16435218  1
  H+  H71  1  0.36101311  0.87819575  0.15788838  1
  H+  H72  1  0.59695571  0.76839049  0.32124843  1
  H+  H73  1  0.13858475  0.52422742  0.83861031  1
  H+  H74  1  0.17481125  0.86607517  0.64737498  1
  H+  H75  1  0.09542680  0.90863249  0.68635068  1
  H+  H76  1  0.46575269  0.61384141  0.99221619  1
  H+  H77  1  0.61927348  0.40289330  0.67414688  1
  H+  H78  1  0.91927415  0.33565881  0.58353153  1
  H+  H79  1  0.47609880  0.37243572  0.32274060  1
  H+  H80  1  0.62014724  0.69750054  0.01754468  1
  H+  H81  1  0.24028203  0.85835742  0.49890180  1
  H+  H82  1  0.64103774  0.86923922  0.50192942  1
  H+  H83  1  0.38767893  -0.02210985  0.70027371  1
  H+  H84  1  0.10773846  0.47234787  0.67155502  1
  H+  H85  1  0.73727023  0.38407375  0.67002078  1
  H+  H86  1  0.92632483  0.51584948  0.30733384  1
  H+  H87  1  0.79725652  0.18891228  0.00829348  1
  H+  H88  1  0.39099887  0.02248397  1.00349232  1
  H+  H89  1  0.63512660  0.26891486  0.84383785  1
  H+  H90  1  0.38722918  0.62058810  0.50664944  1
  H+  H91  1  0.88801624  0.85509074  0.50860700  1
  H+  H92  1  0.10987719  0.13156208  0.17036647  1
  H+  H93  1  0.41200969  0.35855798  1.00999427  1
  H+  H94  1  0.23845792  0.11462313  0.18131641  1
  H+  H95  1  0.58398679  0.43996401  0.76877641  1
  H+  H96  1  0.14797093  0.63458104  0.16132952  1
  H+  H97  1  0.13771433  0.74744704  -0.02763004  1
  H+  H98  1  0.48220472  0.37686136  0.66565221  1
  H+  H99  1  0.37043311  0.89774618  1.00265057  1
  H+  H100  1  0.11433505  0.39483120  0.82751414  1
  H+  H101  1  0.38618058  0.86464958  0.84220347  1
  H+  H102  1  0.36559678  0.73445147  0.49221431  1
  H+  H103  1  0.06883276  0.64809917  -0.02779580  1
  H+  H104  1  0.38584679  0.11082540  1.00677179  1
  H+  H105  1  0.11140718  0.22035463  0.16270669  1
  H+  H106  1  0.55110557  0.44951909  0.52560807  1
  H+  H107  1  0.13088981  0.98240098  0.34155926  1
  H+  H108  1  -0.02088407  0.35791433  0.33329043  1
  H+  H109  1  0.91134934  0.01510794  0.50566223  1
  H+  H110  1  0.11909383  0.89182157  0.16120070  1
  H+  H111  1  0.76881979  0.37090537  0.16373647  1
  H+  H112  1  0.82732538  0.66670825  0.77040925  1
  H+  H113  1  0.41793823  0.08920452  0.54125933  1
  H+  H114  1  0.68149595  0.86530836  0.88675208  1
  H+  H115  1  0.64944556  0.37355012  0.99365740  1
  H+  H116  1  0.61346519  0.86333433  0.32609750  1
  H+  H117  1  0.61787574  0.99000496  0.66987259  1
  H+  H118  1  0.41687584  0.33952869  0.26354344  1
  H+  H119  1  0.96968437  0.12071543  0.86157321  1
  H+  H120  1  0.51816839  0.12358685  0.15975785  1
  H+  H121  1  0.09377212  0.10864551  1.01220839  1
  H+  H122  1  0.97484508  0.36615160  0.67116006  1
  H+  H123  1  0.61392549  0.37281399  0.15885111  1
  H+  H124  1  0.53074198  0.94700588  0.35749206  1
  H+  H125  1  0.60982060  0.27145765  0.32655460  1
  H+  H126  1  0.76950874  0.13063243  0.15714215  1
  H+  H127  1  0.13060787  0.60345992  0.66594752  1
  H+  H128  1  1.01030403  0.88883266  0.30371043  1
  H+  H129  1  0.36001250  0.62626215  0.14532911  1
  H+  H130  1  0.22370608  0.36616173  0.65706221  1
  H+  H131  1  0.52656569  0.41159980  0.82980726  1
  H+  H132  1  0.51223972  0.64101174  0.48209110  1
  H+  H133  1  0.36673398  0.39963951  0.83754567  1
  H+  H134  1  0.13658302  0.35729156  0.32828404  1
  H+  H135  1  0.22052486  0.11126551  1.00613408  1
  H+  H136  1  1.00255290  0.37406602  0.96475550  1
  H+  H137  1  0.73311225  0.63593653  0.51163208  1
  H+  H138  1  0.70780727  0.34308621  0.32740897  1
  H+  H139  1  0.28729462  0.87735216  0.33375204  1
  H+  H140  1  0.63831354  0.53167177  0.84000322  1
  H+  H141  1  0.03149410  0.64819432  0.68315108  1
  H+  H142  1  0.39974806  0.62461056  0.32749437  1
  H+  H143  1  0.78582489  0.67210724  0.34817410  1
  H+  H144  1  0.17075266  0.34031924  0.56180238  1
  H+  H145  1  0.36920599  0.23298828  0.01310814  1
  H+  H146  1  0.98411285  0.12659255  0.65774727  1
  H+  H147  1  0.27485518  0.63319833  0.14826129  1
  H+  H148  1  0.89045731  0.13539571  0.34574089  1
  H+  H149  1  0.32496593  0.49017512  0.96768108  1
  H+  H150  1  0.74019319  0.11314398  0.65522374  1
  H+  H151  1  0.86878605  0.13949104  0.66751157  1
  H+  H152  1  0.61965203  0.49214126  0.67300592  1
  H+  H153  1  0.70858989  0.58884382  0.93651779  1
  H+  H154  1  0.83880927  0.18152742  0.07462844  1
  H+  H155  1  0.39560915  0.87379123  0.50491496  1
  H+  H156  1  0.02441012  0.86330092  0.49838414  1
  H+  H157  1  0.46314839  0.10649334  0.85757609  1
  H+  H158  1  0.77998367  0.38384888  0.51211688  1
  H+  H159  1  0.65691591  0.48843850  0.01133382  1
  H+  H160  1  0.34256535  0.72131447  0.99171073  1
  H+  H161  1  0.38884935  0.65487810  0.67218339  1
  H+  H162  1  0.63963823  0.03427071  0.84013839  1
  H+  H163  1  0.79005109  0.33611965  0.40291503  1
  H+  H164  1  0.39077908  0.77805791  0.83676168  1
  H+  H165  1  0.37132837  0.36322258  0.51044935  1
  H+  H166  1  0.52423692  0.89594636  0.82433788  1
  H+  H167  1  0.84291118  0.93406961  0.76643120  1
  H+  H168  1  0.13376043  0.36742239  0.01047838  1
  H+  H169  1  0.33602847  0.42688296  0.43157590  1
  H+  H170  1  0.14819606  0.12446285  0.32402646  1
  H+  H171  1  0.85721110  0.57100865  0.92818493  1
  H+  H172  1  0.12771090  0.72700762  0.68174511  1
  H+  H173  1  0.36977528  0.48533129  0.33693481  1
  H+  H174  1  0.85965548  0.22985378  0.80926594  1
  H+  H175  1  0.85615820  0.47963024  0.80185328  1
  H+  H176  1  0.77400620  0.64664167  0.68213645  1
  H+  H177  1  0.39356208  0.28671732  0.66408515  1
  H+  H178  1  0.60714218  -0.03556315  0.15409844  1
  H+  H179  1  0.65356671  0.15216058  0.66689179  1
  H+  H180  1  0.13308385  0.29218314  0.49593554  1
  H+  H181  1  0.57499396  0.44693167  0.49800503  1
  H+  H182  1  0.73936028  0.12073593  0.50408728  1
  H+  H183  1  0.07177541  0.65671675  0.77890301  1
  H+  H184  1  0.37678786  -0.02802047  0.32614885  1
  H+  H185  1  0.75311415  0.59721041  0.15434115  1
  H+  H186  1  0.74418898  0.86093408  0.99498974  1
  H+  H187  1  0.09618277  0.99733433  0.68429203  1
  H+  H188  1  0.03060361  0.39317790  0.50356548  1
  H+  H189  1  0.46240341  0.83191236  0.31702687  1
  H+  H190  1  0.60576902  0.48155322  0.33706396  1
  H+  H191  1  0.86993603  0.72421396  0.50394145  1
  H+  H192  1  0.12537310  0.98972657  0.84322761  1
  H+  H193  1  0.53636940  0.15144697  0.48408357  1
  H+  H194  1  0.88325349  0.78124607  0.66916336  1
  H+  H195  1  0.27985796  0.64376059  0.82450532  1
  H+  H196  1  0.36331512  0.14020982  0.84598620  1
  H+  H197  1  1.04242484  0.65775789  0.13464303  1
  H+  H198  1  0.82909702  0.86871857  0.33597423  1
  H+  H199  1  0.82282132  0.62596832  0.05224288  1
  H+  H200  1  0.01812792  0.60648709  0.35123677  1
  H+  H201  1  0.61769720  0.90298801  0.81936266  1
  H+  H202  1  0.88897195  0.27086671  0.17673553  1
  H+  H203  1  0.32546405  0.15817767  0.60936447  1
  H+  H204  1  0.87947199  1.02212317  0.16648683  1
  H+  H205  1  0.95104126  0.78863056  0.28736311  1
  H+  H206  1  0.88476497  0.36356086  0.80968165  1
  H+  H207  1  0.30578456  0.25458585  0.04110147  1
  H+  H208  1  0.15685308  0.57256054  0.26659577  1
  H+  H209  1  0.11143123  0.12533385  0.66016932  1
  H+  H210  1  0.65892016  0.27851745  0.50858738  1
  H+  H211  1  0.59764677  0.92205907  0.00005542  1
  H+  H212  1  0.38982053  0.51299507  0.16578622  1
  H+  H213  1  0.75529405  0.88381556  0.15611157  1
  H+  H214  1  0.14606260  0.01007462  0.99923060  1
  H+  H215  1  0.63941871  0.60479454  0.38103291  1
  H+  H216  1  0.62968793  0.74343498  0.84304541  1
  H+  H217  1  0.40222409  0.86791331  0.66721003  1
  H+  H218  1  0.15971200  0.86505907  0.08190103  1
  H+  H219  1  0.22696611  0.86601699  0.85368725  1
  H+  H220  1  0.63162257  0.10031271  0.16998820  1
  H+  H221  1  0.11954624  0.72133194  0.49406791  1
  H+  H222  1  0.44645544  0.13108577  0.71600848  1
  H+  H223  1  0.86062083  0.13333720  0.15788822  1
  H+  H224  1  0.52849253  0.89651508  0.49711071  1
  H+  H225  1  0.83101051  0.16022158  0.72817944  1
  H+  H226  1  0.53135978  0.63840020  0.67591017  1
  H+  H227  1  0.87812606  0.46254016  0.01887131  1
  H+  H228  1  0.22792161  0.12429878  0.85607599  1
  H+  H229  1  0.27900592  0.40175558  0.83845188  1
  H+  H230  1  0.22762428  0.61808483  0.50815288  1
  H+  H231  1  0.12284570  0.88965580  0.33592812  1
  H+  H232  1  0.16035418  0.11168423  0.50579786  1
  H+  H233  1  0.98467504  0.88433885  0.84751029  1
  H+  H234  1  0.78065263  0.58496632  0.35306676  1
  H+  H235  1  0.13443186  0.27515622  0.64974982  1
  H+  H236  1  0.31969122  0.65543055  0.04544732  1
  H+  H237  1  0.60457307  0.65070015  0.47677825  1
  H+  H238  1  0.13788790  0.28799748  0.86642402  1
  H+  H239  1  0.26779872  0.61867901  0.33800692  1
  H+  H240  1  0.14125472  0.75971572  0.32912005  1
  H+  H241  1  0.74779560  0.87946354  0.33909009  1
  H+  H242  1  0.88963982  0.80357889  1.00061791  1
  H+  H243  1  0.68235280  0.12187869  0.32922511  1
  H+  H244  1  0.16227340  0.36779962  0.90987215  1
  H+  H245  1  -0.03176474  0.60168678  0.83855973  1
  H+  H246  1  0.90551331  0.62686852  0.14264740  1
  H+  H247  1  0.60399782  0.72248988  0.16637748  1
  H+  H248  1  0.74182647  0.88978359  0.82888979  1
  H+  H249  1  0.38030702  0.17709982  0.36355670  1
  H+  H250  1  0.11129590  0.37810380  0.15133574  1
  H+  H251  1  0.38500060  0.76132204  0.15905632  1
  H+  H252  1  0.77607343  0.88457421  0.49469539  1
  H+  H253  1  0.27692999  0.88718753  0.14178670  1
  H+  H254  1  0.29863245  0.89246370  0.67955139  1
  H+  H255  1  0.89125949  0.52473759  0.29773176  1
  H+  H256  1  0.91497398  0.83073081  0.89681908  1
  H+  H257  1  0.13139670  0.59903043  0.32860399  1
  H+  H258  1  0.24405993  0.13068437  0.32920732  1
  H+  H259  1  0.45828196  0.84365975  -0.00761992  1
  H+  H260  1  0.52143456  0.64749027  0.37870340  1
  H+  H261  1  0.87865159  0.38576305  0.51672259  1
  H+  H262  1  0.63246084  0.77814848  0.49287620  1
  H+  H263  1  0.36431988  0.06771940  0.31601225  1
  H+  H264  1  0.67571922  0.07441405  0.98970835  1
  H+  H265  1  0.85760487  0.14096502  0.82642650  1
  H+  H266  1  0.36615018  0.39537726  0.33504912  1
  H+  H267  1  0.88063803  0.14298588  0.50415852  1
  H+  H268  1  0.85365617  0.62545840  0.82897386  1
  H+  H269  1  0.38357250  0.85067775  0.31809085  1
  H+  H270  1  0.50790052  0.62303697  0.16418653  1
  H+  H271  1  0.37244106  0.39247095  0.16619075  1
  H+  H272  1  0.27742467  0.47417095  -0.03132208  1
  H+  H273  1  0.57380930  0.32574253  0.47234146  1
  H+  H274  1  0.61876005  0.72781054  0.67435476  1
  H+  H275  1  0.91625983  0.36785201  0.98370484  1
  H+  H276  1  0.86366032  0.70632274  0.09712854  1
  H+  H277  1  0.49502658  0.11749243  0.33182113  1
  H+  H278  1  0.89196471  0.60882488  0.51857771  1
  H+  H279  1  0.10899153  0.38322749  0.66992797  1
  H+  H280  1  0.13977344  0.87629209  0.85971704  1
  H+  H281  1  1.02561265  0.38236753  0.15428209  1
  H+  H282  1  0.72944096  0.12368602  0.83377802  1
  H+  H283  1  0.65756731  0.02524077  0.33092263  1
  H+  H284  1  0.39620169  0.29096144  0.85402273  1
  H+  H285  1  0.38845656  0.52858497  0.66136099  1
  H+  H286  1  0.12119145  0.39614918  0.49884205  1
  H+  H287  1  0.12061449  0.07627155  0.57020690  1
  H+  H288  1  0.58915010  0.65359932  0.10853513  1
  H+  H289  1  0.22945400  0.36636025  0.32414974  1
  H+  H290  1  0.58050646  0.15882889  0.10118726  1
  H+  H291  1  0.92326698  0.32787381  0.23677395  1
  H+  H292  1  0.10225184  0.67674821  0.07416950  1
  H+  H293  1  1.00966203  0.07185972  0.52487403  1
  H+  H294  1  0.17234189  0.57921014  0.89905081  1
  H+  H295  1  0.15841459  0.57772663  0.60414789  1
  H+  H296  1  0.42213450  0.58665122  0.60103507  1
  H+  H297  1  0.06073204  0.13267707  0.07107736  1
  H+  H298  1  0.92501431  0.08362132  0.59966338  1
  H+  H299  1  0.38736548  0.53157689  0.50325447  1
  H+  H300  1  0.65885058  0.29176598  0.66218614  1
  H+  H301  1  0.65145216  0.82743580  0.23174459  1
  H+  H302  1  0.54125885  0.13850089  0.78761220  1
  H+  H303  1  0.68607856  0.11834987  0.92625264  1
  H+  H304  1  0.91711161  0.07553254  0.26214869  1
  H+  H305  1  0.08529584  0.18986041  0.71567820  1
  H+  H306  1  0.40943485  0.81442763  0.22213088  1
  H+  H307  1  0.43161898  0.61149935  0.89502206  1
  H+  H308  1  0.40871870  0.77922202  0.66358791  1
  H+  H309  1  0.84364347  0.34716141  0.34360383  1
  H+  H310  1  0.40067370  0.33877998  0.57240283  1
  H+  H311  1  0.61267456  0.42403664  0.06941790  1
  H+  H312  1  0.41864569  0.57867326  0.22517291  1
  H+  H313  1  0.33600648  0.02595691  0.61109863  1
  H+  H314  1  0.83799821  0.65993729  0.44660298  1
  H+  H315  1  0.89878421  0.26442071  0.33157314  1
  H+  H316  1  0.67942206  0.60926790  0.61053266  1
  H+  H317  1  0.58226071  0.93295241  0.73525398  1
  H+  H318  1  0.32899924  0.17421991  0.10919319  1
  H+  H319  1  0.07655978  0.19549051  0.41721394  1
  H+  H320  1  0.75672126  0.62765598  0.83450868  1
  H+  H321  1  0.89441233  0.53877944  0.68072129  1
  H+  H322  1  0.54707387  0.34836708  0.41179762  1
  H+  H323  1  0.16805946  0.08364559  0.91506588  1
  H+  H324  1  0.63170913  0.46836401  0.16221429  1
  H+  H325  1  0.34593731  0.91564715  0.42297096  1
  H+  H326  1  0.33709759  0.40067356  0.10173788  1
  H+  H327  1  0.21543085  0.31807205  0.04247658  1
  H+  H328  1  0.32573031  0.91164021  0.78213558  1
  H+  H329  1  0.87599547  0.71787031  0.97229200  1
  H+  H330  1  0.18404264  0.09068321  0.25621962  1
  H+  H331  1  0.09233073  0.93082970  0.78382463  1
  H+  H332  1  0.72327454  0.35800566  0.83451567  1
  H+  H333  1  0.56941465  0.88141840  0.06520346  1
  H+  H334  1  0.63849118  0.55846005  0.51861703  1
  H+  H335  1  0.41157669  0.83490025  0.92922458  1
  H+  H336  1  0.38218905  0.03696458  0.61487522  1
  H+  H337  1  0.87969940  0.08187130  0.93471184  1
  H+  H338  1  0.43527986  0.35403940  0.90987187  1
  H+  H339  1  0.66969873  0.07286591  0.22661317  1
  H+  H340  1  0.33884814  0.17858918  0.78905222  1
  H+  H341  1  0.68930871  0.60412191  0.20050524  1
  H+  H342  1  0.86226303  0.89702277  0.67473510  1
  H+  H343  1  0.83182018  0.91122293  0.43514461  1
  H+  H344  1  0.84561725  0.77176539  0.17835326  1
  H+  H345  1  0.11042376  0.44828084  0.06730293  1
  H+  H346  1  0.59423512  0.17778551  0.42716800  1
  H+  H347  1  0.08382455  0.41006219  0.40568299  1
  H+  H348  1  0.21967194  0.68115545  0.20879466  1
  H+  H349  1  0.19931949  0.82665262  0.59391438  1
  H+  H350  1  0.95066838  0.65493239  0.20696143  1
  H+  H351  1  0.04447916  0.86493524  0.00323473  1
  H+  H352  1  0.35382949  0.92912222  0.06732343  1
  H+  H353  1  0.33016602  0.42512504  0.73735321  1
  H+  H354  1  0.35585058  0.68589781  0.73003446  1
  H+  H355  1  0.33254514  0.67030899  0.43473667  1
  H+  H356  1  0.14174840  0.78488496  0.12336366  1
  H+  H357  1  0.66582232  0.20444919  0.72765144  1
  H+  H358  1  0.11375122  0.63004359  0.49495844  1
  H+  H359  1  0.85808983  0.17058628  0.44197286  1
  H+  H360  1  0.80884628  0.91108803  0.09361868  1
  H+  H361  1  0.87753135  0.48121791  0.51456560  1
  H+  H362  1  0.67153484  0.82818514  0.59797267  1
  H+  H363  1  0.32000492  0.11654118  0.67217141  1
  H+  H364  1  0.41577622  0.07399177  0.23212693  1
  H+  H365  1  0.68235292  0.33892220  0.56937759  1
  H+  H366  1  0.61790028  0.15453895  0.00200069  1
  H+  H367  1  0.40128867  0.07761854  0.91432217  1
  H+  H368  1  0.01651884  0.16219267  0.47471266  1
  H+  H369  1  0.67150774  0.33332096  0.92669130  1
  H+  H370  1  0.88471206  0.27888512  0.67039128  1
  H+  H371  1  0.08156164  0.89613079  0.43899225  1
  H+  H372  1  0.08961151  0.42266621  0.76434472  1
  H+  H373  1  0.16928183  0.33106760  0.22884453  1
  H+  H374  1  0.07840655  0.65796097  0.40779484  1
  H+  H375  1  0.07899003  0.17211285  0.80472881  1
  H+  H376  1  0.92067702  0.58715566  0.61663496  1
  H+  H377  1  0.37087455  0.64719203  0.82455221  1
  H+  H378  1  0.16854788  0.81431854  0.26831686  1
  H+  H379  1  0.36250476  0.39511092  0.68014266  1
  H+  H380  1  0.31090578  0.17359889  0.44558424  1
  H+  H381  1  0.91555378  0.83053190  0.57126926  1
  H+  H382  1  0.93294938  0.85290494  0.24316780  1
  H+  H383  1  0.04140091  0.90741663  0.15199044  1
  O2-  O384  1  0.07665732  0.15677231  0.15399844  1
  O2-  O385  1  0.05662520  0.21489190  0.45219454  1
  O2-  O386  1  0.08171667  0.17479964  0.84890044  1
  O2-  O387  1  0.08463984  0.41158452  0.13741772  1
  O2-  O388  1  0.08746757  0.42407902  0.48360139  1
  O2-  O389  1  0.08725141  0.42635363  0.80990679  1
  O2-  O390  1  0.10336093  0.68179099  0.11964070  1
  O2-  O391  1  0.08209589  0.66045670  0.48001151  1
  O2-  O392  1  0.05803053  0.64480999  0.82291712  1
  O2-  O393  1  0.08789122  0.91966738  0.18041840  1
  O2-  O394  1  0.08158340  0.87957861  0.48134605  1
  O2-  O395  1  0.09917239  0.92872907  0.82862392  1
  O2-  O396  1  0.33135825  0.16516238  0.15403293  1
  O2-  O397  1  0.31374338  0.16477894  0.48953014  1
  O2-  O398  1  0.33743152  0.17669692  0.83328637  1
  O2-  O399  1  0.34237505  0.42069243  0.14761019  1
  O2-  O400  1  0.33616743  0.43005015  0.47673387  1
  O2-  O401  1  0.33734649  0.42962848  0.82036624  1
  O2-  O402  1  0.33370043  0.65981684  0.13067929  1
  O2-  O403  1  0.33303608  0.67296368  0.47984071  1
  O2-  O404  1  0.34026499  0.67773762  0.81015673  1
  O2-  O405  1  0.34080067  0.91788377  0.14422242  1
  O2-  O406  1  0.34373133  0.92130045  0.46828235  1
  O2-  O407  1  0.32138627  0.91142444  0.82745072  1
  O2-  O408  1  0.57983994  0.15094835  0.14605003  1
  O2-  O409  1  0.59750873  0.17582534  0.47211510  1
  O2-  O410  1  0.56647208  0.15789502  0.82837529  1
  O2-  O411  1  0.59150402  0.41110529  0.14389419  1
  O2-  O412  1  0.53455301  0.29952610  0.43827551  1
  O2-  O413  1  0.58594114  0.44626117  0.81364868  1
  O2-  O414  1  0.57647462  0.65945415  0.15392570  1
  O2-  O415  1  0.56712327  0.66936959  0.45710334  1
  O2-  O416  1  0.60392639  0.68855267  0.86580515  1
  O2-  O417  1  0.57700563  0.90302964  0.14056484  1
  O2-  O418  1  0.58824127  0.92573158  0.47941593  1
  O2-  O419  1  0.58400358  0.93150948  0.80729584  1
  O2-  O420  1  0.83048975  0.16421133  0.14316678  1
  O2-  O421  1  0.85124957  0.17182946  0.48725952  1
  O2-  O422  1  0.82449926  0.16436707  0.80549868  1
  O2-  O423  1  0.82927909  0.40508803  0.15080306  1
  O2-  O424  1  0.84740415  0.41802129  0.50110212  1
  O2-  O425  1  0.82349598  0.41941162  0.78411217  1
  O2-  O426  1  0.83256511  0.64389137  0.09882445  1
  O2-  O427  1  0.83772831  0.66133164  0.49139141  1
  O2-  O428  1  0.82379347  0.65861660  0.81676519  1
  O2-  O429  1  0.81472090  0.91500256  0.13870901  1
  O2-  O430  1  0.83680468  0.91055153  0.47980045  1
  O2-  O431  1  0.84053155  0.93521125  0.81231417  1
  O2-  O432  1  0.17878164  0.08396903  0.20176893  1
  O2-  O433  1  0.10593673  0.07444387  0.52627323  1
  O2-  O434  1  0.16691210  0.09105429  0.86929743  1
  O2-  O435  1  0.16800259  0.32453084  0.18384141  1
  O2-  O436  1  0.17348261  0.34820603  0.51628474  1
  O2-  O437  1  0.16941496  0.35170716  0.86851448  1
  O2-  O438  1  0.18546833  0.62454037  0.19055564  1
  O2-  O439  1  0.16658610  0.58753226  0.52193581  1
  O2-  O440  1  0.16953188  0.58505624  0.85512053  1
  O2-  O441  1  0.16866894  0.85007162  0.12343555  1
  O2-  O442  1  0.18382479  0.82358385  0.51986233  1
  O2-  O443  1  0.16581794  0.83867985  0.87173693  1
  O2-  O444  1  0.41650463  0.08153607  0.18601613  1
  O2-  O445  1  0.41728041  0.09529034  0.49718240  1
  O2-  O446  1  0.40085741  0.07727248  0.86831848  1
  O2-  O447  1  0.42761814  0.33829470  0.18861626  1
  O2-  O448  1  0.38820706  0.32355501  0.52903764  1
  O2-  O449  1  0.42511120  0.35254279  0.86473723  1
  O2-  O450  1  0.42182562  0.57761968  0.18026244  1
  O2-  O451  1  0.42051253  0.59230748  0.51890475  1
  O2-  O452  1  0.43096920  0.60316621  0.84958549  1
  O2-  O453  1  0.41317930  0.82082375  0.17700464  1
  O2-  O454  1  0.42537281  0.84298189  0.52016134  1
  O2-  O455  1  0.42279157  0.83927877  0.85211884  1
  O2-  O456  1  0.66368805  0.06975829  0.18187317  1
  O2-  O457  1  0.67804204  0.09147501  0.51728507  1
  O2-  O458  1  0.67014374  0.09561659  0.85348549  1
  O2-  O459  1  0.65554444  0.31700952  0.18657001  1
  O2-  O460  1  0.69123925  0.33862886  0.52444462  1
  O2-  O461  1  0.67163857  0.32779990  0.86003094  1
  O2-  O462  1  0.71224935  0.56748156  0.18840992  1
  O2-  O463  1  0.67371700  0.62072066  0.52439214  1
  O2-  O464  1  0.67976150  0.59191094  0.86002230  1
  O2-  O465  1  0.65330014  0.82251020  0.18658681  1
  O2-  O466  1  0.66880668  0.83495417  0.51216873  1
  O2-  O467  1  0.67906306  0.86156802  0.84239714  1
  O2-  O468  1  0.91024115  0.08035772  0.18493866  1
  O2-  O469  1  0.95411885  0.07263704  0.52194860  1
  O2-  O470  1  0.90593333  0.09015671  0.86388923  1
  O2-  O471  1  0.92248373  0.33060623  0.19157008  1
  O2-  O472  1  0.92144923  0.33752229  0.53715571  1
  O2-  O473  1  0.91199947  0.32889781  0.80237265  1
  O2-  O474  1  0.95091539  0.62756812  0.16866062  1
  O2-  O475  1  0.92299896  0.57954803  0.53434752  1
  O2-  O476  1  0.89935731  0.57004154  0.84465583  1
  O2-  O477  1  0.88977695  0.83220737  0.18066602  1
  O2-  O478  1  0.91627123  0.82422580  0.52604421  1
  O2-  O479  1  0.92366585  0.86135280  0.85788057  1
  O2-  O480  1  0.18371912  0.09458525  0.31178473  1
  O2-  O481  1  0.13538324  0.08128510  0.64813839  1
  O2-  O482  1  0.16461470  0.07058021  0.98705612  1
  O2-  O483  1  0.16913249  0.33166970  0.30910658  1
  O2-  O484  1  0.16633125  0.33859292  0.63727006  1
  O2-  O485  1  0.15517390  0.30462960  1.03548896  1
  O2-  O486  1  0.15916779  0.56813136  0.31148797  1
  O2-  O487  1  0.15367473  0.56847230  0.64861345  1
  O2-  O488  1  0.13745183  0.47827582  1.02739766  1
  O2-  O489  1  0.16528858  0.81882526  0.31236135  1
  O2-  O490  1  0.20250478  0.83234389  0.64002062  1
  O2-  O491  1  0.18205751  0.84512321  0.93856012  1
  O2-  O492  1  0.40945022  0.05543390  0.30508136  1
  O2-  O493  1  0.46992652  0.09271621  0.71841478  1
  O2-  O494  1  0.41857349  0.08742312  0.98767060  1
  O2-  O495  1  0.41403536  0.34234881  0.30916828  1
  O2-  O496  1  0.42000264  0.34774427  0.65369551  1
  O2-  O497  1  0.44898625  0.34283909  0.98438057  1
  O2-  O498  1  0.43431411  0.59811889  0.31111711  1
  O2-  O499  1  0.42415665  0.58860479  0.64620153  1
  O2-  O500  1  0.45515867  0.65000527  0.96485777  1
  O2-  O501  1  0.40445874  0.81063795  0.30108376  1
  O2-  O502  1  0.43611125  0.84455980  0.64718167  1
  O2-  O503  1  0.40301473  0.83168932  0.97437032  1
  O2-  O504  1  0.69714708  0.08148130  0.31103047  1
  O2-  O505  1  0.67759275  0.08536873  0.64079387  1
  O2-  O506  1  0.69189619  0.12990246  0.97172425  1
  O2-  O507  1  0.65077349  0.32896281  0.30959552  1
  O2-  O508  1  0.68204846  0.35181327  0.64784252  1
  O2-  O509  1  0.66834324  0.33275456  0.97453838  1
  O2-  O510  1  0.64372832  0.59816097  0.33731172  1
  O2-  O511  1  0.67651413  0.59930336  0.65484032  1
  O2-  O512  1  0.71920894  0.59062103  0.98126790  1
  O2-  O513  1  0.63863871  0.82909635  0.31090929  1
  O2-  O514  1  0.66845599  0.82653005  0.64270026  1
  O2-  O515  1  0.64325748  0.78420909  0.96998069  1
  O2-  O516  1  0.92639431  0.07601379  0.30726386  1
  O2-  O517  1  0.92031566  0.09052583  0.64403505  1
  O2-  O518  1  0.86365786  0.07857480  0.97908681  1
  O2-  O519  1  0.91929008  0.32389763  0.31676409  1
  O2-  O520  1  0.91279226  0.34030135  0.65772717  1
  O2-  O521  1  0.94248335  0.34933029  0.95208311  1
  O2-  O522  1  0.96063232  0.71070465  0.28877289  1
  O2-  O523  1  0.92198684  0.59614183  0.66133289  1
  O2-  O524  1  0.88394555  0.53995384  0.90836242  1
  O2-  O525  1  0.94971147  0.84580056  0.28719904  1
  O2-  O526  1  0.91104501  0.83921753  0.64970085  1
  O2-  O527  1  0.91534469  0.78314067  0.97101107  1
  O2-  O528  1  0.05974451  0.13472344  0.02625530  1
  O2-  O529  1  0.09692990  0.16554179  0.33823907  1
  O2-  O530  1  0.08007210  0.17895291  0.67236399  1
  O2-  O531  1  0.11783506  0.40720781  -0.01406962  1
  O2-  O532  1  0.08203774  0.40484065  0.36022679  1
  O2-  O533  1  0.07821449  0.41122232  0.68826779  1
  O2-  O534  1  0.11357544  0.69293249  -0.00301439  1
  O2-  O535  1  0.07470520  0.65567436  0.36095807  1
  O2-  O536  1  0.09031468  0.66995638  0.69974141  1
  O2-  O537  1  0.10627649  0.90072353  0.01147620  1
  O2-  O538  1  0.09095499  0.91989198  0.34597225  1
  O2-  O539  1  0.06884614  0.93793879  0.70584197  1
  O2-  O540  1  0.31516159  0.20321272  0.03692436  1
  O2-  O541  1  0.33565997  0.19257184  0.36033184  1
  O2-  O542  1  0.31931374  0.16495906  0.65292047  1
  O2-  O543  1  0.32564623  0.35558859  0.04271329  1
  O2-  O544  1  0.33550327  0.42524447  0.35084571  1
  O2-  O545  1  0.32956543  0.42381446  0.69214299  1
  O2-  O546  1  0.32395617  0.66035625  0.00080152  1
  O2-  O547  1  0.32841641  0.65354248  0.35214991  1
  O2-  O548  1  0.36810924  0.69449364  0.68572689  1
  O2-  O549  1  0.35213967  0.93598376  0.02253568  1
  O2-  O550  1  0.34849367  0.90650082  0.34495693  1
  O2-  O551  1  0.35119605  0.91509741  0.70545832  1
  O2-  O552  1  0.58441579  0.17889537  0.02106799  1
  O2-  O553  1  0.55945960  0.15837369  0.34489348  1
  O2-  O554  1  0.63515698  0.19055065  0.68890650  1
  O2-  O555  1  0.61761453  0.42739233  0.02357781  1
  O2-  O556  1  0.57586104  0.41889156  0.34344186  1
  O2-  O557  1  0.58681555  0.43104299  0.68755958  1
  O2-  O558  1  0.60307392  0.64458091  0.04189805  1
  O2-  O559  1  0.52354905  0.65311544  0.33306385  1
  O2-  O560  1  0.59096500  0.66838878  0.69201146  1
  O2-  O561  1  0.56327550  0.86727747  0.02051648  1
  O2-  O562  1  0.57527781  0.93154673  0.36263878  1
  O2-  O563  1  0.58122837  0.93119173  0.68872835  1
  O2-  O564  1  0.84794005  0.19121913  0.02829328  1
  O2-  O565  1  0.85903981  0.16292369  0.36387993  1
  O2-  O566  1  0.83367101  0.16557713  0.68265442  1
  O2-  O567  1  0.85388066  0.40292559  0.03101192  1
  O2-  O568  1  0.79847079  0.35763188  0.36152088  1
  O2-  O569  1  0.83653686  0.43029285  0.71765103  1
  O2-  O570  1  0.81179675  0.61442578  -0.01507831  1
  O2-  O571  1  0.82032724  0.64608472  0.35992872  1
  O2-  O572  1  0.83442130  0.67755931  0.69970323  1
  O2-  O573  1  0.79936918  0.90663050  0.01310303  1
  O2-  O574  1  0.80953602  0.90704761  0.35086061  1
  O2-  O575  1  0.83508955  0.92938357  0.69119809  1
