# generated using pymatgen
data_H2O
_symmetry_space_group_name_H-M   'P 1'
_cell_length_a   17.99139899
_cell_length_b   17.99198034
_cell_length_c   22.01060558
_cell_angle_alpha   89.97342450
_cell_angle_beta   90.01216872
_cell_angle_gamma   119.97455104
_symmetry_Int_Tables_number   1
_chemical_formula_structural   H2O
_chemical_formula_sum   'H384 O192'
_cell_volume   6171.88453948
_cell_formula_units_Z   192
loop_
 _symmetry_equiv_pos_site_id
 _symmetry_equiv_pos_as_xyz
  1  'x, y, z'
loop_
 _atom_type_symbol
 _atom_type_oxidation_number
  H+  1.0
  O2-  -2.0
loop_
 _atom_site_type_symbol
 _atom_site_label
 _atom_site_symmetry_multiplicity
 _atom_site_fract_x
 _atom_site_fract_y
 _atom_site_fract_z
 _atom_site_occupancy
  H+  H0  1  0.63614600  0.86426355  0.82961850  1
  H+  H1  1  0.28646531  0.42329581  0.80579922  1
  H+  H2  1  0.27537248  0.87966388  0.15742707  1
  H+  H3  1  0.62776212  0.63932858  1.00954421  1
  H+  H4  1  0.61260941  0.48037588  0.16106997  1
  H+  H5  1  0.37151748  0.38096680  0.33838339  1
  H+  H6  1  0.89883265  0.12719194  0.17294094  1
  H+  H7  1  0.41265113  0.14349029  0.50964921  1
  H+  H8  1  0.16945525  0.06787140  0.51165154  1
  H+  H9  1  0.37059626  0.70082024  0.34730108  1
  H+  H10  1  0.52629272  0.65342692  0.48216207  1
  H+  H11  1  0.87026539  0.16025024  0.82214708  1
  H+  H12  1  0.46391578  0.86560700  0.66009440  1
  H+  H13  1  0.22096629  0.33273139  0.86360605  1
  H+  H14  1  0.63687520  0.27467834  0.83855628  1
  H+  H15  1  0.50753639  0.38191542  1.00297466  1
  H+  H16  1  0.14114259  0.89422958  0.66284285  1
  H+  H17  1  0.62688972  0.72734144  0.00682608  1
  H+  H18  1  0.15407943  0.12013232  0.18050248  1
  H+  H19  1  0.40913951  0.57221439  0.26389665  1
  H+  H20  1  0.53232756  0.15632405  0.67014105  1
  H+  H21  1  0.27643113  0.14443256  0.83709979  1
  H+  H22  1  0.71575845  0.14304112  0.94430018  1
  H+  H23  1  0.01959393  0.62689661  0.84274415  1
  H+  H24  1  0.38279968  0.01630662  0.17991491  1
  H+  H25  1  0.16637184  0.73886699  0.35745574  1
  H+  H26  1  0.64378654  0.77782385  0.49602404  1
  H+  H27  1  0.89060650  0.77801890  0.33223185  1
  H+  H28  1  0.85376064  0.12969210  0.02982104  1
  H+  H29  1  0.18185834  0.79992249  0.52963172  1
  H+  H30  1  0.34349513  0.61912476  0.16020731  1
  H+  H31  1  0.42471684  0.38384543  0.49565565  1
  H+  H32  1  0.11315093  0.55928121  0.16637274  1
  H+  H33  1  0.14316104  -0.03995411  0.49142735  1
  H+  H34  1  0.38959573  0.11345386  0.83840631  1
  H+  H35  1  0.86528373  0.72600636  0.82048174  1
  H+  H36  1  0.13864376  1.02109173  0.33145327  1
  H+  H37  1  0.15292439  0.51401795  1.00522425  1
  H+  H38  1  0.61554032  0.35616118  -0.00662205  1
  H+  H39  1  0.61250840  0.38100641  0.33832974  1
  H+  H40  1  0.38974464  0.27506518  0.32910412  1
  H+  H41  1  0.63108893  0.39635090  0.66970173  1
  H+  H42  1  0.72058138  0.86638367  0.66581767  1
  H+  H43  1  1.02987064  0.39151877  0.83544227  1
  H+  H44  1  0.07289896  0.60570878  0.48700189  1
  H+  H45  1  0.83405005  0.92028341  0.43119547  1
  H+  H46  1  0.13494006  0.51363872  0.83402290  1
  H+  H47  1  0.73816264  0.13243589  0.30955170  1
  H+  H48  1  0.11779630  0.15433820  0.67109079  1
  H+  H49  1  0.01356292  0.37640829  0.67362198  1
  H+  H50  1  -0.02366437  0.11655128  0.50524521  1
  H+  H51  1  0.88944212  0.61617229  0.84063623  1
  H+  H52  1  0.11649740  0.71765485  0.56536783  1
  H+  H53  1  0.59969283  0.22702982  1.00718841  1
  H+  H54  1  0.03612081  0.62527029  0.29147242  1
  H+  H55  1  1.01549709  0.89502125  0.65423663  1
  H+  H56  1  0.27691006  0.39549304  0.00775083  1
  H+  H57  1  0.12165890  0.15565594  0.49455406  1
  H+  H58  1  0.43473320  0.90298070  0.46323445  1
  H+  H59  1  0.84304426  0.42071174  0.74435815  1
  H+  H60  1  0.38372695  0.10653260  0.17584929  1
  H+  H61  1  0.05987443  0.43120387  -0.00274647  1
  H+  H62  1  0.47932496  0.36888329  0.83204699  1
  H+  H63  1  0.63585882  0.52596451  0.83160763  1
  H+  H64  1  0.14401265  0.75730675  0.84809943  1
  H+  H65  1  0.16058022  0.33127060  0.91504393  1
  H+  H66  1  0.36681850  0.90201838  0.31843931  1
  H+  H67  1  0.28222476  0.88427774  0.82982552  1
  H+  H68  1  0.03956150  0.59294575  0.68240547  1
  H+  H69  1  0.05788019  0.17160942  0.18105579  1
  H+  H70  1  0.48752693  0.62705663  0.83843258  1
  H+  H71  1  0.61471876  0.14490562  0.66999998  1
  H+  H72  1  0.49179223  0.61586853  0.99263192  1
  H+  H73  1  0.92221738  0.83536381  0.89240995  1
  H+  H74  1  0.93852035  0.34837537  1.02431014  1
  H+  H75  1  0.62966138  0.26647485  0.32697209  1
  H+  H76  1  0.88593707  0.24440917  0.17746069  1
  H+  H77  1  0.64394915  0.12425717  0.31073897  1
  H+  H78  1  0.39975673  0.04344381  0.65557749  1
  H+  H79  1  0.22438451  0.11762236  0.66511336  1
  H+  H80  1  0.47172431  0.11235562  0.99005024  1
  H+  H81  1  0.22642107  0.61248520  0.84110318  1
  H+  H82  1  0.10140029  0.51350901  0.66189024  1
  H+  H83  1  0.63793815  0.87958941  0.50035806  1
  H+  H84  1  0.39911892  0.53628170  0.64574771  1
  H+  H85  1  0.13111715  0.04364172  0.64723563  1
  H+  H86  1  0.03079152  0.89282033  0.00366642  1
  H+  H87  1  0.61312545  0.38936157  0.82555949  1
  H+  H88  1  0.37030174  0.78137078  0.65019823  1
  H+  H89  1  0.93998703  0.72684553  0.39634135  1
  H+  H90  1  0.54181108  0.39822743  0.66825004  1
  H+  H91  1  0.60474312  0.14139050  0.00375737  1
  H+  H92  1  0.85815408  0.97093651  0.33627122  1
  H+  H93  1  0.11534004  0.24170994  0.67046618  1
  H+  H94  1  0.85632988  0.97112753  0.16727786  1
  H+  H95  1  -0.02683574  0.12062562  0.66067160  1
  H+  H96  1  0.86082968  0.13760271  0.49241974  1
  H+  H97  1  0.49884784  0.13895004  0.51078836  1
  H+  H98  1  0.06034860  0.88987972  0.39599202  1
  H+  H99  1  0.17395516  0.61119699  0.65156581  1
  H+  H100  1  0.16333330  0.62529181  0.99485714  1
  H+  H101  1  0.29628301  0.16917241  0.49575526  1
  H+  H102  1  0.12222399  0.71922037  0.01470940  1
  H+  H103  1  0.41151882  0.28941246  0.49873233  1
  H+  H104  1  0.10527125  0.51447804  0.50621974  1
  H+  H105  1  0.29890299  0.64813056  0.59715027  1
  H+  H106  1  0.62279627  0.64468842  0.82508921  1
  H+  H107  1  0.13423178  0.12449694  0.84045234  1
  H+  H108  1  0.97507797  0.82016403  0.48015147  1
  H+  H109  1  0.39205104  0.37171989  0.82970325  1
  H+  H110  1  0.52571589  0.13715943  0.33857326  1
  H+  H111  1  0.72465577  0.36412447  0.84435333  1
  H+  H112  1  0.34695527  0.18346037  0.43259693  1
  H+  H113  1  0.11489601  0.98439918  0.00680080  1
  H+  H114  1  0.27655695  0.91911372  0.50089141  1
  H+  H115  1  0.37795853  0.61633726  0.34513879  1
  H+  H116  1  0.14501875  0.38133769  0.00264079  1
  H+  H117  1  0.62869169  0.77795071  0.33189791  1
  H+  H118  1  0.14373735  0.86106110  0.00151644  1
  H+  H119  1  0.88874500  0.36051339  0.66974282  1
  H+  H120  1  0.63764350  0.76603494  0.82681231  1
  H+  H121  1  0.83178701  0.50552760  0.99104735  1
  H+  H122  1  0.28006742  0.40397346  0.66024594  1
  H+  H123  1  0.86404475  0.26058079  1.00374014  1
  H+  H124  1  0.36287808  0.72529839  0.15432300  1
  H+  H125  1  0.84228838  0.49535456  0.50414095  1
  H+  H126  1  0.62282121  0.60506233  0.50688051  1
  H+  H127  1  0.13143429  0.27915250  0.49959487  1
  H+  H128  1  0.88792712  0.02800951  0.65809408  1
  H+  H129  1  0.25287070  0.59951481  0.34043174  1
  H+  H130  1  0.11801702  0.38842715  0.83333373  1
  H+  H131  1  0.53197291  0.63332710  0.33278220  1
  H+  H132  1  0.71786758  0.86129934  0.18443125  1
  H+  H133  1  0.86145455  0.48105004  0.83644682  1
  H+  H134  1  0.38148774  0.85420449  0.16800913  1
  H+  H135  1  0.63560458  0.63489124  0.67468971  1
  H+  H136  1  0.34938078  0.12309738  0.67920974  1
  H+  H137  1  0.12708764  0.60742944  0.83428032  1
  H+  H138  1  0.71271150  0.86902037  0.33401957  1
  H+  H139  1  0.66929643  0.09144623  0.23376524  1
  H+  H140  1  0.87272598  0.76781679  0.99664135  1
  H+  H141  1  0.10611260  0.22749502  0.82729559  1
  H+  H142  1  0.39614321  0.51362496  0.32185726  1
  H+  H143  1  0.86643336  0.63573444  0.16806212  1
  H+  H144  1  0.43376350  0.83929989  0.93671730  1
  H+  H145  1  0.93963898  0.64408338  0.67647575  1
  H+  H146  1  0.27785069  0.88118051  0.48725527  1
  H+  H147  1  0.54513133  0.63033078  0.66714217  1
  H+  H148  1  0.62525278  0.13913016  0.49026363  1
  H+  H149  1  0.80236313  0.41141298  0.67862525  1
  H+  H150  1  -0.02267680  0.86655520  0.17604359  1
  H+  H151  1  0.43194342  0.63680719  0.65367730  1
  H+  H152  1  0.84710744  0.87886894  0.34102644  1
  H+  H153  1  0.12952238  0.85396870  0.15470364  1
  H+  H154  1  0.23767502  0.11157100  0.17640673  1
  H+  H155  1  0.73641223  0.86820781  0.49850002  1
  H+  H156  1  0.98418670  0.38778900  0.17498339  1
  H+  H157  1  0.77834372  0.64967706  0.02600942  1
  H+  H158  1  0.86360742  0.24005865  0.33934229  1
  H+  H159  1  0.60708978  0.88160286  0.16845912  1
  H+  H160  1  0.76101302  0.11991561  0.03476058  1
  H+  H161  1  0.98191330  0.09739402  0.32042336  1
  H+  H162  1  0.85308983  0.22260780  0.49694366  1
  H+  H163  1  0.86179306  0.60357444  0.33459431  1
  H+  H164  1  0.40909008  0.38311515  0.65105351  1
  H+  H165  1  0.72935897  0.61493108  0.17692998  1
  H+  H166  1  0.39748278  0.87163348  0.83859936  1
  H+  H167  1  0.73210059  0.86457925  0.82799155  1
  H+  H168  1  0.86644548  0.97852490  0.49229424  1
  H+  H169  1  0.38994090  0.73836017  1.00651047  1
  H+  H170  1  0.63287525  0.51957751  0.50536440  1
  H+  H171  1  0.11943389  0.13235078  0.33959688  1
  H+  H172  1  0.34315469  0.42224041  0.54130815  1
  H+  H173  1  0.86072294  0.88729121  0.01623531  1
  H+  H174  1  0.80943360  0.40182577  0.40986919  1
  H+  H175  1  0.79465342  0.64080322  0.66543801  1
  H+  H176  1  0.36828657  0.14350527  0.34035984  1
  H+  H177  1  0.75084746  0.62685149  0.49766402  1
  H+  H178  1  0.13857130  0.37377983  0.65568207  1
  H+  H179  1  0.10416868  0.70194091  0.14949321  1
  H+  H180  1  0.16535463  0.95012758  0.78715971  1
  H+  H181  1  0.07085092  0.93862838  0.71351810  1
  H+  H182  1  0.49288620  0.86776106  -0.00405742  1
  H+  H183  1  0.11344389  0.88738469  0.34213700  1
  H+  H184  1  0.62348921  0.63991051  0.33639399  1
  H+  H185  1  0.84727969  0.12679180  0.67847088  1
  H+  H186  1  0.62908074  0.97930637  0.50190334  1
  H+  H187  1  0.47709489  0.35527367  0.17237573  1
  H+  H188  1  0.36652226  0.97950660  0.82599188  1
  H+  H189  1  0.78229636  0.15615904  0.83206865  1
  H+  H190  1  0.88913831  0.37428427  0.17504604  1
  H+  H191  1  0.39988500  0.52945972  -0.01010311  1
  H+  H192  1  0.59864154  0.87795209  0.67265766  1
  H+  H193  1  0.87404124  0.51428476  0.17490460  1
  H+  H194  1  0.64076593  0.61785501  0.17674262  1
  H+  H195  1  0.11052171  0.96999133  0.47741554  1
  H+  H196  1  0.13868881  0.12315843  1.00636079  1
  H+  H197  1  0.51375069  0.12158828  0.16216205  1
  H+  H198  1  0.55421382  0.39012378  0.49098870  1
  H+  H199  1  0.34423602  0.66844752  0.09024114  1
  H+  H200  1  -0.01807062  0.86648511  0.83348081  1
  H+  H201  1  0.71651179  0.10460894  0.66074387  1
  H+  H202  1  0.64374995  0.37401919  0.17642807  1
  H+  H203  1  0.16422220  0.34332604  0.59488267  1
  H+  H204  1  0.64416256  0.23543067  0.48590506  1
  H+  H205  1  0.36769543  0.63926370  0.84030040  1
  H+  H206  1  0.05509299  0.80654840  0.48332373  1
  H+  H207  1  0.37444311  0.35229421  0.98421929  1
  H+  H208  1  0.25610107  0.62984294  0.99726966  1
  H+  H209  1  0.39148195  0.03512873  0.32883359  1
  H+  H210  1  0.73401779  0.55303758  0.96653038  1
  H+  H211  1  0.62400912  0.01801712  0.65818581  1
  H+  H212  1  0.24294947  0.41227817  0.17551335  1
  H+  H213  1  1.01891531  0.58086030  0.30412219  1
  H+  H214  1  0.13209781  0.03664447  0.85093062  1
  H+  H215  1  0.84210690  0.66607245  0.76258625  1
  H+  H216  1  0.36836007  0.98216862  0.01208426  1
  H+  H217  1  0.28324492  0.89147554  0.01839368  1
  H+  H218  1  0.53050862  0.88757568  0.82959571  1
  H+  H219  1  0.14769919  0.52145440  0.33293734  1
  H+  H220  1  0.82952500  0.46381717  0.35026348  1
  H+  H221  1  0.11522367  0.21952017  0.34104820  1
  H+  H222  1  0.72852050  0.59253144  0.32054967  1
  H+  H223  1  0.87019515  0.72866778  0.17025773  1
  H+  H224  1  0.09931794  0.85647246  0.76929617  1
  H+  H225  1  0.83662536  0.61861962  0.49753517  1
  H+  H226  1  0.62531381  1.01419211  0.17351919  1
  H+  H227  1  0.03308255  0.14901907  0.03296361  1
  H+  H228  1  0.83845947  0.38136342  1.00730165  1
  H+  H229  1  0.63917687  0.77308635  0.67126782  1
  H+  H230  1  0.24569502  0.87759518  0.34591401  1
  H+  H231  1  0.35204597  0.89107114  0.67048714  1
  H+  H232  1  0.05667203  0.68477916  0.47692497  1
  H+  H233  1  0.14625738  0.84532628  0.85489930  1
  H+  H234  1  0.58036787  0.88814328  0.34491808  1
  H+  H235  1  0.11899550  0.97649309  0.16212712  1
  H+  H236  1  0.17245754  0.07808477  0.27053399  1
  H+  H237  1  -0.04928290  0.35915787  0.50869577  1
  H+  H238  1  0.05255541  0.63553005  0.77611625  1
  H+  H239  1  -0.06908980  0.57761113  0.48797406  1
  H+  H240  1  0.86116166  0.88458129  0.82150736  1
  H+  H241  1  0.10732717  0.39331117  0.34053308  1
  H+  H242  1  0.48043002  0.36384349  0.32890032  1
  H+  H243  1  0.86742471  0.39565848  0.83865963  1
  H+  H244  1  0.85628272  0.34896268  0.51437554  1
  H+  H245  1  0.61969910  0.10388333  0.16511959  1
  H+  H246  1  0.97849821  0.11284669  0.81584996  1
  H+  H247  1  0.59413705  0.67056897  0.76293559  1
  H+  H248  1  0.94760127  0.08933126  0.13387742  1
  H+  H249  1  0.72898862  0.10946170  0.50695382  1
  H+  H250  1  0.62771097  -0.01656332  1.00879669  1
  H+  H251  1  0.09413222  0.38528166  0.49030621  1
  H+  H252  1  0.36547431  0.23118177  0.82771932  1
  H+  H253  1  0.66000196  0.29035627  0.65573496  1
  H+  H254  1  0.38697193  0.64597721  0.00682049  1
  H+  H255  1  0.70394238  0.09818100  0.76193503  1
  H+  H256  1  0.71806179  0.35446752  0.33292663  1
  H+  H257  1  0.13900495  0.28754795  1.00906341  1
  H+  H258  1  0.31000312  0.76258103  0.30197562  1
  H+  H259  1  0.27045353  0.13062423  0.01100981  1
  H+  H260  1  0.21829674  0.37226540  0.50201357  1
  H+  H261  1  0.24717676  0.89217392  0.67348586  1
  H+  H262  1  0.88898693  0.37789260  0.33302329  1
  H+  H263  1  0.62160224  0.97475390  0.81407751  1
  H+  H264  1  0.85572384  0.60450783  0.99816345  1
  H+  H265  1  0.34758889  0.42705182  1.05921448  1
  H+  H266  1  0.54022372  0.88422361  0.50289601  1
  H+  H267  1  0.97200517  0.86882373  0.32465053  1
  H+  H268  1  0.88763579  0.02065235  1.02226365  1
  H+  H269  1  0.85751173  0.75570456  0.51007086  1
  H+  H270  1  0.47085822  0.85242581  0.17126747  1
  H+  H271  1  0.36965412  0.22315654  0.16416741  1
  H+  H272  1  0.86007917  -0.02653749  0.81402382  1
  H+  H273  1  0.39365889  0.78131317  0.84525273  1
  H+  H274  1  0.65751206  0.52723071  0.66162716  1
  H+  H275  1  0.73484000  0.86776909  -0.00234011  1
  H+  H276  1  0.61418778  0.72566169  0.16927088  1
  H+  H277  1  0.86381301  0.89045026  0.66271127  1
  H+  H278  1  0.38105138  0.10781221  -0.01084531  1
  H+  H279  1  0.27686960  0.13918045  0.34203157  1
  H+  H280  1  0.16018933  0.33384483  0.39226895  1
  H+  H281  1  0.89395699  0.78263837  0.65622328  1
  H+  H282  1  0.37936760  0.49808981  0.81973960  1
  H+  H283  1  0.76841940  0.38770977  0.16694042  1
  H+  H284  1  0.35844579  0.21754218  0.00454545  1
  H+  H285  1  0.41214915  0.76656418  0.51253715  1
  H+  H286  1  0.52739436  0.13644989  0.82217606  1
  H+  H287  1  0.17706270  0.62833146  0.34386652  1
  H+  H288  1  0.41780732  0.32589087  0.23066632  1
  H+  H289  1  0.15721600  0.82936709  0.62008521  1
  H+  H290  1  0.62763162  0.06871229  0.92488819  1
  H+  H291  1  0.07788494  0.41184199  0.73094179  1
  H+  H292  1  0.11312548  0.56656183  0.56665239  1
  H+  H293  1  0.36023645  0.64764560  0.44866830  1
  H+  H294  1  0.42309971  0.83574747  0.56339671  1
  H+  H295  1  0.82124843  0.78891913  0.95006361  1
  H+  H296  1  0.91658732  0.08661159  0.56445190  1
  H+  H297  1  0.89776481  0.29004982  0.85292345  1
  H+  H298  1  0.59148786  0.66969652  0.10900141  1
  H+  H299  1  0.58034706  0.41989459  0.10210766  1
  H+  H300  1  0.18798102  0.12384008  0.57085402  1
  H+  H301  1  0.68204335  0.37972000  0.49574450  1
  H+  H302  1  0.32902708  0.92183507  0.73513050  1
  H+  H303  1  0.08541965  0.64281969  0.06231750  1
  H+  H304  1  0.82331438  0.41530911  0.10458037  1
  H+  H305  1  0.92875653  0.35121476  0.90937757  1
  H+  H306  1  0.09503449  0.44994505  0.09953247  1
  H+  H307  1  0.91015041  0.08616850  0.86757981  1
  H+  H308  1  0.56989482  0.15341478  0.10073894  1
  H+  H309  1  0.10498433  0.18849421  0.08455937  1
  H+  H310  1  0.82465828  0.17275575  0.39287787  1
  H+  H311  1  0.62889269  0.89538373  0.00886663  1
  H+  H312  1  0.08274455  0.16709902  0.43202580  1
  H+  H313  1  0.66860571  0.58005406  0.26454632  1
  H+  H314  1  0.61407022  0.47172048  0.33663757  1
  H+  H315  1  0.48594209  0.86080987  0.32792142  1
  H+  H316  1  0.42288566  0.61162930  0.55180559  1
  H+  H317  1  0.09020392  0.18020992  0.76139663  1
  H+  H318  1  0.72647496  0.61370364  0.83080882  1
  H+  H319  1  0.40623022  0.32366626  0.92573675  1
  H+  H320  1  0.14160075  0.80205187  0.20645172  1
  H+  H321  1  0.49344448  0.93638152  0.40508639  1
  H+  H322  1  0.43193298  0.59222556  0.90028200  1
  H+  H323  1  0.58348544  0.91296066  0.10676178  1
  H+  H324  1  0.83789353  0.17884309  0.12397142  1
  H+  H325  1  0.38474609  0.93383008  0.38652258  1
  H+  H326  1  0.18326694  0.83635752  0.29120331  1
  H+  H327  1  0.67068942  0.34173996  0.23594138  1
  H+  H328  1  0.23413781  0.36601014  0.34515144  1
  H+  H329  1  0.34564232  0.43787532  0.71634434  1
  H+  H330  1  0.84453559  0.21265260  0.68248679  1
  H+  H331  1  0.02126662  0.40254168  0.33517008  1
  H+  H332  1  0.92848723  0.06803504  0.25916161  1
  H+  H333  1  0.34332552  0.92188585  0.10380506  1
  H+  H334  1  0.33692090  0.16192541  0.10461896  1
  H+  H335  1  0.58534662  0.17583212  0.76187711  1
  H+  H336  1  0.90489845  0.32425281  0.60780299  1
  H+  H337  1  0.74737857  0.37622317  0.00965512  1
  H+  H338  1  0.38549368  0.79593731  0.25354318  1
  H+  H339  1  0.16242281  0.09648376  0.94258671  1
  H+  H340  1  0.67883761  0.83847108  0.93603695  1
  H+  H341  1  0.33804859  0.67011166  0.78309067  1
  H+  H342  1  0.65096492  0.32929588  0.93437970  1
  H+  H343  1  0.70016218  0.35068891  0.59789048  1
  H+  H344  1  0.84465325  0.67623169  0.41364469  1
  H+  H345  1  0.58981331  0.41989210  0.76357752  1
  H+  H346  1  0.56692729  0.90810765  0.72861876  1
  H+  H347  1  0.87323391  0.85348485  0.50318225  1
  H+  H348  1  0.30334722  0.62430497  0.66442695  1
  H+  H349  1  0.84217457  0.67997374  0.08325126  1
  H+  H350  1  0.67718802  0.58424192  0.60167595  1
  H+  H351  1  0.60628282  0.42290703  0.42984142  1
  H+  H352  1  0.64235802  0.11529969  0.80472532  1
  H+  H353  1  0.44319345  0.35301244  0.59541001  1
  H+  H354  1  0.65629405  0.83536181  0.24299103  1
  H+  H355  1  0.92682342  0.09131581  0.97113121  1
  H+  H356  1  0.92218422  0.35594748  0.27044632  1
  H+  H357  1  0.91641920  0.83522056  0.23559881  1
  H+  H358  1  0.11479623  0.66158850  0.40480841  1
  H+  H359  1  0.06541173  0.41717290  0.43197917  1
  H+  H360  1  0.14429001  0.26045204  0.17199578  1
  H+  H361  1  0.31636830  0.14415534  0.74122368  1
  H+  H362  1  0.17980376  0.37005422  0.23128659  1
  H+  H363  1  0.82851188  0.91001933  0.07954294  1
  H+  H364  1  0.66581451  0.08035599  0.56585646  1
  H+  H365  1  0.96498391  0.59794508  0.18321175  1
  H+  H366  1  0.67625661  0.57588387  0.92591015  1
  H+  H367  1  0.85932483  0.88331717  0.16892442  1
  H+  H368  1  -0.05425954  0.53581563  0.70724619  1
  H+  H369  1  0.36071341  0.49657874  0.49709233  1
  H+  H370  1  0.58947087  0.67051854  0.42684432  1
  H+  H371  1  0.83389334  0.91513223  0.72369533  1
  H+  H372  1  0.60078348  0.46783950  0.00032346  1
  H+  H373  1  0.35187959  0.41987290  0.39798624  1
  H+  H374  1  0.41853338  0.08118356  0.89628288  1
  H+  H375  1  0.41925717  0.09164744  0.26895448  1
  H+  H376  1  0.43258003  0.10981099  0.59982011  1
  H+  H377  1  0.59187673  0.16515878  0.39475101  1
  H+  H378  1  0.91048274  0.83166280  0.59233036  1
  H+  H379  1  0.17673499  0.82494042  0.94835269  1
  H+  H380  1  0.12388287  0.42661718  0.16090839  1
  H+  H381  1  0.89420206  0.57935950  0.90488898  1
  H+  H382  1  0.86132602  0.55917732  0.27177231  1
  H+  H383  1  0.08362331  0.92179776  0.10089873  1
  O2-  O384  1  0.11491159  0.19743444  0.16197866  1
  O2-  O385  1  0.08418886  0.17671639  0.47709318  1
  O2-  O386  1  0.08334036  0.17076589  0.80723117  1
  O2-  O387  1  0.08926505  0.45095915  0.14458113  1
  O2-  O388  1  0.06084564  0.41301347  0.47704923  1
  O2-  O389  1  0.08944763  0.41912120  0.81680922  1
  O2-  O390  1  0.07183424  0.63810358  0.14611581  1
  O2-  O391  1  0.04284632  0.62943118  0.45971443  1
  O2-  O392  1  0.07502080  0.64965064  0.81908342  1
  O2-  O393  1  0.08464455  0.91657546  0.14594251  1
  O2-  O394  1  0.01696233  0.81189926  0.45438203  1
  O2-  O395  1  0.10729809  0.90328201  0.79616079  1
  O2-  O396  1  0.33595212  0.16038809  0.14978040  1
  O2-  O397  1  0.35451478  0.19216226  0.47778912  1
  O2-  O398  1  0.33433198  0.16815808  0.81916422  1
  O2-  O399  1  0.33560922  0.48961304  0.15749974  1
  O2-  O400  1  0.33566352  0.43287009  0.49881601  1
  O2-  O401  1  0.34652478  0.44005783  0.79965051  1
  O2-  O402  1  0.33062074  0.66490514  0.13639730  1
  O2-  O403  1  0.36571344  0.65154081  0.49436008  1
  O2-  O404  1  0.33222687  0.66632271  0.82721689  1
  O2-  O405  1  0.33796481  0.91282839  0.15034950  1
  O2-  O406  1  0.45285857  0.94597441  0.43060064  1
  O2-  O407  1  0.33844753  0.91897678  0.80891202  1
  O2-  O408  1  0.57262344  0.14531106  0.14500961  1
  O2-  O409  1  0.60245386  0.17553052  0.47393261  1
  O2-  O410  1  0.58791186  0.16859773  0.80722179  1
  O2-  O411  1  0.58312381  0.41947062  0.14700271  1
  O2-  O412  1  0.61394559  0.42463392  0.47526347  1
  O2-  O413  1  0.58470057  0.42079484  0.80913863  1
  O2-  O414  1  0.59274794  0.66665149  0.15353556  1
  O2-  O415  1  0.58714853  0.67376389  0.47254053  1
  O2-  O416  1  0.59523874  0.67821223  0.80888144  1
  O2-  O417  1  0.57562754  0.91043164  0.15150161  1
  O2-  O418  1  0.60133608  0.91644474  0.48836244  1
  O2-  O419  1  0.58984741  0.91049065  0.81181688  1
  O2-  O420  1  0.85793013  0.18248968  0.16594195  1
  O2-  O421  1  0.82596335  0.16363613  0.47906263  1
  O2-  O422  1  0.84292999  0.18647463  0.84573985  1
  O2-  O423  1  0.83021359  0.41696270  0.14932251  1
  O2-  O424  1  0.79791895  0.39172921  0.48786915  1
  O2-  O425  1  0.83228378  0.41989186  0.82240290  1
  O2-  O426  1  0.83868000  0.66933981  0.15299843  1
  O2-  O427  1  0.81265327  0.65725303  0.48485117  1
  O2-  O428  1  0.83517511  0.66510914  0.80768279  1
  O2-  O429  1  0.82585055  0.91053457  0.15315786  1
  O2-  O430  1  0.83565972  0.91798170  0.47704452  1
  O2-  O431  1  0.82613591  0.90966250  0.80639722  1
  O2-  O432  1  0.17611362  0.08143972  0.19177870  1
  O2-  O433  1  0.19280268  0.12765613  0.52465936  1
  O2-  O434  1  0.16375582  0.09704295  0.86227837  1
  O2-  O435  1  0.18135034  0.36685366  0.18714472  1
  O2-  O436  1  0.15701181  0.34042432  0.51397506  1
  O2-  O437  1  0.16456740  0.32732675  0.86886188  1
  O2-  O438  1  0.12795185  0.61715169  0.18245501  1
  O2-  O439  1  0.12529971  0.57354154  0.52241315  1
  O2-  O440  1  0.16207971  0.57763639  0.84677706  1
  O2-  O441  1  0.15554041  0.81675839  0.16388550  1
  O2-  O442  1  0.12824122  0.77479791  0.55307622  1
  O2-  O443  1  0.17918092  0.81665593  0.86439114  1
  O2-  O444  1  0.41354200  0.07720736  0.19412114  1
  O2-  O445  1  0.44112132  0.11488406  0.52941263  1
  O2-  O446  1  0.41908705  0.08103757  0.85030462  1
  O2-  O447  1  0.41657395  0.31886377  0.18607941  1
  O2-  O448  1  0.44824944  0.35058292  0.51415771  1
  O2-  O449  1  0.41796320  0.33886850  0.84626490  1
  O2-  O450  1  0.35692285  0.56041559  0.19094638  1
  O2-  O451  1  0.41534545  0.60755399  0.50631629  1
  O2-  O452  1  0.42769691  0.59532382  0.85434932  1
  O2-  O453  1  0.40800840  0.81872970  0.18183440  1
  O2-  O454  1  0.43683714  0.82849896  0.52088833  1
  O2-  O455  1  0.42949504  0.84339657  0.85406129  1
  O2-  O456  1  0.65655876  0.07751487  0.18192643  1
  O2-  O457  1  0.66688215  0.07604543  0.52064499  1
  O2-  O458  1  0.67810688  0.08610646  0.80271975  1
  O2-  O459  1  0.67795110  0.34821885  0.19114072  1
  O2-  O460  1  0.70840136  0.34643078  0.51238333  1
  O2-  O461  1  0.66255947  0.33360733  0.85605153  1
  O2-  O462  1  0.66883036  0.58377498  0.19121607  1
  O2-  O463  1  0.65239092  0.57653875  0.52551317  1
  O2-  O464  1  0.66669902  0.58692156  0.84710219  1
  O2-  O465  1  0.65689707  0.83259815  0.19714649  1
  O2-  O466  1  0.67430438  0.83791167  0.51247178  1
  O2-  O467  1  0.66880014  0.83172162  0.84281127  1
  O2-  O468  1  0.92625064  0.08796756  0.17474196  1
  O2-  O469  1  0.91556030  0.08377920  0.51908481  1
  O2-  O470  1  0.91456086  0.07955445  0.82405819  1
  O2-  O471  1  0.92579931  0.35180735  0.19259345  1
  O2-  O472  1  0.89383681  0.32456328  0.52831763  1
  O2-  O473  1  0.93237331  0.35287611  0.86453839  1
  O2-  O474  1  0.90360084  0.57424496  0.19309035  1
  O2-  O475  1  0.87738736  0.55950135  0.51066468  1
  O2-  O476  1  0.91607925  0.58638386  0.86205966  1
  O2-  O477  1  0.91636094  0.83552792  0.18981258  1
  O2-  O478  1  0.89712473  0.81827224  0.52074018  1
  O2-  O479  1  0.92210870  0.83774813  0.84724031  1
  O2-  O480  1  0.17149282  0.08119045  0.31600547  1
  O2-  O481  1  0.16972270  0.10636077  0.64214093  1
  O2-  O482  1  0.16231728  0.08882593  0.98737025  1
  O2-  O483  1  0.16961204  0.33786385  0.34836063  1
  O2-  O484  1  0.17203406  0.34707076  0.63993680  1
  O2-  O485  1  0.16911161  0.34416455  0.98783452  1
  O2-  O486  1  0.19378936  0.58424754  0.32304825  1
  O2-  O487  1  0.11208996  0.57091875  0.64678086  1
  O2-  O488  1  0.19661165  0.59690843  0.98067719  1
  O2-  O489  1  0.18214228  0.83982682  0.33525747  1
  O2-  O490  1  0.17244368  0.86009206  0.66025534  1
  O2-  O491  1  0.17378410  0.82883040  0.99297033  1
  O2-  O492  1  0.42085153  0.09592014  0.31466841  1
  O2-  O493  1  0.42818868  0.10493581  0.64649398  1
  O2-  O494  1  0.41274377  0.07998831  0.97200240  1
  O2-  O495  1  0.41932609  0.33595603  0.31420140  1
  O2-  O496  1  0.44312248  0.35602372  0.64039782  1
  O2-  O497  1  0.40308339  0.31995206  0.97098844  1
  O2-  O498  1  0.42436044  0.57456516  0.30768985  1
  O2-  O499  1  0.43854763  0.59587073  0.62859793  1
  O2-  O500  1  0.43297386  0.58972659  0.97461761  1
  O2-  O501  1  0.37197081  0.78706395  0.29863317  1
  O2-  O502  1  0.40412099  0.84390319  0.64297127  1
  O2-  O503  1  0.43404823  0.82996143  0.98081310  1
  O2-  O504  1  0.67892153  0.10244331  0.29041981  1
  O2-  O505  1  0.65598607  0.07907910  0.64487695  1
  O2-  O506  1  0.66324782  0.09485782  0.96075860  1
  O2-  O507  1  0.65920171  0.32870851  0.31487343  1
  O2-  O508  1  0.69329604  0.35150257  0.64262201  1
  O2-  O509  1  0.64778008  0.32675402  0.97982870  1
  O2-  O510  1  0.66994818  0.57877712  0.31076741  1
  O2-  O511  1  0.68881257  0.58847446  0.64642156  1
  O2-  O512  1  0.68691984  0.56725709  0.96930615  1
  O2-  O513  1  0.65203048  0.83873832  0.31931616  1
  O2-  O514  1  0.65703331  0.83433111  0.66693121  1
  O2-  O515  1  0.67511763  0.83551493  0.98060507  1
  O2-  O516  1  0.92428643  0.05940125  0.30311516  1
  O2-  O517  1  0.91349830  0.08927008  0.64495794  1
  O2-  O518  1  0.91882734  0.08528183  1.01500169  1
  O2-  O519  1  0.92603244  0.35594548  0.31589659  1
  O2-  O520  1  0.91172363  0.32420250  0.65302457  1
  O2-  O521  1  0.89660392  0.32241804  0.99163481  1
  O2-  O522  1  0.83229267  0.54889458  0.31167535  1
  O2-  O523  1  0.91442502  0.66887251  0.64800499  1
  O2-  O524  1  0.83510974  0.55608197  0.96901997  1
  O2-  O525  1  0.91091440  0.83457233  0.31153503  1
  O2-  O526  1  0.91930774  0.84113095  0.63801521  1
  O2-  O527  1  0.87864388  0.81547789  0.96802420  1
  O2-  O528  1  0.09591294  0.18286531  0.03930547  1
  O2-  O529  1  0.08535585  0.15907198  0.35461814  1
  O2-  O530  1  0.08587070  0.18249368  0.68786117  1
  O2-  O531  1  0.11164381  0.44834663  0.02101395  1
  O2-  O532  1  0.08325451  0.43030439  0.35171109  1
  O2-  O533  1  0.07608514  0.41386041  0.68609689  1
  O2-  O534  1  0.09648346  0.65615138  0.01868930  1
  O2-  O535  1  0.16507861  0.68788382  0.37604880  1
  O2-  O536  1  -0.00406482  0.59562520  0.70896513  1
  O2-  O537  1  0.08820638  0.92312203  0.02116658  1
  O2-  O538  1  0.07842535  0.91342915  0.35419598  1
  O2-  O539  1  0.07767327  0.93262143  0.66998881  1
  O2-  O540  1  0.33207922  0.15887044  0.02255723  1
  O2-  O541  1  0.33751907  0.17346757  0.35636070  1
  O2-  O542  1  0.29811519  0.11787498  0.70038433  1
  O2-  O543  1  0.34022619  0.42282117  0.01502474  1
  O2-  O544  1  0.34121662  0.41323013  0.35422239  1
  O2-  O545  1  0.34258112  0.43751554  0.67130183  1
  O2-  O546  1  0.35814306  0.67672723  0.02320152  1
  O2-  O547  1  0.34735176  0.64372952  0.36669216  1
  O2-  O548  1  0.29519193  0.66425974  0.63914225  1
  O2-  O549  1  0.34226593  0.92672763  0.03425089  1
  O2-  O550  1  0.34722752  0.92873825  0.34849055  1
  O2-  O551  1  0.32249200  0.92150997  0.68891779  1
  O2-  O552  1  0.57090276  0.16548465  0.02105519  1
  O2-  O553  1  0.58784648  0.16474546  0.34943457  1
  O2-  O554  1  0.59288603  0.18256900  0.68564773  1
  O2-  O555  1  0.56731213  0.41024687  0.01919313  1
  O2-  O556  1  0.58345944  0.41296400  0.35463903  1
  O2-  O557  1  0.60129892  0.42606478  0.68669973  1
  O2-  O558  1  0.59506335  0.66702825  0.02166911  1
  O2-  O559  1  0.59037823  0.66749721  0.35076614  1
  O2-  O560  1  0.59970280  0.66002732  0.68979925  1
  O2-  O561  1  0.60006588  0.92557860  0.02622890  1
  O2-  O562  1  0.53707788  0.90630528  0.34769349  1
  O2-  O563  1  0.56477902  0.90763057  0.68372085  1
  O2-  O564  1  0.82221094  0.16118198  0.03803320  1
  O2-  O565  1  0.82779617  0.17824236  0.34819338  1
  O2-  O566  1  0.81230400  0.15129512  0.69485687  1
  O2-  O567  1  0.80886720  0.41106325  0.02316201  1
  O2-  O568  1  0.81846939  0.40623046  0.36448295  1
  O2-  O569  1  0.85766456  0.43032493  0.70011771  1
  O2-  O570  1  0.83959972  0.68349496  0.03666559  1
  O2-  O571  1  0.88326543  0.69536126  0.37663324  1
  O2-  O572  1  0.85251954  0.68018789  0.68498506  1
  O2-  O573  1  0.83270991  0.91817938  0.03349290  1
  O2-  O574  1  0.82118838  0.91285449  0.35620834  1
  O2-  O575  1  0.83504566  0.92161697  0.67903925  1
