# generated using pymatgen
data_H2O
_symmetry_space_group_name_H-M   'P 1'
_cell_length_a   17.99035254
_cell_length_b   17.99295548
_cell_length_c   21.99167018
_cell_angle_alpha   89.99243163
_cell_angle_beta   90.00793234
_cell_angle_gamma   119.98511400
_symmetry_Int_Tables_number   1
_chemical_formula_structural   H2O
_chemical_formula_sum   'H384 O192'
_cell_volume   6165.89527899
_cell_formula_units_Z   192
loop_
 _symmetry_equiv_pos_site_id
 _symmetry_equiv_pos_as_xyz
  1  'x, y, z'
loop_
 _atom_type_symbol
 _atom_type_oxidation_number
  H+  1.0
  O2-  -2.0
loop_
 _atom_site_type_symbol
 _atom_site_label
 _atom_site_symmetry_multiplicity
 _atom_site_fract_x
 _atom_site_fract_y
 _atom_site_fract_z
 _atom_site_occupancy
  H+  H0  1  0.63964386  0.68585836  0.41618629  1
  H+  H1  1  0.00838174  0.86919008  0.00783512  1
  H+  H2  1  0.86025448  0.34842459  0.31895100  1
  H+  H3  1  -0.02614797  0.60600415  0.17799203  1
  H+  H4  1  0.20778839  0.35584941  0.53377812  1
  H+  H5  1  0.20956498  0.58188684  0.17450090  1
  H+  H6  1  0.14106940  0.52108427  0.34104834  1
  H+  H7  1  0.97790248  0.86264581  0.66076748  1
  H+  H8  1  0.13253973  0.77348766  0.83797282  1
  H+  H9  1  0.35410576  0.90951168  0.65276657  1
  H+  H10  1  0.97362584  0.09792787  0.98891932  1
  H+  H11  1  0.52195177  0.88109609  0.83205804  1
  H+  H12  1  0.61871922  0.71537686  0.67123484  1
  H+  H13  1  0.38914844  0.52612510  0.99690249  1
  H+  H14  1  0.01981589  0.64989625  0.82725197  1
  H+  H15  1  0.55373602  0.66571234  0.45140835  1
  H+  H16  1  0.87364432  0.89343782  0.82598527  1
  H+  H17  1  0.10374779  0.63149021  0.67227931  1
  H+  H18  1  0.61133672  0.72183244  0.17124035  1
  H+  H19  1  0.82826019  0.16181926  0.76717555  1
  H+  H20  1  0.63454193  0.88251760  0.32393596  1
  H+  H21  1  0.67068868  0.85533960  0.25746357  1
  H+  H22  1  0.96298689  0.60242985  0.66384554  1
  H+  H23  1  0.65446500  0.61845512  0.51530696  1
  H+  H24  1  0.88124923  0.00270492  0.98591505  1
  H+  H25  1  0.08460730  0.70579001  0.65246163  1
  H+  H26  1  0.73516106  0.10882824  0.17952498  1
  H+  H27  1  0.53710415  0.87255314  0.69419490  1
  H+  H28  1  0.52961844  0.64025970  0.01926366  1
  H+  H29  1  0.55956678  0.90072231  0.43333943  1
  H+  H30  1  0.37411842  0.11419607  0.51363548  1
  H+  H31  1  0.38511234  0.74063754  0.18761409  1
  H+  H32  1  0.35988907  0.14375367  0.67267748  1
  H+  H33  1  0.87186921  0.26684135  0.84072567  1
  H+  H34  1  0.35585560  0.71644945  0.68817724  1
  H+  H35  1  0.86399477  0.38815820  0.82301415  1
  H+  H36  1  0.62706321  0.98114157  0.15872299  1
  H+  H37  1  0.09546611  -0.03733740  1.00611960  1
  H+  H38  1  0.27148560  0.13608250  0.34008248  1
  H+  H39  1  0.60801077  0.14047581  0.66856208  1
  H+  H40  1  0.40608342  0.82610175  0.90139407  1
  H+  H41  1  0.92243665  0.55468400  0.50192463  1
  H+  H42  1  0.10962982  0.41531360  0.50989129  1
  H+  H43  1  0.59537855  0.23023076  0.00283891  1
  H+  H44  1  0.46266583  0.10890909  -0.00861434  1
  H+  H45  1  0.37712557  0.23198056  0.82843282  1
  H+  H46  1  0.96930911  0.10901162  0.66276750  1
  H+  H47  1  0.36932009  0.39966952  0.00774423  1
  H+  H48  1  0.39361082  0.77749842  0.99664363  1
  H+  H49  1  0.63730684  0.60942146  0.66085598  1
  H+  H50  1  0.13365342  0.11320811  0.32372979  1
  H+  H51  1  0.76716786  0.88150439  1.00396953  1
  H+  H52  1  0.13009856  0.36596236  0.68131634  1
  H+  H53  1  0.85776430  0.13434003  0.67176960  1
  H+  H54  1  0.38269256  0.02568724  0.66115879  1
  H+  H55  1  0.36181564  0.38976850  0.68020552  1
  H+  H56  1  0.38404353  0.27763342  0.66465862  1
  H+  H57  1  0.52380217  0.39257307  0.16455509  1
  H+  H58  1  0.85228600  0.46942296  0.66689189  1
  H+  H59  1  1.01912177  0.38983525  0.67635668  1
  H+  H60  1  0.04667755  0.38989282  0.36480885  1
  H+  H61  1  0.26375114  0.63348332  0.67679433  1
  H+  H62  1  0.27255906  0.86904204  0.48947694  1
  H+  H63  1  0.57478858  0.15766046  0.76145631  1
  H+  H64  1  0.35971955  0.75019038  0.16492946  1
  H+  H65  1  0.10143350  0.72547031  0.00934780  1
  H+  H66  1  0.10930932  0.22757880  0.82800326  1
  H+  H67  1  0.23439459  0.86266490  0.83646849  1
  H+  H68  1  0.44177520  0.54576812  0.47984597  1
  H+  H69  1  0.85763586  0.88263163  0.15861417  1
  H+  H70  1  0.82215913  0.15604607  0.09817761  1
  H+  H71  1  0.22833806  0.61317676  0.32841509  1
  H+  H72  1  0.85952351  -0.02756955  0.16005761  1
  H+  H73  1  0.11740169  0.10759650  0.84961780  1
  H+  H74  1  0.39302914  0.51538149  0.17463378  1
  H+  H75  1  0.09728561  0.11919599  1.00756293  1
  H+  H76  1  0.61039867  0.38876539  0.16597687  1
  H+  H77  1  0.89135382  1.02131073  0.83695561  1
  H+  H78  1  0.63458531  0.24913381  0.83590216  1
  H+  H79  1  0.81095482  0.17069781  0.50304728  1
  H+  H80  1  0.46333182  0.10976055  0.51061783  1
  H+  H81  1  0.62683185  0.86139948  0.50443811  1
  H+  H82  1  0.63720659  0.86737490  0.17098601  1
  H+  H83  1  0.49630646  0.91291228  0.16998129  1
  H+  H84  1  0.13271779  0.77486638  0.32778976  1
  H+  H85  1  0.13846679  0.27091377  0.33295860  1
  H+  H86  1  0.47792551  0.35976091  0.32403976  1
  H+  H87  1  0.13174367  0.86245186  -0.01206228  1
  H+  H88  1  0.62402114  0.87179234  0.68574704  1
  H+  H89  1  0.37219161  0.02527944  0.16476334  1
  H+  H90  1  0.73692322  0.59588139  0.32783915  1
  H+  H91  1  0.60514405  0.12269877  0.81953899  1
  H+  H92  1  0.42099831  0.78433323  0.44896089  1
  H+  H93  1  0.40503223  0.86463591  0.70102769  1
  H+  H94  1  0.37835294  0.79315288  0.54345252  1
  H+  H95  1  0.47656311  0.11913270  0.65765860  1
  H+  H96  1  0.27157251  0.89090060  0.15707900  1
  H+  H97  1  0.85549086  0.21944736  0.15468538  1
  H+  H98  1  0.27354283  0.55022075  0.80522259  1
  H+  H99  1  1.00061440  0.37480607  0.16173204  1
  H+  H100  1  0.85676564  0.13219358  0.82745354  1
  H+  H101  1  0.61677962  0.38354191  0.33678820  1
  H+  H102  1  1.02098277  0.89887652  0.34133599  1
  H+  H103  1  0.36162897  0.22354995  0.34087898  1
  H+  H104  1  0.46212405  0.11192611  0.16583576  1
  H+  H105  1  0.10969657  0.11980012  0.49239345  1
  H+  H106  1  0.77192342  0.61215508  0.00831413  1
  H+  H107  1  0.16419744  0.81034312  0.68146099  1
  H+  H108  1  0.42668345  0.62454783  0.48186991  1
  H+  H109  1  0.86109991  -0.02788141  0.66969673  1
  H+  H110  1  0.11343113  0.89321015  0.82561007  1
  H+  H111  1  0.70316080  0.33136172  0.50575477  1
  H+  H112  1  0.35230579  0.13770581  0.15208780  1
  H+  H113  1  0.64563081  0.24387632  0.15342368  1
  H+  H114  1  0.72884497  0.60147828  0.84020690  1
  H+  H115  1  0.27632156  0.38109491  0.33865530  1
  H+  H116  1  0.63013260  0.36307896  0.65812955  1
  H+  H117  1  0.61645589  0.38815909  0.48854620  1
  H+  H118  1  0.88632056  0.60783620  0.99551246  1
  H+  H119  1  0.64356836  0.38443183  -0.01389717  1
  H+  H120  1  0.20244536  0.08955759  0.99400903  1
  H+  H121  1  0.38532355  0.55069754  0.57403193  1
  H+  H122  1  0.34331495  0.41738255  0.77786736  1
  H+  H123  1  0.38261363  0.86052541  0.99377788  1
  H+  H124  1  0.12733562  0.10876139  0.16761600  1
  H+  H125  1  0.33573574  0.17403172  0.73442199  1
  H+  H126  1  0.16186433  0.32658754  0.89759835  1
  H+  H127  1  0.27159393  0.38544104  0.69203803  1
  H+  H128  1  0.88316347  0.10666201  0.17037650  1
  H+  H129  1  0.98921273  0.39636879  0.50603578  1
  H+  H130  1  0.33883022  0.44133607  0.49824106  1
  H+  H131  1  0.35263863  -0.03045482  1.00185232  1
  H+  H132  1  0.52329251  0.89010679  1.00585630  1
  H+  H133  1  0.63951593  0.61235579  0.18427738  1
  H+  H134  1  0.88594124  0.77074357  0.17867232  1
  H+  H135  1  0.57537341  0.46027646  0.99454447  1
  H+  H136  1  0.85907104  0.38084559  0.49384618  1
  H+  H137  1  0.86180645  0.22533907  0.67190032  1
  H+  H138  1  0.87568725  0.75765397  -0.00267324  1
  H+  H139  1  0.61367168  0.47599842  0.67228706  1
  H+  H140  1  0.65653332  0.33057072  0.93321079  1
  H+  H141  1  0.16106282  0.65289463  -0.00614675  1
  H+  H142  1  0.22490932  0.62155241  0.51586137  1
  H+  H143  1  0.22359436  0.10697555  0.50743857  1
  H+  H144  1  0.62832770  0.84906942  0.85270564  1
  H+  H145  1  0.14810687  0.36452372  0.33982066  1
  H+  H146  1  0.39709694  0.36533718  0.84897162  1
  H+  H147  1  0.63662602  0.52063306  0.18099078  1
  H+  H148  1  0.84373913  0.21482258  0.34243687  1
  H+  H149  1  0.27444093  0.88712526  0.32368638  1
  H+  H150  1  0.88691976  0.90720688  0.32011603  1
  H+  H151  1  0.86795384  0.35567684  0.99413741  1
  H+  H152  1  0.78288479  0.47220996  0.12172623  1
  H+  H153  1  0.05863569  0.42183322  0.07285599  1
  H+  H154  1  0.10526435  0.22049982  0.16050353  1
  H+  H155  1  0.86841066  0.81696281  0.33824732  1
  H+  H156  1  0.61815533  0.38228388  0.82483997  1
  H+  H157  1  0.10327790  -0.01656417  0.15393560  1
  H+  H158  1  0.10623149  0.62665047  0.16166160  1
  H+  H159  1  0.86565835  0.63633851  0.82863423  1
  H+  H160  1  0.47287750  0.10158752  0.83572475  1
  H+  H161  1  0.90317281  0.12582207  0.50768367  1
  H+  H162  1  0.81445478  0.44005454  0.49568783  1
  H+  H163  1  0.35295010  0.87331080  0.82058009  1
  H+  H164  1  0.27030943  0.53213907  0.11324147  1
  H+  H165  1  0.37875877  0.76291072  0.84470690  1
  H+  H166  1  0.35407457  0.38061290  0.16161552  1
  H+  H167  1  0.86370031  0.46694650  0.33866252  1
  H+  H168  1  0.86590268  0.63704153  0.17181672  1
  H+  H169  1  0.58985968  0.21272554  0.49469580  1
  H+  H170  1  0.97972892  0.10608682  0.50718896  1
  H+  H171  1  0.75545750  0.13474721  1.00925828  1
  H+  H172  1  0.85626474  0.99212383  0.48014518  1
  H+  H173  1  0.63349105  0.76270011  0.84991263  1
  H+  H174  1  0.37079385  0.90716951  0.49945426  1
  H+  H175  1  0.14200483  0.76956841  0.17196282  1
  H+  H176  1  0.48699828  0.36652229  0.84553479  1
  H+  H177  1  0.89872124  0.59839008  0.33186173  1
  H+  H178  1  0.51727980  0.88505825  0.33528688  1
  H+  H179  1  0.73113682  0.85434500  0.65604726  1
  H+  H180  1  0.60306282  0.22721382  0.67152897  1
  H+  H181  1  0.36327024  0.97597843  0.32257111  1
  H+  H182  1  0.02490205  0.62075990  0.34101955  1
  H+  H183  1  0.86617300  0.88539183  0.66929783  1
  H+  H184  1  0.04115973  0.65720944  0.49046897  1
  H+  H185  1  0.37282801  0.47211677  0.83891702  1
  H+  H186  1  0.35651061  0.22001393  0.49824811  1
  H+  H187  1  0.72001143  0.10628310  0.33713938  1
  H+  H188  1  0.62056769  0.11326912  0.98638683  1
  H+  H189  1  0.94106158  0.34085966  0.29866162  1
  H+  H190  1  0.85853505  0.63476914  0.67518980  1
  H+  H191  1  0.66674062  0.08048713  0.27487390  1
  H+  H192  1  0.11045435  0.98447230  0.67606152  1
  H+  H193  1  0.84524105  0.22192002  1.01069669  1
  H+  H194  1  0.01636766  0.13081642  0.16085084  1
  H+  H195  1  0.97651878  0.11642529  0.84278306  1
  H+  H196  1  0.86242448  0.36501631  0.15568024  1
  H+  H197  1  0.38176702  1.01511960  0.83571766  1
  H+  H198  1  0.76394800  0.38637855  1.00644082  1
  H+  H199  1  0.89466247  0.52782399  0.83826983  1
  H+  H200  1  0.10226390  0.37689639  0.82570511  1
  H+  H201  1  0.06230828  0.49185429  0.02839122  1
  H+  H202  1  0.29087309  0.66006774  0.00161832  1
  H+  H203  1  0.26619031  0.38360044  0.16342469  1
  H+  H204  1  0.47402874  0.36589874  0.66281094  1
  H+  H205  1  0.71742594  0.28894699  0.87562840  1
  H+  H206  1  0.37126622  0.14108255  0.82334385  1
  H+  H207  1  0.59910743  0.09547298  0.50313249  1
  H+  H208  1  0.14633562  0.78306049  0.51247419  1
  H+  H209  1  0.38955327  0.35971511  0.32514643  1
  H+  H210  1  0.88051318  0.36006569  0.65856321  1
  H+  H211  1  0.53359170  0.62924137  0.82943157  1
  H+  H212  1  0.67216072  0.55906527  0.90043744  1
  H+  H213  1  0.63288477  0.48437397  0.48910829  1
  H+  H214  1  1.01350420  0.37697775  0.82770851  1
  H+  H215  1  0.22408866  0.62429955  0.83477466  1
  H+  H216  1  0.57790300  0.95653440  0.49302083  1
  H+  H217  1  0.59106491  0.90648386  0.77779513  1
  H+  H218  1  0.67837952  0.08196459  0.49350619  1
  H+  H219  1  0.72659816  0.37498708  0.17003900  1
  H+  H220  1  0.86387765  0.01712898  0.32562755  1
  H+  H221  1  0.34855191  0.12188057  -0.00482654  1
  H+  H222  1  0.22465691  0.11825619  0.66350757  1
  H+  H223  1  0.12182386  0.35267959  0.17755765  1
  H+  H224  1  0.11909815  0.88964896  0.49415100  1
  H+  H225  1  0.10385261  0.22276393  0.68546944  1
  H+  H226  1  0.14498616  0.64193265  0.83499152  1
  H+  H227  1  0.13218462  0.53005339  0.50820445  1
  H+  H228  1  0.71927226  0.35477979  0.32654712  1
  H+  H229  1  0.22333220  0.86395605  -0.00954886  1
  H+  H230  1  0.40214974  0.35973978  0.50470202  1
  H+  H231  1  0.91562799  0.07000362  0.91860699  1
  H+  H232  1  0.67314504  0.57364356  0.26615619  1
  H+  H233  1  0.60937134  0.98071224  0.00322797  1
  H+  H234  1  0.95210397  0.17662989  0.28517247  1
  H+  H235  1  0.13006146  0.26243472  -0.01207383  1
  H+  H236  1  0.63961399  0.86664269  0.99891405  1
  H+  H237  1  0.45191969  0.33472773  1.00660135  1
  H+  H238  1  0.97231461  0.85592333  0.84280660  1
  H+  H239  1  0.60558774  -0.02464255  0.34389851  1
  H+  H240  1  0.11164897  0.20772363  0.49739444  1
  H+  H241  1  0.63768962  0.49741908  0.33023032  1
  H+  H242  1  0.39620944  0.60247809  0.84233546  1
  H+  H243  1  0.72595276  0.86517440  0.17373008  1
  H+  H244  1  0.12907023  0.86185781  0.32651993  1
  H+  H245  1  -0.02112000  0.85607732  0.50562094  1
  H+  H246  1  0.33814445  0.79164768  0.45013099  1
  H+  H247  1  0.87574010  0.73144513  0.49429363  1
  H+  H248  1  0.02182309  0.14352997  0.33659268  1
  H+  H249  1  0.71858378  0.10574100  0.83669058  1
  H+  H250  1  0.64626221  0.78910227  0.48601868  1
  H+  H251  1  0.23127355  0.29068767  0.56031236  1
  H+  H252  1  0.09149669  0.46021629  0.16971882  1
  H+  H253  1  0.47339301  0.86372179  0.53656620  1
  H+  H254  1  0.76461491  0.90698725  0.47503606  1
  H+  H255  1  0.72283199  0.12212738  0.65801846  1
  H+  H256  1  0.65024162  0.11355050  0.17793581  1
  H+  H257  1  0.11997560  0.90110465  0.67600897  1
  H+  H258  1  0.82191210  0.42016518  0.06706269  1
  H+  H259  1  0.90217810  0.63202686  0.50466822  1
  H+  H260  1  0.17151767  0.83652869  0.90498278  1
  H+  H261  1  0.38818366  0.86996407  0.31625201  1
  H+  H262  1  0.73967022  0.90539931  0.31832121  1
  H+  H263  1  0.91492528  0.58672071  0.60102472  1
  H+  H264  1  0.37888747  0.27245222  0.16803350  1
  H+  H265  1  0.22485573  0.35871820  0.84031438  1
  H+  H266  1  0.61533945  0.73064911  1.02162391  1
  H+  H267  1  0.21789977  0.35142491  0.98959364  1
  H+  H268  1  0.87701448  0.70209619  0.34193119  1
  H+  H269  1  0.51597662  0.13418775  0.33619437  1
  H+  H270  1  0.36413619  0.63984725  0.33153989  1
  H+  H271  1  0.12287811  0.62126214  0.34233101  1
  H+  H272  1  0.63029324  0.01486247  0.84014518  1
  H+  H273  1  0.21603401  0.10725331  0.16401198  1
  H+  H274  1  0.48214979  0.60847310  0.17554517  1
  H+  H275  1  0.90915463  0.29999020  0.50243831  1
  H+  H276  1  0.71773426  0.35905819  0.65708761  1
  H+  H277  1  0.87593820  0.84779071  0.99528317  1
  H+  H278  1  0.62139951  0.62899170  0.83025067  1
  H+  H279  1  0.37332867  0.91760080  0.15735578  1
  H+  H280  1  0.91842055  0.82413024  0.56440959  1
  H+  H281  1  0.33272994  0.20069855  -0.01434680  1
  H+  H282  1  1.01762774  0.63276006  1.00753880  1
  H+  H283  1  0.39549937  0.61800212  0.99388707  1
  H+  H284  1  0.88872853  0.77294820  0.66200357  1
  H+  H285  1  0.62846790  0.26669817  0.32796415  1
  H+  H286  1  0.12569237  0.64742931  0.49240146  1
  H+  H287  1  0.38344106  0.11399716  0.32419552  1
  H+  H288  1  0.66157466  0.82522768  0.94138139  1
  H+  H289  1  0.16169450  0.32754496  0.62849982  1
  H+  H290  1  0.87745918  0.52061367  0.17608386  1
  H+  H291  1  0.19545727  0.64042569  0.92919296  1
  H+  H292  1  0.86499710  0.13878401  0.34369619  1
  H+  H293  1  0.82817985  0.95460255  0.38591447  1
  H+  H294  1  0.32663261  0.41472706  0.06638038  1
  H+  H295  1  0.15871932  0.57193776  0.23697631  1
  H+  H296  1  0.40867379  0.07484600  0.92938421  1
  H+  H297  1  0.84210721  0.65533301  0.40585764  1
  H+  H298  1  0.87478800  0.32533205  0.21662707  1
  H+  H299  1  0.33047215  0.16081262  0.43721609  1
  H+  H300  1  0.91121788  0.82359744  0.90179605  1
  H+  H301  1  0.67877430  0.58388107  0.57409422  1
  H+  H302  1  0.78698502  0.63811877  0.49684686  1
  H+  H303  1  0.11640756  0.01827050  0.84601622  1
  H+  H304  1  0.65496886  0.08298413  0.92940228  1
  H+  H305  1  0.55999415  0.15526982  0.43317859  1
  H+  H306  1  0.95749431  0.36094993  0.99560791  1
  H+  H307  1  0.66913017  0.82695117  0.59798897  1
  H+  H308  1  0.35557184  0.42554652  0.42739656  1
  H+  H309  1  0.09027941  0.66240902  0.40463960  1
  H+  H310  1  0.07874908  0.91889213  0.76697580  1
  H+  H311  1  0.07407427  0.16088235  0.77162686  1
  H+  H312  1  0.44451600  0.36206377  0.93835340  1
  H+  H313  1  0.82919016  0.41363086  0.72731160  1
  H+  H314  1  0.25146458  0.89828976  0.66734315  1
  H+  H315  1  0.16360651  0.08200942  0.26505128  1
  H+  H316  1  0.07641132  0.65974061  0.10379290  1
  H+  H317  1  0.59663668  0.42333094  0.39848207  1
  H+  H318  1  0.13886189  0.06453789  0.93597689  1
  H+  H319  1  0.82450933  0.40347845  0.39672920  1
  H+  H320  1  0.60425907  0.13221446  0.34264723  1
  H+  H321  1  0.58483455  0.41515151  0.73141410  1
  H+  H322  1  0.91372144  0.08086399  0.60147033  1
  H+  H323  1  0.41021733  0.32715612  0.22982469  1
  H+  H324  1  0.64890401  0.31824149  0.56656318  1
  H+  H325  1  0.62243287  0.47319882  0.82771225  1
  H+  H326  1  0.32297861  0.91424668  0.06293544  1
  H+  H327  1  0.59214234  0.92378990  0.09726820  1
  H+  H328  1  0.10152111  0.43666563  0.42487777  1
  H+  H329  1  0.32646255  0.91086402  0.76106960  1
  H+  H330  1  0.41242293  0.09004446  0.26167365  1
  H+  H331  1  0.39152530  0.78186394  0.30760852  1
  H+  H332  1  0.34558755  0.59317019  0.15596402  1
  H+  H333  1  0.65784960  0.08634366  0.60130058  1
  H+  H334  1  0.58047168  0.17131029  0.06013825  1
  H+  H335  1  0.69417901  0.21288151  0.10977238  1
  H+  H336  1  0.77966074  0.39444461  0.81916765  1
  H+  H337  1  0.08637974  0.91732809  0.43431906  1
  H+  H338  1  0.91451188  0.08342702  0.23200622  1
  H+  H339  1  0.86061425  0.72279373  0.82949693  1
  H+  H340  1  0.15907457  0.32825262  0.23564110  1
  H+  H341  1  0.36451368  0.47075517  0.33351513  1
  H+  H342  1  0.17692238  0.84457802  0.57167218  1
  H+  H343  1  0.89957112  0.32674895  0.90052012  1
  H+  H344  1  0.92670429  0.57354923  0.26834548  1
  H+  H345  1  0.77619462  0.63576272  0.17069247  1
  H+  H346  1  0.41610369  0.57822384  0.26087273  1
  H+  H347  1  0.40913887  0.32468504  0.57034180  1
  H+  H348  1  0.91373118  0.84038495  0.23368486  1
  H+  H349  1  0.34087455  0.69172076  0.38139765  1
  H+  H350  1  0.06658192  0.91238966  0.09154851  1
  H+  H351  1  0.15503534  0.58424438  0.60613949  1
  H+  H352  1  0.92019674  0.58262763  0.90051919  1
  H+  H353  1  0.52148105  0.65499142  0.35037172  1
  H+  H354  1  0.83066012  0.91386855  0.06153226  1
  H+  H355  1  0.91900698  0.34034586  0.59979007  1
  H+  H356  1  0.58623012  0.66597601  0.11003948  1
  H+  H357  1  0.13514341  0.01696570  0.50854373  1
  H+  H358  1  0.83236402  0.66659463  0.73541139  1
  H+  H359  1  0.42523541  0.83802735  0.63684550  1
  H+  H360  1  0.06789461  0.15502544  0.06398739  1
  H+  H361  1  0.07978805  0.15892325  0.39715390  1
  H+  H362  1  0.07381041  0.41771546  0.73920305  1
  H+  H363  1  0.10745435  0.13568684  0.67601316  1
  H+  H364  1  0.41153310  0.08837397  0.58504745  1
  H+  H365  1  0.07519573  0.68380467  0.76456941  1
  H+  H366  1  0.12388099  0.52302269  0.66619311  1
  H+  H367  1  0.16913976  0.83136140  0.22877055  1
  H+  H368  1  0.31867395  0.62914042  0.75972592  1
  H+  H369  1  0.33600069  0.65692717  0.06328691  1
  H+  H370  1  0.59311633  0.65896542  0.73150302  1
  H+  H371  1  0.82959241  0.65553428  0.06988493  1
  H+  H372  1  0.16543254  0.08460637  0.60346717  1
  H+  H373  1  0.84758247  0.17964385  0.43511125  1
  H+  H374  1  0.42939345  0.58354965  0.90540691  1
  H+  H375  1  0.33882883  0.48021929  0.62332984  1
  H+  H376  1  0.84777400  0.92398200  0.76485930  1
  H+  H377  1  0.44097807  0.88834830  0.23017545  1
  H+  H378  1  0.66495861  0.32871655  0.23016898  1
  H+  H379  1  0.88334510  0.51778626  0.99302139  1
  H+  H380  1  0.11379131  0.98049658  0.33844235  1
  H+  H381  1  0.32134036  0.16496742  0.09231068  1
  H+  H382  1  1.00821311  0.88678557  0.15914384  1
  H+  H383  1  0.72744743  0.61004007  0.66280585  1
  O2-  O384  1  0.07652292  0.16053841  0.14435213  1
  O2-  O385  1  0.07999749  0.15145255  0.47715595  1
  O2-  O386  1  0.07431382  0.16478816  0.81700678  1
  O2-  O387  1  0.06282849  0.40088600  0.15247384  1
  O2-  O388  1  0.08731440  0.44585786  0.48648613  1
  O2-  O389  1  0.07170948  0.40613137  0.80983554  1
  O2-  O390  1  0.07619332  0.65795725  0.14930533  1
  O2-  O391  1  0.09918839  0.67973675  0.47169091  1
  O2-  O392  1  0.07917904  0.68889721  0.80961268  1
  O2-  O393  1  0.06726456  0.92049055  0.13874327  1
  O2-  O394  1  0.08569165  0.91686477  0.47968749  1
  O2-  O395  1  0.07575400  0.91508403  0.81277670  1
  O2-  O396  1  0.32011446  0.16649350  0.13743547  1
  O2-  O397  1  0.32720151  0.15811762  0.48264631  1
  O2-  O398  1  0.34813632  0.17644784  0.80668987  1
  O2-  O399  1  0.32609498  0.41397921  0.14742165  1
  O2-  O400  1  0.37997472  0.43957351  0.46976570  1
  O2-  O401  1  0.34065431  0.41169554  0.82310659  1
  O2-  O402  1  0.29436813  0.58772746  0.13339953  1
  O2-  O403  1  0.35837478  0.74825696  0.44882229  1
  O2-  O404  1  0.31187416  0.61225792  0.80525430  1
  O2-  O405  1  0.32952110  0.93048465  0.13797080  1
  O2-  O406  1  0.32512589  0.87520400  0.46998769  1
  O2-  O407  1  0.32098066  0.90279887  0.80667530  1
  O2-  O408  1  0.63893202  0.19126958  0.13015926  1
  O2-  O409  1  0.55739560  0.15183000  0.47896964  1
  O2-  O410  1  0.57514239  0.15514847  0.80721502  1
  O2-  O411  1  0.58604505  0.42604550  0.15579716  1
  O2-  O412  1  0.60547024  0.42959212  0.46632738  1
  O2-  O413  1  0.58832521  0.41190175  0.81090671  1
  O2-  O414  1  0.58452027  0.66175954  0.15690146  1
  O2-  O415  1  0.60275073  0.70950590  0.42581290  1
  O2-  O416  1  0.59364250  0.66069690  0.81382817  1
  O2-  O417  1  0.59402893  0.92117134  0.14290936  1
  O2-  O418  1  0.55310568  0.89587525  0.47872919  1
  O2-  O419  1  0.58407474  0.91171768  0.82360007  1
  O2-  O420  1  0.83002213  0.15781705  0.14466032  1
  O2-  O421  1  0.86401124  0.19338124  0.47992983  1
  O2-  O422  1  0.82528463  0.16106253  0.81270724  1
  O2-  O423  1  0.80988254  0.44079006  0.13806346  1
  O2-  O424  1  0.81301899  0.39172973  0.47464029  1
  O2-  O425  1  0.83995112  0.42401667  0.80549431  1
  O2-  O426  1  0.83693249  0.66831203  0.15605666  1
  O2-  O427  1  0.84571526  0.66759614  0.47822640  1
  O2-  O428  1  0.83240809  0.66279201  0.81253740  1
  O2-  O429  1  0.82692842  0.91224317  0.14382558  1
  O2-  O430  1  0.82000442  0.94225832  0.45345818  1
  O2-  O431  1  0.85796062  0.93484509  0.80926792  1
  O2-  O432  1  0.15570742  0.07479778  0.18017421  1
  O2-  O433  1  0.16343873  0.07779368  0.52378031  1
  O2-  O434  1  0.14112985  0.07332991  0.86835459  1
  O2-  O435  1  0.15694373  0.32641048  0.19037967  1
  O2-  O436  1  0.18239389  0.29844301  0.55124231  1
  O2-  O437  1  0.16305450  0.32901429  0.85134912  1
  O2-  O438  1  0.15232671  0.56625192  0.19226210  1
  O2-  O439  1  0.16415993  0.59543258  0.52621995  1
  O2-  O440  1  0.17387756  0.61683972  0.85796591  1
  O2-  O441  1  0.17455087  0.83074496  0.18409229  1
  O2-  O442  1  0.17524676  0.84350333  0.52638971  1
  O2-  O443  1  0.17289486  0.83529674  0.85609101  1
  O2-  O444  1  0.40347174  0.08723551  0.18082928  1
  O2-  O445  1  0.40578329  0.08503528  0.53182290  1
  O2-  O446  1  0.41317405  0.07382447  0.85273495  1
  O2-  O447  1  0.40905899  0.33197037  0.18461075  1
  O2-  O448  1  0.40442100  0.31255729  0.52582887  1
  O2-  O449  1  0.42985807  0.33821529  0.86608970  1
  O2-  O450  1  0.42012516  0.57594786  0.18990495  1
  O2-  O451  1  0.46856052  0.60752494  0.49289099  1
  O2-  O452  1  0.42984302  0.57761083  0.85980925  1
  O2-  O453  1  0.45248083  0.92084985  0.19156640  1
  O2-  O454  1  0.42209443  0.84658984  0.56232762  1
  O2-  O455  1  0.40275231  0.82332325  0.85541538  1
  O2-  O456  1  0.67484446  0.08028746  0.19649760  1
  O2-  O457  1  0.62609226  0.06047210  0.51732128  1
  O2-  O458  1  0.65780801  0.07780148  0.85128956  1
  O2-  O459  1  0.66500362  0.33061654  0.18507515  1
  O2-  O460  1  0.64450085  0.31185982  0.52077599  1
  O2-  O461  1  0.67777986  0.30474919  0.85730929  1
  O2-  O462  1  0.67002545  0.58160683  0.19877430  1
  O2-  O463  1  0.68423970  0.58798036  0.52721829  1
  O2-  O464  1  0.66826729  0.56668948  0.85475760  1
  O2-  O465  1  0.66686629  0.83899461  0.19205717  1
  O2-  O466  1  0.66652072  0.83942553  0.51337711  1
  O2-  O467  1  0.65571100  0.81849119  0.87124947  1
  O2-  O468  1  0.91247594  0.07566301  0.18644361  1
  O2-  O469  1  0.91994475  0.08432207  0.52272442  1
  O2-  O470  1  0.91520518  0.08106458  0.85799678  1
  O2-  O471  1  0.88680737  0.33091667  0.17230423  1
  O2-  O472  1  0.92629724  0.35789654  0.51909166  1
  O2-  O473  1  0.89932254  0.32772267  0.85477783  1
  O2-  O474  1  0.91591939  0.57861938  0.19795996  1
  O2-  O475  1  0.94083976  0.60959114  0.52175370  1
  O2-  O476  1  0.92353878  0.58744474  0.85485212  1
  O2-  O477  1  0.91599714  0.83419708  0.18891261  1
  O2-  O478  1  0.91841517  0.81944312  0.51915096  1
  O2-  O479  1  0.91131115  0.82419148  0.85640715  1
  O2-  O480  1  0.16508683  0.08298448  0.31015605  1
  O2-  O481  1  0.16360937  0.08714486  0.64879466  1
  O2-  O482  1  0.14056417  0.06016569  0.98329809  1
  O2-  O483  1  0.17120698  0.33207261  0.31802549  1
  O2-  O484  1  0.15996491  0.33223168  0.67300576  1
  O2-  O485  1  0.16035024  0.32094050  0.97077388  1
  O2-  O486  1  0.16365931  0.57963144  0.32116293  1
  O2-  O487  1  0.15219911  0.58459176  0.65148085  1
  O2-  O488  1  0.21143062  0.65690621  0.97293698  1
  O2-  O489  1  0.16007369  0.83281699  0.31067955  1
  O2-  O490  1  0.18382636  0.85930905  0.65413128  1
  O2-  O491  1  0.16419188  0.83557134  0.97047849  1
  O2-  O492  1  0.41661100  0.08800622  0.30669780  1
  O2-  O493  1  0.41477981  0.08893705  0.64213065  1
  O2-  O494  1  0.40288113  0.07497291  0.97491352  1
  O2-  O495  1  0.41771108  0.32733752  0.30979604  1
  O2-  O496  1  0.41311807  0.33795303  0.64873896  1
  O2-  O497  1  0.45299773  0.38081175  0.98270391  1
  O2-  O498  1  0.41371615  0.57879007  0.30797681  1
  O2-  O499  1  0.33236117  0.49639571  0.58128900  1
  O2-  O500  1  0.42522870  0.58587814  0.98133416  1
  O2-  O501  1  0.42630158  0.84478407  0.30334530  1
  O2-  O502  1  0.42381764  0.82777248  0.68185688  1
  O2-  O503  1  0.41758720  0.83592095  0.97773573  1
  O2-  O504  1  0.66045516  0.07896224  0.32028830  1
  O2-  O505  1  0.66263809  0.10070891  0.64471134  1
  O2-  O506  1  0.65222766  0.08329072  0.97495000  1
  O2-  O507  1  0.65884258  0.32708326  0.31191028  1
  O2-  O508  1  0.65718633  0.32959745  0.64193177  1
  O2-  O509  1  0.65525190  0.33601905  0.97789315  1
  O2-  O510  1  0.67625935  0.56685007  0.31340987  1
  O2-  O511  1  0.66862582  0.57807189  0.64468956  1
  O2-  O512  1  0.69077896  0.54998708  0.97096147  1
  O2-  O513  1  0.67606859  0.86462754  0.30519364  1
  O2-  O514  1  0.66967028  0.82156984  0.64274107  1
  O2-  O515  1  0.66871931  0.83391038  0.98770286  1
  O2-  O516  1  0.92948919  0.12190812  0.30633966  1
  O2-  O517  1  0.90916399  0.07962111  0.64680238  1
  O2-  O518  1  0.91458069  0.06391882  0.96877835  1
  O2-  O519  1  0.87863501  0.31065576  0.29685049  1
  O2-  O520  1  0.91477368  0.33322505  0.64474435  1
  O2-  O521  1  0.89826787  0.32565261  0.97836877  1
  O2-  O522  1  0.93131361  0.57149429  0.31523115  1
  O2-  O523  1  0.90467770  0.57594219  0.64536661  1
  O2-  O524  1  0.91679813  0.57858764  0.97806924  1
  O2-  O525  1  0.90870068  0.86556256  0.31360860  1
  O2-  O526  1  0.91863125  0.83160322  0.64363419  1
  O2-  O527  1  0.90797685  0.81844298  0.98200320  1
  O2-  O528  1  0.06613751  0.15067044  0.01869882  1
  O2-  O529  1  0.08288589  0.16513305  0.35201740  1
  O2-  O530  1  0.07213618  0.15951663  0.69311460  1
  O2-  O531  1  0.05201072  0.43335547  0.02967836  1
  O2-  O532  1  0.10629539  0.42865095  0.37586939  1
  O2-  O533  1  0.07879767  0.42281927  0.69260169  1
  O2-  O534  1  0.07661270  0.66676902  0.02577705  1
  O2-  O535  1  0.08744477  0.65362981  0.35721325  1
  O2-  O536  1  0.07148522  0.66341160  0.68447668  1
  O2-  O537  1  0.06956023  0.90212197  0.02350619  1
  O2-  O538  1  0.08092724  0.91991931  0.35410825  1
  O2-  O539  1  0.08235716  0.92351250  0.69087872  1
  O2-  O540  1  0.31477454  0.14962857  0.01045719  1
  O2-  O541  1  0.33094887  0.16345994  0.35687474  1
  O2-  O542  1  0.32935366  0.17281163  0.68825260  1
  O2-  O543  1  0.32860736  0.41859705  0.02116333  1
  O2-  O544  1  0.33820798  0.41216489  0.35152133  1
  O2-  O545  1  0.33473743  0.42223257  0.69707772  1
  O2-  O546  1  0.34867933  0.67391421  0.02017156  1
  O2-  O547  1  0.33059261  0.66926837  0.33874464  1
  O2-  O548  1  0.32232178  0.65311479  0.69237507  1
  O2-  O549  1  0.32098805  0.90911398  0.01703402  1
  O2-  O550  1  0.33655905  0.91392019  0.33180370  1
  O2-  O551  1  0.33847952  0.93752326  0.68428550  1
  O2-  O552  1  0.56660249  0.16885781  0.01614319  1
  O2-  O553  1  0.57421543  0.16333628  0.35629017  1
  O2-  O554  1  0.57227987  0.16590401  0.68512965  1
  O2-  O555  1  0.63332816  0.46958670  0.00345559  1
  O2-  O556  1  0.59223959  0.42060144  0.35111451  1
  O2-  O557  1  0.58187993  0.41445083  0.68605542  1
  O2-  O558  1  0.58629371  0.67196952  0.03952469  1
  O2-  O559  1  0.50439698  0.60714416  0.32159788  1
  O2-  O560  1  0.59163398  0.65526536  0.68634160  1
  O2-  O561  1  0.58387512  0.92159519  0.02069576  1
  O2-  O562  1  0.57675010  0.91278370  0.35517512  1
  O2-  O563  1  0.59769320  0.90169418  0.70712906  1
  O2-  O564  1  0.81314980  0.16313370  0.02834871  1
  O2-  O565  1  0.82611888  0.15981062  0.36375495  1
  O2-  O566  1  0.82877357  0.16553278  0.68775727  1
  O2-  O567  1  0.82435975  0.41447135  0.02098255  1
  O2-  O568  1  0.82591445  0.40583055  0.35135943  1
  O2-  O569  1  0.82360042  0.40899015  0.68197044  1
  O2-  O570  1  0.83222245  0.65517725  0.02497073  1
  O2-  O571  1  0.84082887  0.64550036  0.35977207  1
  O2-  O572  1  0.83150494  0.66807147  0.68969908  1
  O2-  O573  1  0.83078559  0.91091986  0.01631649  1
  O2-  O574  1  0.83137637  0.95578442  0.33851582  1
  O2-  O575  1  0.83289391  0.91197097  0.68527898  1
