# generated using pymatgen
data_H2O
_symmetry_space_group_name_H-M   'P 1'
_cell_length_a   17.98996932
_cell_length_b   17.99376729
_cell_length_c   22.00987609
_cell_angle_alpha   90.02096682
_cell_angle_beta   89.99057859
_cell_angle_gamma   119.99659761
_symmetry_Int_Tables_number   1
_chemical_formula_structural   H2O
_chemical_formula_sum   'H384 O192'
_cell_volume   6170.43257493
_cell_formula_units_Z   192
loop_
 _symmetry_equiv_pos_site_id
 _symmetry_equiv_pos_as_xyz
  1  'x, y, z'
loop_
 _atom_type_symbol
 _atom_type_oxidation_number
  H+  1.0
  O2-  -2.0
loop_
 _atom_site_type_symbol
 _atom_site_label
 _atom_site_symmetry_multiplicity
 _atom_site_fract_x
 _atom_site_fract_y
 _atom_site_fract_z
 _atom_site_occupancy
  H+  H0  1  0.89071512  1.01824110  0.85310327  1
  H+  H1  1  0.14672371  0.81812521  0.58776805  1
  H+  H2  1  0.37636901  0.36973797  0.50092938  1
  H+  H3  1  0.12184600  0.14758692  0.16333399  1
  H+  H4  1  0.38927404  0.04697563  0.65394851  1
  H+  H5  1  0.88637573  0.11220795  0.49502613  1
  H+  H6  1  0.39307695  0.84108290  0.20753151  1
  H+  H7  1  0.86329361  0.26262670  0.00017012  1
  H+  H8  1  0.97476753  0.12021085  0.31693875  1
  H+  H9  1  0.48371105  0.61491887  0.17110224  1
  H+  H10  1  0.78148341  0.94715531  0.02919750  1
  H+  H11  1  0.19718803  0.09194665  0.52998411  1
  H+  H12  1  0.74323087  0.13432528  0.32199026  1
  H+  H13  1  0.85581594  0.62311202  0.47413042  1
  H+  H14  1  0.11518960  0.63904305  0.82601313  1
  H+  H15  1  0.40384468  0.27809429  0.84301440  1
  H+  H16  1  1.02583222  0.38474426  0.67439491  1
  H+  H17  1  0.79146170  0.63634158  0.84333752  1
  H+  H18  1  0.77240742  0.39753355  0.16291255  1
  H+  H19  1  0.88951405  0.61535526  0.65926222  1
  H+  H20  1  0.13297625  0.77414059  0.84561306  1
  H+  H21  1  0.72661982  0.09624816  0.49530859  1
  H+  H22  1  0.74459719  0.86662951  0.32567451  1
  H+  H23  1  0.38483330  0.38402543  0.83460848  1
  H+  H24  1  0.61448807  0.39305177  1.01418478  1
  H+  H25  1  0.10674814  0.62603623  0.66972309  1
  H+  H26  1  0.86170134  0.73079715  0.15584289  1
  H+  H27  1  0.89233921  0.36960886  0.66060064  1
  H+  H28  1  0.88367424  0.02916729  0.16914847  1
  H+  H29  1  0.14989842  0.37091542  0.67797806  1
  H+  H30  1  0.37711523  -0.01217120  0.34393246  1
  H+  H31  1  0.78578378  0.96346028  0.99731855  1
  H+  H32  1  0.37584329  0.16120115  0.66896471  1
  H+  H33  1  0.64915397  0.28265218  0.83376865  1
  H+  H34  1  0.36134972  0.47695001  0.48297758  1
  H+  H35  1  0.41622990  0.57731056  0.55591468  1
  H+  H36  1  0.60592934  0.87279245  1.01165007  1
  H+  H37  1  0.38534647  0.34952949  -0.00001745  1
  H+  H38  1  0.86872270  0.68821518  0.05738415  1
  H+  H39  1  0.58975650  0.81299637  0.19389726  1
  H+  H40  1  0.44689811  0.84156175  0.84999194  1
  H+  H41  1  0.64409860  0.36705489  0.63874682  1
  H+  H42  1  0.99053811  0.33805604  1.02086461  1
  H+  H43  1  0.61116369  0.73240935  0.66652839  1
  H+  H44  1  0.10450451  0.71363928  0.66611405  1
  H+  H45  1  0.84892469  0.72500323  1.00007547  1
  H+  H46  1  0.51936388  0.15049093  0.48492574  1
  H+  H47  1  0.72890993  0.86633522  0.65251977  1
  H+  H48  1  0.86214945  0.13939504  0.15790997  1
  H+  H49  1  0.23085787  0.11822803  0.84364574  1
  H+  H50  1  0.89084804  0.36735133  0.50423574  1
  H+  H51  1  0.24039616  0.11493786  0.00253688  1
  H+  H52  1  0.18422715  0.36551888  -0.05713319  1
  H+  H53  1  0.22289400  0.35732482  0.32588248  1
  H+  H54  1  0.21214274  0.84528735  0.64200556  1
  H+  H55  1  0.35100127  0.57429666  0.83384641  1
  H+  H56  1  0.75948550  0.90126947  0.17090078  1
  H+  H57  1  0.14858261  0.02923870  1.00182808  1
  H+  H58  1  0.23553835  0.11956964  0.31881034  1
  H+  H59  1  0.10548455  0.22086643  0.33044080  1
  H+  H60  1  0.26988230  0.62777629  0.16486297  1
  H+  H61  1  0.77601736  0.62586045  0.69042084  1
  H+  H62  1  0.60413008  0.96461536  0.48116629  1
  H+  H63  1  0.56654951  0.93314448  0.80852183  1
  H+  H64  1  0.86974248  0.39071521  1.01126948  1
  H+  H65  1  0.37612652  0.11653345  0.50475719  1
  H+  H66  1  0.11022849  0.21187994  0.49934061  1
  H+  H67  1  0.12783581  0.27255845  0.86032556  1
  H+  H68  1  0.12527904  0.73280298  0.33190948  1
  H+  H69  1  0.54485445  0.89319108  0.66795508  1
  H+  H70  1  0.89707335  0.77507278  0.84252071  1
  H+  H71  1  0.64918503  0.28117964  0.49926375  1
  H+  H72  1  0.97230431  0.36636546  0.17445563  1
  H+  H73  1  0.48838459  0.77632348  0.61143502  1
  H+  H74  1  0.08222217  0.41893862  0.39794964  1
  H+  H75  1  0.62631240  0.63109988  0.33940436  1
  H+  H76  1  0.01828254  0.64322279  0.17368872  1
  H+  H77  1  0.88734656  0.49299349  0.83639272  1
  H+  H78  1  1.00556969  0.09839697  1.00700715  1
  H+  H79  1  0.24382588  0.19217526  0.45525813  1
  H+  H80  1  0.86013155  0.75013835  0.65260856  1
  H+  H81  1  0.37411356  0.85828168  0.50922163  1
  H+  H82  1  0.46832078  0.08602083  0.01279305  1
  H+  H83  1  0.91290482  0.86569691  0.10425256  1
  H+  H84  1  0.26001171  0.95263318  0.69907302  1
  H+  H85  1  0.07656681  0.41422172  0.77047146  1
  H+  H86  1  1.02139414  0.13640950  0.84782754  1
  H+  H87  1  0.25698255  0.89875416  0.87538629  1
  H+  H88  1  0.51519752  0.89084400  0.16616502  1
  H+  H89  1  0.21924827  0.35362566  0.49290763  1
  H+  H90  1  0.13474176  0.15660274  1.01073171  1
  H+  H91  1  0.62046984  0.59857088  1.00348840  1
  H+  H92  1  0.63267842  0.40503021  0.82796321  1
  H+  H93  1  0.11707994  0.72447678  0.48772498  1
  H+  H94  1  0.60690655  0.84081490  0.83645358  1
  H+  H95  1  0.37640896  0.38821687  0.32369130  1
  H+  H96  1  0.81258689  0.44365980  0.72531842  1
  H+  H97  1  0.84170032  0.86863908  0.66478551  1
  H+  H98  1  0.02543514  0.90574438  0.04004206  1
  H+  H99  1  0.38594864  0.59776120  0.64762741  1
  H+  H100  1  0.77859602  0.14956658  0.66496750  1
  H+  H101  1  0.40080756  0.05640661  0.76939209  1
  H+  H102  1  0.74999644  0.13313727  1.00839501  1
  H+  H103  1  0.51477184  0.40174405  0.49387221  1
  H+  H104  1  0.45248003  0.60715320  0.82826626  1
  H+  H105  1  0.13847602  0.89136606  0.68107608  1
  H+  H106  1  0.63397066  0.49216842  0.62318819  1
  H+  H107  1  0.60643841  0.09282394  1.00051235  1
  H+  H108  1  0.88681493  0.43388899  0.78168252  1
  H+  H109  1  0.07383872  0.90983258  0.16599755  1
  H+  H110  1  0.38323983  0.28450281  0.50920844  1
  H+  H111  1  0.86932998  0.48308461  0.33706331  1
  H+  H112  1  0.56394965  0.73167935  0.83028617  1
  H+  H113  1  0.38155787  0.24221913  0.32127334  1
  H+  H114  1  0.66047788  0.04268065  0.84227258  1
  H+  H115  1  0.60542922  0.49017656  0.48847302  1
  H+  H116  1  0.99354873  0.62186975  0.84258896  1
  H+  H117  1  0.88351140  0.36787626  0.17371420  1
  H+  H118  1  0.42582159  0.82219292  0.29197346  1
  H+  H119  1  0.32549699  0.91819683  0.71281763  1
  H+  H120  1  0.17388047  0.04771826  0.16714903  1
  H+  H121  1  0.66741680  0.61944811  0.86721149  1
  H+  H122  1  0.34652404  0.91177895  0.89715803  1
  H+  H123  1  0.66103723  0.77565765  0.33263576  1
  H+  H124  1  0.61731333  0.14240278  0.82764772  1
  H+  H125  1  0.62307481  0.51393655  0.17596993  1
  H+  H126  1  0.62515974  0.86006541  0.49630047  1
  H+  H127  1  0.63557184  0.26836643  0.17229952  1
  H+  H128  1  -0.00777293  0.89513649  0.69364357  1
  H+  H129  1  0.48131735  0.61380404  0.64564742  1
  H+  H130  1  0.38599367  0.15389047  0.16570604  1
  H+  H131  1  0.49022736  0.12271160  0.17717733  1
  H+  H132  1  0.87222453  0.52059751  0.49570974  1
  H+  H133  1  0.64784109  0.03406067  0.65226316  1
  H+  H134  1  0.84635007  0.87199855  0.49289207  1
  H+  H135  1  0.97517513  0.61085193  0.65126136  1
  H+  H136  1  0.85672536  0.84415573  0.00134303  1
  H+  H137  1  0.15200216  0.87147121  0.32325588  1
  H+  H138  1  0.91936060  0.09544114  0.22375769  1
  H+  H139  1  0.12274050  0.98192125  0.83853028  1
  H+  H140  1  0.64409753  0.63431325  0.65138191  1
  H+  H141  1  0.36865771  0.70848377  0.65845771  1
  H+  H142  1  0.63442458  0.89934818  0.66309795  1
  H+  H143  1  0.35850201  0.71933793  0.82349619  1
  H+  H144  1  0.86404523  0.49113498  0.66546955  1
  H+  H145  1  0.36534756  0.39341340  0.68431541  1
  H+  H146  1  0.62136611  1.01157336  -0.00512731  1
  H+  H147  1  0.45473621  0.29128292  0.16379037  1
  H+  H148  1  0.13732184  0.52293971  0.32531882  1
  H+  H149  1  0.37356739  0.84075002  0.99464304  1
  H+  H150  1  0.23475524  0.12156096  0.66604921  1
  H+  H151  1  0.22111236  0.60571866  0.65363013  1
  H+  H152  1  0.70838509  0.81576424  0.96822633  1
  H+  H153  1  0.36099123  0.63238646  0.49543694  1
  H+  H154  1  0.36767787  0.12712903  1.01762139  1
  H+  H155  1  0.12674902  0.86084332  0.85209763  1
  H+  H156  1  0.37457880  0.22124582  0.01021181  1
  H+  H157  1  0.36123649  0.72555522  0.35464107  1
  H+  H158  1  0.51550057  0.86897972  1.01013195  1
  H+  H159  1  0.86256147  0.22835737  0.49039505  1
  H+  H160  1  0.51045547  0.88030364  0.48857669  1
  H+  H161  1  0.09216771  -0.03049913  0.50118082  1
  H+  H162  1  0.25758991  0.37805322  0.68871353  1
  H+  H163  1  0.52918816  0.14243523  0.81759767  1
  H+  H164  1  0.62719666  0.77220503  0.49877574  1
  H+  H165  1  0.72457368  0.11032020  0.17337890  1
  H+  H166  1  0.43392113  0.81643064  0.58793395  1
  H+  H167  1  0.11082473  0.92550098  0.77950170  1
  H+  H168  1  0.36245566  0.14240037  0.81546395  1
  H+  H169  1  0.91670097  0.52807741  1.00159738  1
  H+  H170  1  0.78354140  0.88082866  0.82554440  1
  H+  H171  1  0.62680859  0.23354877  0.33458002  1
  H+  H172  1  0.66621806  0.30130821  0.06634657  1
  H+  H173  1  0.13020258  0.35078381  0.49532588  1
  H+  H174  1  0.87169237  0.88128819  0.82369902  1
  H+  H175  1  0.54655087  0.64910745  0.33285796  1
  H+  H176  1  0.12552795  0.35913986  0.85224401  1
  H+  H177  1  0.73021008  0.36692690  0.65688050  1
  H+  H178  1  0.81223651  0.16287990  0.06618500  1
  H+  H179  1  0.61202972  0.64345266  0.48849571  1
  H+  H180  1  0.62123470  0.63084958  0.16083038  1
  H+  H181  1  0.11227899  0.63393019  0.17006679  1
  H+  H182  1  0.96121002  0.85117515  0.50175273  1
  H+  H183  1  0.13699994  0.28110173  0.17706460  1
  H+  H184  1  0.73464126  0.36801863  0.32629680  1
  H+  H185  1  0.62546202  0.02839398  0.17399567  1
  H+  H186  1  0.86978065  0.39441041  0.33581770  1
  H+  H187  1  0.85650863  0.22580088  0.16204866  1
  H+  H188  1  0.03231051  0.88624430  0.33801187  1
  H+  H189  1  0.98178619  0.36492268  0.85044038  1
  H+  H190  1  0.88754874  0.27830651  0.65939277  1
  H+  H191  1  0.37014198  0.46251642  0.01851625  1
  H+  H192  1  0.57640214  0.18596056  0.01325976  1
  H+  H193  1  0.40321914  0.12468606  0.32818286  1
  H+  H194  1  0.84283965  0.42896156  0.06772591  1
  H+  H195  1  0.10627514  0.13288222  0.32556116  1
  H+  H196  1  0.35519976  0.97814432  0.49838698  1
  H+  H197  1  0.12010311  0.64081741  0.33087104  1
  H+  H198  1  0.36650107  0.64337305  0.34114539  1
  H+  H199  1  0.22680566  0.61159421  0.32464355  1
  H+  H200  1  0.65494757  0.52536993  0.85424430  1
  H+  H201  1  0.14852658  0.37539480  0.00626277  1
  H+  H202  1  0.54938293  0.40551216  0.10254054  1
  H+  H203  1  0.38619316  0.75066706  0.19450268  1
  H+  H204  1  0.74639282  0.40367614  0.98596971  1
  H+  H205  1  0.61737634  0.22984718  0.66912260  1
  H+  H206  1  0.93167926  0.97720894  0.37067265  1
  H+  H207  1  0.21621122  0.86646708  0.50227804  1
  H+  H208  1  0.64351594  0.51505401  0.33325618  1
  H+  H209  1  0.97712038  0.85116289  0.70648270  1
  H+  H210  1  0.59845994  0.42521470  0.56975687  1
  H+  H211  1  0.89748253  0.63091061  0.17341914  1
  H+  H212  1  1.02037428  0.38364318  0.48991774  1
  H+  H213  1  0.98285202  0.37193695  0.32458768  1
  H+  H214  1  0.11810539  -0.02064880  0.33418967  1
  H+  H215  1  0.86530742  0.15107165  0.33012240  1
  H+  H216  1  0.75939130  0.87814995  0.48803969  1
  H+  H217  1  0.12388315  0.86172900  0.50039852  1
  H+  H218  1  0.60297936  0.47385411  0.02061060  1
  H+  H219  1  0.36644006  0.47033734  0.32626890  1
  H+  H220  1  0.72722971  0.62060197  0.48756847  1
  H+  H221  1  0.02887136  0.14162127  0.15995946  1
  H+  H222  1  0.06023085  0.68496661  1.00422823  1
  H+  H223  1  0.78282184  0.63236171  0.15511257  1
  H+  H224  1  0.21453692  0.61061319  0.83653686  1
  H+  H225  1  0.11099940  0.39057913  0.16949756  1
  H+  H226  1  0.61906251  0.38310919  0.34629399  1
  H+  H227  1  0.17191500  0.87214515  0.16835375  1
  H+  H228  1  0.67347413  0.57365295  0.95795525  1
  H+  H229  1  0.12353460  0.56101094  -0.00340999  1
  H+  H230  1  0.66865748  0.83872416  0.59161657  1
  H+  H231  1  0.41594555  0.09798508  0.56315975  1
  H+  H232  1  0.19095375  0.83957208  0.23058108  1
  H+  H233  1  0.89636432  0.36985618  0.85733022  1
  H+  H234  1  0.12799806  0.52230509  0.17068851  1
  H+  H235  1  0.88191439  0.64023877  0.83901502  1
  H+  H236  1  0.12067979  0.14555593  0.67673715  1
  H+  H237  1  0.89143380  1.03202766  0.67032204  1
  H+  H238  1  0.61438865  0.13852948  0.16066185  1
  H+  H239  1  0.39178255  0.61166711  0.17282164  1
  H+  H240  1  0.83004847  0.18431000  0.72809346  1
  H+  H241  1  0.53673478  0.14252555  0.33407306  1
  H+  H242  1  0.69933069  0.28935206  1.05856944  1
  H+  H243  1  0.87963994  1.02060005  0.49855847  1
  H+  H244  1  0.88042753  0.03722714  0.31771693  1
  H+  H245  1  0.98233869  0.86751771  0.84395451  1
  H+  H246  1  0.48678179  0.71191941  0.29599055  1
  H+  H247  1  0.35270676  0.61781093  0.01284294  1
  H+  H248  1  0.10996619  0.47184937  0.49083206  1
  H+  H249  1  0.03405743  0.15013806  0.67157260  1
  H+  H250  1  -0.01345464  0.62213396  0.32789573  1
  H+  H251  1  0.33796629  0.41603005  0.42365908  1
  H+  H252  1  0.14988366  0.27955233  0.66912270  1
  H+  H253  1  0.64076894  0.11884638  0.65044808  1
  H+  H254  1  0.86326097  0.71639716  0.37218060  1
  H+  H255  1  0.76978425  0.16187833  0.82506417  1
  H+  H256  1  0.64452744  0.13047341  0.32369211  1
  H+  H257  1  0.16345808  0.99131099  0.68923673  1
  H+  H258  1  0.11095271  0.13984252  0.84433258  1
  H+  H259  1  0.59464248  0.70831275  0.00412797  1
  H+  H260  1  0.88993630  0.85229654  0.34046762  1
  H+  H261  1  0.49281848  0.78503355  0.86609743  1
  H+  H262  1  0.36768176  0.46377922  0.83585270  1
  H+  H263  1  0.40544054  0.92507110  0.14355995  1
  H+  H264  1  0.11159486  0.09999024  0.52376198  1
  H+  H265  1  0.45721263  0.34996980  0.25565017  1
  H+  H266  1  0.08561253  0.66795513  0.76501769  1
  H+  H267  1  0.86330603  0.24263866  0.82541215  1
  H+  H268  1  0.36322575  0.46903849  0.17241316  1
  H+  H269  1  0.10580252  0.47591212  0.82894292  1
  H+  H270  1  0.34419746  0.95178075  0.01251117  1
  H+  H271  1  0.22256178  0.60445318  0.50828438  1
  H+  H272  1  0.35588242  0.70854070  1.01560584  1
  H+  H273  1  0.58505360  0.66980027  0.42778610  1
  H+  H274  1  0.46153249  0.60036268  0.99304683  1
  H+  H275  1  0.47677271  0.35511042  0.00042684  1
  H+  H276  1  0.13663785  0.60935270  0.50309648  1
  H+  H277  1  0.94383359  0.59023231  0.90692273  1
  H+  H278  1  0.97700068  1.01202342  -0.02725636  1
  H+  H279  1  0.18757652  0.82794461  1.00222806  1
  H+  H280  1  0.86250484  0.48581839  0.16467971  1
  H+  H281  1  0.47160483  0.60982018  0.49446348  1
  H+  H282  1  0.48561682  0.12895546  0.65485734  1
  H+  H283  1  0.49383330  0.37161413  0.32267813  1
  H+  H284  1  0.40317062  1.03350365  0.18710581  1
  H+  H285  1  0.68679532  0.33075588  0.56129558  1
  H+  H286  1  0.37865471  0.90005006  0.35065673  1
  H+  H287  1  0.11412582  0.38914739  0.33933706  1
  H+  H288  1  0.57122310  0.63285910  0.81060412  1
  H+  H289  1  0.73150980  0.60244623  0.34015520  1
  H+  H290  1  0.87676280  0.76136861  0.48767389  1
  H+  H291  1  0.89277913  0.12141093  0.67338472  1
  H+  H292  1  0.56786061  0.66937322  0.72441734  1
  H+  H293  1  0.22631592  0.60491870  0.99638410  1
  H+  H294  1  0.57052806  0.15111866  0.09911084  1
  H+  H295  1  0.15715606  0.57426159  0.59696319  1
  H+  H296  1  0.66763416  0.06988777  0.55335225  1
  H+  H297  1  0.93539845  0.85604185  0.19146371  1
  H+  H298  1  0.65908552  0.83947909  0.24730982  1
  H+  H299  1  0.61415032  0.34124556  0.18367369  1
  H+  H300  1  0.23658067  0.10646605  0.43722565  1
  H+  H301  1  0.83917063  0.88549768  0.16492547  1
  H+  H302  1  0.43086293  0.33050722  0.90568391  1
  H+  H303  1  0.33328255  0.40609084  0.11610411  1
  H+  H304  1  0.33705025  0.40703619  0.75404949  1
  H+  H305  1  0.35965843  0.18385622  0.10485140  1
  H+  H306  1  0.39770137  0.05199620  0.95446591  1
  H+  H307  1  0.62931941  0.72311531  0.15766383  1
  H+  H308  1  0.84017376  0.65805983  0.74769421  1
  H+  H309  1  0.17762222  0.08934044  0.26072497  1
  H+  H310  1  0.58925704  0.16953109  0.72786867  1
  H+  H311  1  0.37675610  0.02466261  0.83718813  1
  H+  H312  1  0.02753887  0.28198355  0.04898426  1
  H+  H313  1  0.16352681  0.33493497  0.26753291  1
  H+  H314  1  0.86609052  0.79156235  0.58608566  1
  H+  H315  1  0.32766015  0.65890442  0.72007044  1
  H+  H316  1  0.32573795  0.65858267  0.43814779  1
  H+  H317  1  0.25434800  0.14225718  0.17272129  1
  H+  H318  1  0.15691553  0.07075988  0.61811204  1
  H+  H319  1  0.37176045  0.24804675  0.67101603  1
  H+  H320  1  0.07667381  0.92248247  0.43531951  1
  H+  H321  1  0.91882096  0.06257759  0.91740393  1
  H+  H322  1  0.92525862  0.60025943  0.23580158  1
  H+  H323  1  0.09616312  0.66800489  0.42839649  1
  H+  H324  1  0.92055774  0.34259049  0.26517833  1
  H+  H325  1  0.30404523  0.87715349  0.06204162  1
  H+  H326  1  0.33353558  0.18387504  0.76491723  1
  H+  H327  1  0.06762389  0.39719973  0.10902379  1
  H+  H328  1  0.83065081  0.90741958  0.72749290  1
  H+  H329  1  0.67041948  0.57370789  0.23290517  1
  H+  H330  1  0.89626135  0.61617006  0.34040641  1
  H+  H331  1  0.17951608  0.08651867  0.90693403  1
  H+  H332  1  0.86748037  0.24216473  0.33241639  1
  H+  H333  1  0.28858243  0.72323192  0.78352897  1
  H+  H334  1  0.16252755  0.58281566  0.89968703  1
  H+  H335  1  0.67966670  0.60571217  0.55272469  1
  H+  H336  1  0.37393981  0.76797874  0.50341614  1
  H+  H337  1  0.48573132  0.38234859  0.64572055  1
  H+  H338  1  0.22752737  0.36911806  0.17954545  1
  H+  H339  1  0.41191822  0.80423765  0.94272773  1
  H+  H340  1  0.89691903  0.58781953  0.55148031  1
  H+  H341  1  0.40966649  0.34877459  0.60069230  1
  H+  H342  1  0.91366593  0.32831082  0.94450635  1
  H+  H343  1  0.10072323  0.18102500  0.06951520  1
  H+  H344  1  0.43182793  0.09255167  0.27056751  1
  H+  H345  1  0.58472234  0.17381185  0.43008351  1
  H+  H346  1  0.38511533  0.89028622  0.77873582  1
  H+  H347  1  0.44391422  0.62440886  0.25885427  1
  H+  H348  1  0.83577330  0.17661798  0.42790618  1
  H+  H349  1  0.93335064  0.94894680  0.06030033  1
  H+  H350  1  0.27889055  0.38601254  0.01686350  1
  H+  H351  1  0.24171505  0.87326732  0.32663734  1
  H+  H352  1  0.67392217  0.09253045  0.26128483  1
  H+  H353  1  1.01879713  0.12410309  0.49719158  1
  H+  H354  1  0.30791259  0.88754595  0.17101294  1
  H+  H355  1  0.33102655  0.92159368  0.43865217  1
  H+  H356  1  0.56987143  0.65306081  0.06563376  1
  H+  H357  1  0.39746408  0.56864158  0.93587617  1
  H+  H358  1  0.11268200  0.47427295  0.67453730  1
  H+  H359  1  0.62619999  0.79817027  0.92860719  1
  H+  H360  1  0.84697810  0.91962846  0.40796547  1
  H+  H361  1  0.33692651  0.86084638  0.78063895  1
  H+  H362  1  0.67084577  0.33424164  0.26834043  1
  H+  H363  1  0.34317225  0.18990834  0.38244549  1
  H+  H364  1  0.91835141  0.33593090  0.56399883  1
  H+  H365  1  0.54465324  0.40328804  0.83573257  1
  H+  H366  1  0.12416380  0.73359081  0.16981570  1
  H+  H367  1  0.84194802  0.42114987  0.43136805  1
  H+  H368  1  0.74092248  0.36885977  0.83360278  1
  H+  H369  1  0.33102288  0.65717198  0.10687205  1
  H+  H370  1  0.73898864  0.68143538  0.62566142  1
  H+  H371  1  0.66019570  0.08613324  0.90619040  1
  H+  H372  1  0.55706449  0.92415189  0.10073464  1
  H+  H373  1  0.52910255  0.88112486  0.39305362  1
  H+  H374  1  0.89500419  0.79855310  0.28533952  1
  H+  H375  1  0.09326683  0.87540305  0.01615170  1
  H+  H376  1  0.11701865  0.93171854  0.10111026  1
  H+  H377  1  0.58458556  0.41276889  0.40487943  1
  H+  H378  1  0.12955128  0.80817102  0.94515748  1
  H+  H379  1  0.16162078  0.58002809  0.23162412  1
  H+  H380  1  0.78184101  0.38747711  0.49124749  1
  H+  H381  1  0.85433035  0.82594437  0.93134379  1
  H+  H382  1  0.62359796  0.93981697  0.75432662  1
  H+  H383  1  0.68497125  0.36939545  0.92799586  1
  O2-  O384  1  0.09117991  0.17730302  0.14914052  1
  O2-  O385  1  0.08278696  0.14853483  0.49166842  1
  O2-  O386  1  0.08170743  0.17171639  0.83338961  1
  O2-  O387  1  0.07794419  0.41744029  0.15246002  1
  O2-  O388  1  0.07985610  0.41303321  0.47244786  1
  O2-  O389  1  0.07419882  0.41471437  0.81587605  1
  O2-  O390  1  0.08445316  0.67063449  0.15919221  1
  O2-  O391  1  0.09802799  0.66563308  0.47318804  1
  O2-  O392  1  0.08953148  0.67398562  0.81028711  1
  O2-  O393  1  0.13051616  0.93641695  0.14722880  1
  O2-  O394  1  0.06707724  0.91242748  0.47973875  1
  O2-  O395  1  0.09180183  0.92083828  0.82257394  1
  O2-  O396  1  0.36703516  0.19402217  0.15019903  1
  O2-  O397  1  0.27601948  0.16148017  0.45626647  1
  O2-  O398  1  0.33443589  0.17745572  0.80995929  1
  O2-  O399  1  0.32670282  0.40831621  0.16095524  1
  O2-  O400  1  0.33298109  0.41535123  0.46856719  1
  O2-  O401  1  0.34757193  0.40598267  0.81858975  1
  O2-  O402  1  0.33151231  0.65743727  0.15283240  1
  O2-  O403  1  0.32879270  0.66262508  0.48334050  1
  O2-  O404  1  0.30892028  0.68408089  0.79513383  1
  O2-  O405  1  0.37078553  0.92039662  0.17927012  1
  O2-  O406  1  0.32473459  0.91756447  0.48383222  1
  O2-  O407  1  0.31954524  0.94302039  0.88195029  1
  O2-  O408  1  0.58167376  0.16577183  0.14535362  1
  O2-  O409  1  0.58031514  0.18318238  0.47368273  1
  O2-  O410  1  0.59112083  0.17421977  0.80774609  1
  O2-  O411  1  0.53142553  0.41643960  0.14472871  1
  O2-  O412  1  0.57620258  0.42684198  0.48276806  1
  O2-  O413  1  0.60469662  0.43997719  0.82113784  1
  O2-  O414  1  0.59243437  0.66288784  0.14544220  1
  O2-  O415  1  0.57835018  0.67007745  0.47306884  1
  O2-  O416  1  0.54145786  0.66195487  0.79600847  1
  O2-  O417  1  0.54141767  0.94152680  0.13949633  1
  O2-  O418  1  0.56595111  0.90298201  0.46655838  1
  O2-  O419  1  0.62338953  0.94150697  0.80037859  1
  O2-  O420  1  0.82513882  0.16513160  0.14790577  1
  O2-  O421  1  0.83416867  0.16941293  0.47252819  1
  O2-  O422  1  0.82265686  0.19259061  0.80070237  1
  O2-  O423  1  0.83320282  0.42607838  0.14930245  1
  O2-  O424  1  0.84440873  0.42315373  0.47652871  1
  O2-  O425  1  0.85664773  0.43210370  0.81897298  1
  O2-  O426  1  0.84455703  0.66749759  0.14594775  1
  O2-  O427  1  0.82851026  0.66058860  0.45274371  1
  O2-  O428  1  0.84908260  0.66743957  0.82284213  1
  O2-  O429  1  0.82007714  0.92887787  0.15884177  1
  O2-  O430  1  0.82135316  0.90573797  0.47530384  1
  O2-  O431  1  0.84033398  0.91103757  0.80724675  1
  O2-  O432  1  0.19274337  0.10556516  0.18437149  1
  O2-  O433  1  0.13688631  0.06126653  0.54212601  1
  O2-  O434  1  0.17299730  0.08164563  0.86175405  1
  O2-  O435  1  0.16506104  0.34092415  0.19341869  1
  O2-  O436  1  0.15962398  0.31887995  0.50717281  1
  O2-  O437  1  0.15543580  0.33386871  0.87384436  1
  O2-  O438  1  0.15909175  0.58345493  0.18595313  1
  O2-  O439  1  0.16111941  0.57419385  0.52109264  1
  O2-  O440  1  0.15594337  0.58115800  0.85371749  1
  O2-  O441  1  0.19341796  0.83439897  0.18505994  1
  O2-  O442  1  0.15474651  0.83183879  0.51490774  1
  O2-  O443  1  0.15368477  0.82788546  0.86979988  1
  O2-  O444  1  0.43025062  0.09555914  0.19604683  1
  O2-  O445  1  0.40718545  0.08798774  0.51796327  1
  O2-  O446  1  0.41110800  0.07713575  0.81119716  1
  O2-  O447  1  0.50876127  0.34078003  0.18255615  1
  O2-  O448  1  0.40884727  0.34393507  0.52236740  1
  O2-  O449  1  0.43934791  0.33661438  0.86056967  1
  O2-  O450  1  0.42649029  0.58792386  0.19140246  1
  O2-  O451  1  0.41115627  0.57686942  0.50951275  1
  O2-  O452  1  0.39756000  0.57104596  0.85368794  1
  O2-  O453  1  0.42025232  0.80614058  0.21717201  1
  O2-  O454  1  0.40621419  0.82814864  0.51977802  1
  O2-  O455  1  0.43469851  0.78759102  0.86882627  1
  O2-  O456  1  0.66588713  0.08576712  0.19244902  1
  O2-  O457  1  0.66739886  0.05658820  0.50972339  1
  O2-  O458  1  0.66825143  0.09600933  0.86090359  1
  O2-  O459  1  0.66040257  0.32762323  0.19012391  1
  O2-  O460  1  0.69011110  0.33879607  0.51676900  1
  O2-  O461  1  0.68069781  0.34382911  0.84690129  1
  O2-  O462  1  0.66570123  0.57359629  0.18804294  1
  O2-  O463  1  0.67032952  0.59713462  0.50797865  1
  O2-  O464  1  0.69332216  0.58433921  0.87543163  1
  O2-  O465  1  0.65099367  0.83978825  0.20181771  1
  O2-  O466  1  0.65807579  0.83328259  0.51349924  1
  O2-  O467  1  0.57484010  0.78721251  0.86004711  1
  O2-  O468  1  0.92090578  0.09303268  0.17863305  1
  O2-  O469  1  0.91643965  0.08160716  0.50875531  1
  O2-  O470  1  0.91536992  0.07391908  0.87393054  1
  O2-  O471  1  0.91117396  0.33525398  0.18893832  1
  O2-  O472  1  0.91805105  0.33354209  0.51869016  1
  O2-  O473  1  0.92284700  0.33550655  0.86974682  1
  O2-  O474  1  0.93087945  0.60198174  0.19051761  1
  O2-  O475  1  0.88834133  0.58158042  0.50699713  1
  O2-  O476  1  0.93490231  0.58855266  0.86167531  1
  O2-  O477  1  0.88640489  0.82485983  0.16493765  1
  O2-  O478  1  0.89876076  0.81518800  0.51183703  1
  O2-  O479  1  0.92001615  0.83634530  0.85428748  1
  O2-  O480  1  0.17446083  0.08476669  0.30625901  1
  O2-  O481  1  0.17287681  0.07710608  0.66220918  1
  O2-  O482  1  0.18105290  0.08838891  0.98520288  1
  O2-  O483  1  0.16219582  0.33150761  0.31355642  1
  O2-  O484  1  0.18624471  0.34597174  0.66592284  1
  O2-  O485  1  0.20205858  0.39016904  0.98509859  1
  O2-  O486  1  0.16749946  0.58252729  0.30744683  1
  O2-  O487  1  0.15890108  0.57646333  0.64283404  1
  O2-  O488  1  0.17408006  0.58635142  0.97074272  1
  O2-  O489  1  0.18346507  0.84305315  0.30737739  1
  O2-  O490  1  0.15023562  0.81374233  0.63356125  1
  O2-  O491  1  0.12673815  0.80330399  0.99059807  1
  O2-  O492  1  0.43178033  0.09145725  0.31651927  1
  O2-  O493  1  0.42547053  0.10671177  0.63878713  1
  O2-  O494  1  0.39897955  0.05226645  0.99876905  1
  O2-  O495  1  0.43867726  0.34570884  0.29857799  1
  O2-  O496  1  0.42223174  0.35199507  0.64510305  1
  O2-  O497  1  0.41726373  0.32139085  0.98304068  1
  O2-  O498  1  0.45687479  0.64971825  0.30175888  1
  O2-  O499  1  0.42351578  0.58057612  0.62668883  1
  O2-  O500  1  0.39964190  0.56964279  0.98096783  1
  O2-  O501  1  0.42734679  0.83260554  0.33738276  1
  O2-  O502  1  0.45435909  0.80108017  0.62639577  1
  O2-  O503  1  0.40870067  0.81285998  0.98716565  1
  O2-  O504  1  0.67911593  0.10056618  0.30800079  1
  O2-  O505  1  0.67464140  0.09288912  0.63489876  1
  O2-  O506  1  0.64421548  0.07143155  0.98078079  1
  O2-  O507  1  0.67245932  0.33488693  0.31386246  1
  O2-  O508  1  0.67059068  0.33010127  0.64169506  1
  O2-  O509  1  0.68799504  0.38575501  0.97111081  1
  O2-  O510  1  0.67635202  0.57581351  0.31791162  1
  O2-  O511  1  0.68800799  0.62258396  0.63155015  1
  O2-  O512  1  0.65490822  0.56937557  1.00066960  1
  O2-  O513  1  0.68287238  0.83572925  0.31872563  1
  O2-  O514  1  0.66781843  0.83829761  0.63715519  1
  O2-  O515  1  0.64866701  0.80482749  0.97104292  1
  O2-  O516  1  0.91235817  0.09670413  0.30326716  1
  O2-  O517  1  0.92892673  0.09451835  0.66985342  1
  O2-  O518  1  0.95281666  0.04174391  0.99501540  1
  O2-  O519  1  0.92123041  0.34274067  0.31085091  1
  O2-  O520  1  0.92189692  0.34037282  0.64448290  1
  O2-  O521  1  0.90517337  0.32558759  0.98979754  1
  O2-  O522  1  0.92438720  0.59226576  0.31498936  1
  O2-  O523  1  0.91470779  0.58544808  0.63602177  1
  O2-  O524  1  0.95093981  0.58779589  0.98278887  1
  O2-  O525  1  0.91101100  0.81206967  0.32808656  1
  O2-  O526  1  0.83591039  0.77725092  0.62625337  1
  O2-  O527  1  0.81670468  0.81340728  0.96690779  1
  O2-  O528  1  0.09721446  0.17891565  0.02447579  1
  O2-  O529  1  0.07023665  0.15776960  0.33705355  1
  O2-  O530  1  0.09835238  0.18461572  0.66988519  1
  O2-  O531  1  0.04155158  0.34139172  0.04376352  1
  O2-  O532  1  0.08466469  0.42142130  0.35188008  1
  O2-  O533  1  0.08461886  0.41544683  0.69259120  1
  O2-  O534  1  0.03569467  0.62192581  0.01039654  1
  O2-  O535  1  0.09074234  0.67219044  0.34564482  1
  O2-  O536  1  0.07528940  0.65541516  0.68525571  1
  O2-  O537  1  0.08823550  0.92334423  0.03481506  1
  O2-  O538  1  0.09208415  0.92075136  0.35274780  1
  O2-  O539  1  0.16427102  0.94070495  0.70960322  1
  O2-  O540  1  0.34293641  0.16348687  0.03089244  1
  O2-  O541  1  0.34884277  0.18253350  0.33875268  1
  O2-  O542  1  0.34212928  0.18705045  0.68536859  1
  O2-  O543  1  0.33852182  0.40260058  0.03351682  1
  O2-  O544  1  0.34195708  0.41226555  0.34225546  1
  O2-  O545  1  0.32991005  0.41236596  0.70683913  1
  O2-  O546  1  0.32417320  0.64877735  0.03157249  1
  O2-  O547  1  0.32763344  0.66177807  0.35929515  1
  O2-  O548  1  0.32761279  0.65095024  0.67555989  1
  O2-  O549  1  0.31036964  0.88619885  0.01833594  1
  O2-  O550  1  0.34368235  0.92731347  0.35934307  1
  O2-  O551  1  0.31131498  0.94937215  0.68300583  1
  O2-  O552  1  0.55130142  0.12896480  0.03129956  1
  O2-  O553  1  0.59876619  0.17101169  0.34666433  1
  O2-  O554  1  0.58486106  0.16830990  0.68257053  1
  O2-  O555  1  0.57435543  0.41029545  0.03293948  1
  O2-  O556  1  0.58736421  0.41302785  0.35931857  1
  O2-  O557  1  0.59969633  0.43035498  0.61471580  1
  O2-  O558  1  0.56204159  0.64839084  0.02084822  1
  O2-  O559  1  0.60252430  0.66812308  0.35326815  1
  O2-  O560  1  0.58203983  0.67113383  0.67934165  1
  O2-  O561  1  0.57565733  0.90301089  0.02536782  1
  O2-  O562  1  0.52039220  0.86972337  0.34777266  1
  O2-  O563  1  0.60509802  0.93025370  0.68103416  1
  O2-  O564  1  0.81107440  0.16670286  0.02135307  1
  O2-  O565  1  0.83328934  0.17986469  0.34525067  1
  O2-  O566  1  0.83742679  0.18186547  0.68272967  1
  O2-  O567  1  0.85058244  0.43278979  0.02294592  1
  O2-  O568  1  0.83692264  0.42223103  0.35085840  1
  O2-  O569  1  0.83190627  0.43286883  0.68654517  1
  O2-  O570  1  0.88934354  0.70848910  0.01602753  1
  O2-  O571  1  0.83366849  0.65483660  0.38579102  1
  O2-  O572  1  0.83702365  0.65476360  0.70183506  1
  O2-  O573  1  0.93232411  0.89388064  0.06057387  1
  O2-  O574  1  0.87241708  0.93168978  0.36452314  1
  O2-  O575  1  0.82568102  0.90946054  0.68246368  1
