# generated using pymatgen
data_H2O
_symmetry_space_group_name_H-M   'P 1'
_cell_length_a   17.98566812
_cell_length_b   17.99103681
_cell_length_c   21.99476915
_cell_angle_alpha   89.99932043
_cell_angle_beta   90.00122822
_cell_angle_gamma   119.99843584
_symmetry_Int_Tables_number   1
_chemical_formula_structural   H2O
_chemical_formula_sum   'H384 O192'
_cell_volume   6163.67387846
_cell_formula_units_Z   192
loop_
 _symmetry_equiv_pos_site_id
 _symmetry_equiv_pos_as_xyz
  1  'x, y, z'
loop_
 _atom_type_symbol
 _atom_type_oxidation_number
  H+  1.0
  O2-  -2.0
loop_
 _atom_site_type_symbol
 _atom_site_label
 _atom_site_symmetry_multiplicity
 _atom_site_fract_x
 _atom_site_fract_y
 _atom_site_fract_z
 _atom_site_occupancy
  H+  H0  1  0.12181628  0.89863114  0.82266901  1
  H+  H1  1  0.91435134  0.58196665  0.56543608  1
  H+  H2  1  0.39592822  0.75276580  0.81912635  1
  H+  H3  1  0.63647632  0.51544283  -0.01074813  1
  H+  H4  1  0.40031623  0.89751464  0.84835701  1
  H+  H5  1  0.08625059  0.45794139  0.82502275  1
  H+  H6  1  0.85323247  0.37693854  0.00239911  1
  H+  H7  1  0.63627486  0.62382968  0.65477309  1
  H+  H8  1  0.86496214  0.13485052  0.67588282  1
  H+  H9  1  0.14101127  0.11816136  0.83717157  1
  H+  H10  1  0.09699123  0.93611516  0.08707448  1
  H+  H11  1  0.99222938  0.37059678  0.66133024  1
  H+  H12  1  0.39501598  0.30050202  0.32747543  1
  H+  H13  1  0.11711352  0.90268882  0.15768889  1
  H+  H14  1  0.47794537  0.39269938  0.32270112  1
  H+  H15  1  0.39059939  0.62208614  0.99514657  1
  H+  H16  1  0.62832114  0.10944692  0.17605128  1
  H+  H17  1  0.86282779  0.72506578  -0.00046017  1
  H+  H18  1  0.72242572  0.35942030  0.17088580  1
  H+  H19  1  0.26252922  0.86681573  0.49000887  1
  H+  H20  1  0.76235072  0.88762750  0.67162876  1
  H+  H21  1  0.82396360  0.90263311  0.18014847  1
  H+  H22  1  0.61923041  0.64336433  0.49038834  1
  H+  H23  1  0.58769957  0.16498589  0.43324285  1
  H+  H24  1  0.36395684  0.22445965  0.15403575  1
  H+  H25  1  0.60794661  0.62806199  0.00554600  1
  H+  H26  1  0.60136438  0.18423367  0.79021542  1
  H+  H27  1  0.65780314  0.54667857  0.49378586  1
  H+  H28  1  0.26987175  0.60425552  0.83648912  1
  H+  H29  1  0.85141388  0.97114529  0.34486911  1
  H+  H30  1  -0.01901685  0.11811602  0.84190886  1
  H+  H31  1  0.34315871  0.42954030  0.77779041  1
  H+  H32  1  0.87117734  0.84658629  0.08684800  1
  H+  H33  1  0.61152235  0.46768091  0.14926122  1
  H+  H34  1  0.38454372  0.49796650  0.50638119  1
  H+  H35  1  0.01353564  0.63483521  0.34050104  1
  H+  H36  1  0.85807133  0.22779481  0.83370795  1
  H+  H37  1  0.14793863  0.79602488  -0.01810544  1
  H+  H38  1  0.15040331  0.45412695  0.68829301  1
  H+  H39  1  0.35850979  0.87341983  0.33571513  1
  H+  H40  1  0.47908159  0.35961776  0.49376626  1
  H+  H41  1  0.98200978  0.11886532  0.50554498  1
  H+  H42  1  0.62118806  0.71924741  0.16051561  1
  H+  H43  1  0.47874549  0.88021732  0.84441370  1
  H+  H44  1  0.00429149  0.38551835  0.01248245  1
  H+  H45  1  0.82877966  0.66056984  0.05665943  1
  H+  H46  1  0.64338009  0.03078637  0.66685894  1
  H+  H47  1  0.13845429  0.76129704  0.50618063  1
  H+  H48  1  0.21789234  0.37122418  0.31985244  1
  H+  H49  1  0.61480289  1.01462380  0.17468747  1
  H+  H50  1  0.12053981  -0.00838303  1.00546594  1
  H+  H51  1  0.31162504  0.41228447  0.39554438  1
  H+  H52  1  0.28751572  0.89632489  0.68029253  1
  H+  H53  1  0.69510125  0.86421675  0.16860251  1
  H+  H54  1  0.21361138  0.08665878  0.66566918  1
  H+  H55  1  0.61404037  0.63841410  0.82534494  1
  H+  H56  1  0.11859838  0.22951528  0.82399273  1
  H+  H57  1  0.23043703  0.63020961  0.66480268  1
  H+  H58  1  0.21668499  0.61275850  0.33338878  1
  H+  H59  1  0.75041688  0.12023657  0.15608948  1
  H+  H60  1  0.62829255  0.12437105  0.88320302  1
  H+  H61  1  0.16647803  0.08791086  0.93131771  1
  H+  H62  1  0.63087574  0.15980842  0.49791054  1
  H+  H63  1  0.13817627  0.87258440  0.33557621  1
  H+  H64  1  0.39162535  0.87209477  0.66270662  1
  H+  H65  1  0.86987105  0.14179549  0.48969309  1
  H+  H66  1  0.51964061  0.12727765  0.33751586  1
  H+  H67  1  0.71850977  0.86107420  0.32766191  1
  H+  H68  1  0.48876030  0.62191222  0.84097407  1
  H+  H69  1  0.13828976  0.02737530  0.83543620  1
  H+  H70  1  0.58143955  0.91226392  0.72931968  1
  H+  H71  1  0.22136098  0.86321216  0.33025612  1
  H+  H72  1  0.27071699  0.34151970  0.98017623  1
  H+  H73  1  0.35341917  0.72692438  0.33721763  1
  H+  H74  1  0.86471997  0.64203044  0.50105659  1
  H+  H75  1  0.63789882  0.35559350  0.33293036  1
  H+  H76  1  0.39430593  0.53195746  0.18610499  1
  H+  H77  1  0.13699572  0.11802207  0.99189342  1
  H+  H78  1  0.10587099  0.64497690  0.17982149  1
  H+  H79  1  0.10022958  0.33952862  0.66886557  1
  H+  H80  1  0.36341371  0.87690527  0.49190373  1
  H+  H81  1  0.12516165  0.90381655  0.00683178  1
  H+  H82  1  0.61536415  0.00863166  0.48512753  1
  H+  H83  1  0.41119972  0.06306922  0.88087898  1
  H+  H84  1  0.64465811  0.77989283  0.84093168  1
  H+  H85  1  0.74872642  0.85471968  -0.00287997  1
  H+  H86  1  0.96311477  0.09747247  0.65938462  1
  H+  H87  1  0.27510016  0.13654387  0.00101451  1
  H+  H88  1  0.86381974  0.97649887  0.49297072  1
  H+  H89  1  0.76816667  0.37352099  0.34466149  1
  H+  H90  1  0.37729626  0.53029915  0.33321131  1
  H+  H91  1  0.26866809  0.63918491  0.49191437  1
  H+  H92  1  0.78374789  0.30224282  0.72120547  1
  H+  H93  1  0.12698873  0.65122266  -0.03114976  1
  H+  H94  1  0.88351002  0.36563040  0.84399489  1
  H+  H95  1  0.12580732  0.00123819  0.15434268  1
  H+  H96  1  0.53692298  0.15879965  -0.00371248  1
  H+  H97  1  0.92537752  0.09169804  0.39282659  1
  H+  H98  1  0.52253679  0.64268386  0.66942878  1
  H+  H99  1  0.73436155  0.11970261  0.67276331  1
  H+  H100  1  0.53056835  0.37241672  -0.00318034  1
  H+  H101  1  0.23758573  0.88327925  -0.01018131  1
  H+  H102  1  0.01080082  0.90261322  0.34022016  1
  H+  H103  1  0.74246528  0.37610372  -0.02472165  1
  H+  H104  1  0.35611510  0.18751560  0.67061961  1
  H+  H105  1  0.38014889  0.01973870  0.16919352  1
  H+  H106  1  0.77473724  0.64851850  0.32136396  1
  H+  H107  1  0.84722422  0.63626287  0.82614736  1
  H+  H108  1  0.86044917  -0.01231975  0.81992532  1
  H+  H109  1  -0.02588919  0.61112326  -0.01326305  1
  H+  H110  1  0.40477272  0.07034186  0.26065258  1
  H+  H111  1  0.87023796  1.01551235  0.65518117  1
  H+  H112  1  0.88521744  0.61206954  0.99252777  1
  H+  H113  1  0.87470715  0.26243840  0.33621611  1
  H+  H114  1  0.28189803  0.38471705  -0.03215450  1
  H+  H115  1  0.13326547  0.27710384  0.31981499  1
  H+  H116  1  0.39019815  0.11232086  -0.02597855  1
  H+  H117  1  0.58544158  0.67247825  0.76662527  1
  H+  H118  1  0.03917133  0.83151722  0.69154338  1
  H+  H119  1  0.63134884  0.53075462  0.32164278  1
  H+  H120  1  0.72667561  0.86299942  0.50499578  1
  H+  H121  1  0.36422958  0.89249234  0.00553155  1
  H+  H122  1  0.48688976  0.11916629  0.51231275  1
  H+  H123  1  0.60978749  0.88746298  0.33009270  1
  H+  H124  1  0.22004795  0.62268626  0.18421547  1
  H+  H125  1  0.61122308  0.73138775  0.67027176  1
  H+  H126  1  0.89588444  0.77851845  0.83705486  1
  H+  H127  1  0.84779854  0.37551531  0.15784227  1
  H+  H128  1  0.39201629  0.02641450  0.97986278  1
  H+  H129  1  0.85759351  0.35414099  0.67479677  1
  H+  H130  1  0.93460230  0.34013838  0.60047848  1
  H+  H131  1  0.09440734  0.21734410  0.00203466  1
  H+  H132  1  0.64509008  0.37209279  0.97364093  1
  H+  H133  1  0.74441870  0.63264085  0.50825991  1
  H+  H134  1  0.58340619  0.41785129  0.41452106  1
  H+  H135  1  0.60443109  0.63977114  0.33419375  1
  H+  H136  1  0.51549548  0.64009313  0.34223423  1
  H+  H137  1  0.38190318  0.26830393  0.83987400  1
  H+  H138  1  0.35324755  0.40611506  0.67371189  1
  H+  H139  1  0.14861705  0.78642403  0.65996493  1
  H+  H140  1  0.85538219  0.73342798  0.67083152  1
  H+  H141  1  0.37965569  0.62061505  0.33393499  1
  H+  H142  1  0.09577529  0.47304538  0.01086717  1
  H+  H143  1  0.85364124  0.25468810  0.16735712  1
  H+  H144  1  0.86375538  0.88753284  0.49533152  1
  H+  H145  1  0.95923212  0.62277463  0.83862481  1
  H+  H146  1  0.38259424  0.11011153  0.17023303  1
  H+  H147  1  0.52525397  0.63878801  0.16405972  1
  H+  H148  1  0.35904764  -0.03688828  0.33817875  1
  H+  H149  1  0.46660191  0.85120626  0.50275992  1
  H+  H150  1  0.14009875  0.52201728  0.50844721  1
  H+  H151  1  0.36621334  0.64867546  0.66193554  1
  H+  H152  1  0.24850204  0.11076652  0.31675538  1
  H+  H153  1  0.10454758  0.14987359  0.16450948  1
  H+  H154  1  0.56001992  0.43935753  0.51841994  1
  H+  H155  1  0.41193448  0.37063519  0.99806571  1
  H+  H156  1  0.59768813  0.49843693  0.67645579  1
  H+  H157  1  0.47267837  0.49105730  0.05743580  1
  H+  H158  1  0.65514025  0.77303913  0.98916397  1
  H+  H159  1  0.87790892  0.26603101  -0.00571945  1
  H+  H160  1  0.12198301  0.14926730  0.48886411  1
  H+  H161  1  0.12295706  0.00260841  0.65652620  1
  H+  H162  1  0.67405210  0.47203823  0.38564204  1
  H+  H163  1  0.35268265  0.73022441  0.49339358  1
  H+  H164  1  0.76968867  0.64133697  0.66798082  1
  H+  H165  1  0.95742974  0.60272678  0.18592616  1
  H+  H166  1  0.88342455  0.85982243  0.99785220  1
  H+  H167  1  0.16348794  0.01863814  0.31797925  1
  H+  H168  1  0.10278665  0.38526358  0.33273574  1
  H+  H169  1  0.85887180  0.46964447  1.00243341  1
  H+  H170  1  0.12203354  0.78483317  0.18207630  1
  H+  H171  1  0.15813880  0.85092766  0.23628874  1
  H+  H172  1  0.77102147  0.38248038  0.49833997  1
  H+  H173  1  0.97412507  0.86374387  0.99283447  1
  H+  H174  1  0.01493214  0.15307390  0.16443514  1
  H+  H175  1  0.86286363  0.48247175  0.82890634  1
  H+  H176  1  0.35845858  0.39480564  0.17546334  1
  H+  H177  1  0.87947349  0.23523940  0.48822489  1
  H+  H178  1  0.72160725  0.60743872  0.98782764  1
  H+  H179  1  0.38454094  0.33009354  0.55909114  1
  H+  H180  1  0.71702941  0.60318437  0.16642089  1
  H+  H181  1  0.52096435  0.13371280  0.15870742  1
  H+  H182  1  0.46412301  0.39349511  0.66116315  1
  H+  H183  1  0.62263928  0.13753755  0.68149838  1
  H+  H184  1  0.13686374  0.36436398  0.83337045  1
  H+  H185  1  0.16335651  0.32079686  0.62511649  1
  H+  H186  1  0.77729171  0.13435374  -0.01663836  1
  H+  H187  1  0.03648665  0.14468648  0.33038767  1
  H+  H188  1  0.39072689  0.78298933  0.65482052  1
  H+  H189  1  0.62713862  0.60133904  0.16611728  1
  H+  H190  1  0.63218361  0.26416439  0.32750798  1
  H+  H191  1  0.36809799  0.74244403  0.00620566  1
  H+  H192  1  0.89995015  0.36794457  0.50440257  1
  H+  H193  1  0.88799938  0.13548590  0.17227747  1
  H+  H194  1  0.88631220  0.11599541  0.33907919  1
  H+  H195  1  0.09924469  0.34791476  0.98751533  1
  H+  H196  1  0.62912561  0.26910956  0.50321042  1
  H+  H197  1  0.37556028  0.48669957  0.83699638  1
  H+  H198  1  0.62353474  0.23899510  0.66463808  1
  H+  H199  1  0.11696393  0.27206422  0.17068394  1
  H+  H200  1  0.13735856  0.54573390  0.66909725  1
  H+  H201  1  0.88900264  0.54093312  0.66496846  1
  H+  H202  1  0.25976561  0.61414031  0.80504213  1
  H+  H203  1  0.36214584  0.62598152  0.16703486  1
  H+  H204  1  0.37926627  -0.01899053  0.67686030  1
  H+  H205  1  0.15663425  0.87734956  0.65468806  1
  H+  H206  1  0.09328740  0.42138701  0.42843390  1
  H+  H207  1  0.63091303  0.86605865  0.65712912  1
  H+  H208  1  0.41179633  0.83396450  0.26089801  1
  H+  H209  1  0.36641171  0.22276757  0.00301943  1
  H+  H210  1  0.61203687  0.37915619  0.15357350  1
  H+  H211  1  -0.02959284  0.10516300  -0.00317084  1
  H+  H212  1  -0.00921464  0.36995753  0.50234221  1
  H+  H213  1  0.60969860  0.22211664  0.16086519  1
  H+  H214  1  0.22877402  0.12088240  0.16367808  1
  H+  H215  1  0.08631870  0.19962579  0.67465635  1
  H+  H216  1  0.26538414  0.88909308  0.15930605  1
  H+  H217  1  0.63930716  1.02576776  0.32603760  1
  H+  H218  1  0.42104859  0.33110951  0.93411785  1
  H+  H219  1  0.96682979  0.35391980  0.84064841  1
  H+  H220  1  0.82346194  0.92546949  0.73247369  1
  H+  H221  1  0.28061996  0.57335548  0.12814791  1
  H+  H222  1  0.16855373  0.59515795  0.83547438  1
  H+  H223  1  1.02857736  0.89167434  0.82508644  1
  H+  H224  1  0.89297307  0.12064328  0.84394476  1
  H+  H225  1  0.23129587  0.19027740  0.54744628  1
  H+  H226  1  0.26686591  0.40516900  0.69150676  1
  H+  H227  1  0.10117377  0.47460502  0.33682460  1
  H+  H228  1  0.07969815  0.16773841  0.06536458  1
  H+  H229  1  0.85100424  0.63299154  0.15855975  1
  H+  H230  1  0.97303800  0.36173484  0.33315411  1
  H+  H231  1  0.76810237  0.14163364  0.33613974  1
  H+  H232  1  0.39754698  0.11643393  0.51306250  1
  H+  H233  1  0.10140575  0.72612845  0.34087969  1
  H+  H234  1  0.11373989  0.65463989  0.67605864  1
  H+  H235  1  0.85896210  0.47273940  0.49660978  1
  H+  H236  1  0.47254601  0.86189158  0.32050067  1
  H+  H237  1  0.47774945  0.35893287  0.16367289  1
  H+  H238  1  0.86915457  0.86934690  0.66458840  1
  H+  H239  1  0.61012984  0.12993922  0.33444316  1
  H+  H240  1  0.39429438  0.18188388  0.34012441  1
  H+  H241  1  0.35600070  0.12494719  0.82157749  1
  H+  H242  1  0.95952559  0.87117803  0.66657342  1
  H+  H243  1  0.07842072  0.90859400  0.74045577  1
  H+  H244  1  0.87501042  0.22793948  0.67648645  1
  H+  H245  1  0.11285331  0.48721957  0.16636834  1
  H+  H246  1  0.14220323  0.40003604  0.47904405  1
  H+  H247  1  0.35281012  0.39902132  0.33431161  1
  H+  H248  1  0.39147416  0.36244169  0.84208139  1
  H+  H249  1  0.12967237  0.78683316  0.83906553  1
  H+  H250  1  0.65324874  1.00447065  0.49459914  1
  H+  H251  1  0.38688725  0.78648429  0.17044624  1
  H+  H252  1  0.52887337  0.13313514  0.67924033  1
  H+  H253  1  0.61737208  0.30860970  0.82719969  1
  H+  H254  1  0.76983078  0.89981993  0.82105482  1
  H+  H255  1  0.09783117  0.11582231  0.67584402  1
  H+  H256  1  0.47523657  0.87530669  -0.00155464  1
  H+  H257  1  0.08214329  0.64056034  0.82990526  1
  H+  H258  1  0.87699316  0.36106807  0.33871413  1
  H+  H259  1  0.35788314  0.22101360  0.48957836  1
  H+  H260  1  0.10739872  0.62856239  0.49307189  1
  H+  H261  1  0.38416526  0.53979609  0.66367107  1
  H+  H262  1  0.34556327  0.34872006  0.49566329  1
  H+  H263  1  0.88341955  0.62608873  0.65904049  1
  H+  H264  1  0.86672155  0.95576635  0.02240221  1
  H+  H265  1  0.37548928  0.30698208  0.66524937  1
  H+  H266  1  0.88069719  0.51700984  0.33380739  1
  H+  H267  1  0.64029012  0.77004852  0.50582078  1
  H+  H268  1  0.74589065  0.11328303  0.87158232  1
  H+  H269  1  0.33928089  0.06213737  0.31074600  1
  H+  H270  1  0.59414449  0.84728758  0.48440833  1
  H+  H271  1  0.87067317  0.51287054  0.17517294  1
  H+  H272  1  0.60629820  0.87081211  0.82439445  1
  H+  H273  1  0.48054772  0.62277044  0.99407668  1
  H+  H274  1  0.54062624  0.47782450  0.73459167  1
  H+  H275  1  0.88529931  0.86721661  0.32385936  1
  H+  H276  1  0.22487846  0.36748484  0.53445010  1
  H+  H277  1  0.97544183  0.86288417  0.51317032  1
  H+  H278  1  0.62832169  0.77277832  0.32588254  1
  H+  H279  1  0.24368928  0.61833956  0.98931909  1
  H+  H280  1  0.75083050  0.15724283  0.51913153  1
  H+  H281  1  0.97210099  0.60712609  0.50555502  1
  H+  H282  1  0.59986354  -0.01302760  1.00306668  1
  H+  H283  1  0.41394492  0.67377788  0.81780999  1
  H+  H284  1  0.72108360  0.33422569  0.65662601  1
  H+  H285  1  0.10707840  0.87012438  0.49473951  1
  H+  H286  1  0.58199282  0.89235469  0.14946775  1
  H+  H287  1  0.39470628  0.09945662  0.66727825  1
  H+  H288  1  0.82674878  0.40591190  0.40624322  1
  H+  H289  1  0.66570011  0.58956323  0.59666059  1
  H+  H290  1  0.15038318  0.33542399  0.23438764  1
  H+  H291  1  0.66458747  0.08139207  0.26432559  1
  H+  H292  1  0.22974489  0.37077070  0.84227806  1
  H+  H293  1  0.10022038  0.17567544  0.38477230  1
  H+  H294  1  0.65329587  0.57902939  0.25748085  1
  H+  H295  1  0.51886458  0.35355500  0.82534995  1
  H+  H296  1  0.61914468  0.35146659  0.51347391  1
  H+  H297  1  0.35930981  0.68976442  0.72386936  1
  H+  H298  1  0.17278757  0.09776746  0.57275795  1
  H+  H299  1  0.89817450  0.05532693  0.18412091  1
  H+  H300  1  0.65292318  0.57804470  0.89192255  1
  H+  H301  1  0.42377904  0.33647041  0.22537694  1
  H+  H302  1  0.07802202  0.42574409  0.10672203  1
  H+  H303  1  0.41683017  0.84457688  0.56698507  1
  H+  H304  1  0.90851864  0.32855927  0.93616274  1
  H+  H305  1  0.88700498  0.31288478  0.22688213  1
  H+  H306  1  0.84777492  0.71858341  0.13822323  1
  H+  H307  1  0.41597867  0.84398129  0.93803167  1
  H+  H308  1  0.66159575  0.83403710  0.59865981  1
  H+  H309  1  0.85812625  0.64045955  0.32962288  1
  H+  H310  1  0.34522359  0.18536188  0.39848735  1
  H+  H311  1  0.07717448  0.66179561  0.43467363  1
  H+  H312  1  0.58549475  0.18284761  0.05804892  1
  H+  H313  1  0.13081115  0.23844181  0.47626544  1
  H+  H314  1  0.82230052  0.90765957  0.40038347  1
  H+  H315  1  0.33643701  0.67703523  0.06443261  1
  H+  H316  1  0.83280279  0.41599254  0.77370557  1
  H+  H317  1  0.68082458  0.83890020  0.90045460  1
  H+  H318  1  0.92838901  0.83668122  0.89657446  1
  H+  H319  1  0.07471829  0.90523727  0.44067283  1
  H+  H320  1  0.41854088  0.57841786  0.59815920  1
  H+  H321  1  0.59229965  0.40147928  0.05502069  1
  H+  H322  1  0.90231303  0.58360302  0.89853704  1
  H+  H323  1  0.85992474  0.12983587  0.00166825  1
  H+  H324  1  0.13049678  0.56932653  0.89961987  1
  H+  H325  1  0.32648658  0.89974792  0.42575763  1
  H+  H326  1  0.32423330  0.67217544  0.40003087  1
  H+  H327  1  0.69168711  0.12971646  0.57878756  1
  H+  H328  1  0.02483835  0.65495231  0.67161183  1
  H+  H329  1  0.89517251  0.78486579  0.31877556  1
  H+  H330  1  0.56677851  0.93854294  0.06739944  1
  H+  H331  1  0.51157750  0.78250743  0.44877810  1
  H+  H332  1  0.67128294  0.32372354  0.91469709  1
  H+  H333  1  0.13246408  0.32060716  0.92741117  1
  H+  H334  1  0.06138200  0.66637106  0.12556071  1
  H+  H335  1  0.35622553  0.96190894  0.77882202  1
  H+  H336  1  0.35414822  0.88615564  0.15999319  1
  H+  H337  1  0.93428435  0.86829999  0.14161698  1
  H+  H338  1  0.06178338  0.98873941  0.37944704  1
  H+  H339  1  0.33399399  0.16324622  0.09476450  1
  H+  H340  1  0.17398592  0.85555953  0.89194821  1
  H+  H341  1  0.11778081  0.67330134  0.03442154  1
  H+  H342  1  0.07657300  0.40476077  0.76252874  1
  H+  H343  1  0.58205251  0.66244693  0.06519569  1
  H+  H344  1  0.52635759  0.89634701  0.66861725  1
  H+  H345  1  0.35720462  0.43891777  0.11590959  1
  H+  H346  1  0.91776976  0.08467575  0.56326706  1
  H+  H347  1  0.57728809  0.38518410  0.76649461  1
  H+  H348  1  0.82773640  0.17130862  0.39859915  1
  H+  H349  1  0.65667910  0.31125962  0.59652010  1
  H+  H350  1  0.32544681  0.14617137  0.73711863  1
  H+  H351  1  0.16402096  0.58424394  0.56713274  1
  H+  H352  1  0.71448877  0.61284393  0.83480447  1
  H+  H353  1  0.43264051  0.08658462  0.60392242  1
  H+  H354  1  0.16006608  0.59059537  0.24379461  1
  H+  H355  1  0.12061799  0.37327617  0.17186014  1
  H+  H356  1  0.58244522  0.66810258  0.43199731  1
  H+  H357  1  0.67644555  0.82439428  0.23536297  1
  H+  H358  1  0.86809420  0.73398777  0.50423467  1
  H+  H359  1  0.17703554  0.82859745  0.56318795  1
  H+  H360  1  0.80778182  0.15150464  0.09447518  1
  H+  H361  1  0.66438640  0.33066970  0.23116052  1
  H+  H362  1  0.42629503  0.59707294  0.89993526  1
  H+  H363  1  0.90196500  0.56956701  0.27167824  1
  H+  H364  1  0.51641523  0.81511840  0.79253051  1
  H+  H365  1  0.91377468  0.07699308  0.93703936  1
  H+  H366  1  0.57262918  0.90251044  0.39065886  1
  H+  H367  1  0.18040788  0.08024182  0.22514707  1
  H+  H368  1  0.82159231  0.41002702  0.09841844  1
  H+  H369  1  0.42290729  0.59680401  0.24325560  1
  H+  H370  1  0.33292174  0.92536140  0.06258062  1
  H+  H371  1  0.48181250  0.88430357  0.16511353  1
  H+  H372  1  0.82987850  0.16498944  0.77604316  1
  H+  H373  1  0.84840469  0.93568993  0.11232602  1
  H+  H374  1  0.12680927  0.61292717  0.33333773  1
  H+  H375  1  0.47649264  0.58575300  0.50710642  1
  H+  H376  1  0.20661324  0.53404389  0.95149618  1
  H+  H377  1  0.82364719  0.66915683  0.76565764  1
  H+  H378  1  0.06947374  0.68080188  0.76876630  1
  H+  H379  1  0.40495922  0.50040725  0.01908556  1
  H+  H380  1  0.91182720  0.84091184  0.57112984  1
  H+  H381  1  0.26933960  0.13076094  0.82507410  1
  H+  H382  1  0.08041501  0.16057722  0.76875274  1
  H+  H383  1  0.27825921  0.13065151  0.48695862  1
  O2-  O384  1  0.07747231  0.18144095  0.14767042  1
  O2-  O385  1  0.09217281  0.17653814  0.46840123  1
  O2-  O386  1  0.08751560  0.16696832  0.81390777  1
  O2-  O387  1  0.08940706  0.42781548  0.15128898  1
  O2-  O388  1  0.10175665  0.42169316  0.47334077  1
  O2-  O389  1  0.06930813  0.40010055  0.81019326  1
  O2-  O390  1  0.06993512  0.67239888  0.16935371  1
  O2-  O391  1  0.07783351  0.66080278  0.48021621  1
  O2-  O392  1  0.06247727  0.67939564  0.81382794  1
  O2-  O393  1  0.09516102  0.93854535  0.13685121  1
  O2-  O394  1  0.07409673  0.89907430  0.48523410  1
  O2-  O395  1  0.08879164  0.92700593  0.80612665  1
  O2-  O396  1  0.33087192  0.16310750  0.14044875  1
  O2-  O397  1  0.33799210  0.16278328  0.47166976  1
  O2-  O398  1  0.32995572  0.15966499  0.80788177  1
  O2-  O399  1  0.34127569  0.43516317  0.15936845  1
  O2-  O400  1  0.30719529  0.39551223  0.46925626  1
  O2-  O401  1  0.34497308  0.42538841  0.82262475  1
  O2-  O402  1  0.31589910  0.63160380  0.14375680  1
  O2-  O403  1  0.32690074  0.67315554  0.47396688  1
  O2-  O404  1  0.41356044  0.71997328  0.79245328  1
  O2-  O405  1  0.32459951  0.91740082  0.14302048  1
  O2-  O406  1  0.32480524  0.89927582  0.47246240  1
  O2-  O407  1  0.35733616  0.96721868  0.82405667  1
  O2-  O408  1  0.58186388  0.16201012  0.14548592  1
  O2-  O409  1  0.58739295  0.17226555  0.47792983  1
  O2-  O410  1  0.59808292  0.19053279  0.83467684  1
  O2-  O411  1  0.58260598  0.40747705  0.13332789  1
  O2-  O412  1  0.54407011  0.39302475  0.48907705  1
  O2-  O413  1  0.57362940  0.36273805  0.80756627  1
  O2-  O414  1  0.58231976  0.66027866  0.14398023  1
  O2-  O415  1  0.58316082  0.66849685  0.47760602  1
  O2-  O416  1  0.58542847  0.67266573  0.81180707  1
  O2-  O417  1  0.55470241  0.92671319  0.14318907  1
  O2-  O418  1  0.54316569  0.84259809  0.46127082  1
  O2-  O419  1  0.56063301  0.87584138  0.80078222  1
  O2-  O420  1  0.81022838  0.15533831  0.13951050  1
  O2-  O421  1  0.84360842  0.17508131  0.47289477  1
  O2-  O422  1  0.83021633  0.16583253  0.82116537  1
  O2-  O423  1  0.82256065  0.41222796  0.14353245  1
  O2-  O424  1  0.83044188  0.41150395  0.48193147  1
  O2-  O425  1  0.84106414  0.42127011  0.81783992  1
  O2-  O426  1  0.81675626  0.65405804  0.13684292  1
  O2-  O427  1  0.83379374  0.67296696  0.49055573  1
  O2-  O428  1  0.82059340  0.66988136  0.81066276  1
  O2-  O429  1  0.86011619  0.95433200  0.15645706  1
  O2-  O430  1  0.83163168  0.91580771  0.47885853  1
  O2-  O431  1  0.82590195  0.93141202  0.79927609  1
  O2-  O432  1  0.16914964  0.08895715  0.18181586  1
  O2-  O433  1  0.19259330  0.13149090  0.53392085  1
  O2-  O434  1  0.17150511  0.08745255  0.85209793  1
  O2-  O435  1  0.14573050  0.33438508  0.18790152  1
  O2-  O436  1  0.21626207  0.35507481  0.49088517  1
  O2-  O437  1  0.16723940  0.33494272  0.85024184  1
  O2-  O438  1  0.15963449  0.59607112  0.19795800  1
  O2-  O439  1  0.16278584  0.58249000  0.52208534  1
  O2-  O440  1  0.11311049  0.56883709  0.85682760  1
  O2-  O441  1  0.15504208  0.84750310  0.19091541  1
  O2-  O442  1  0.17450214  0.82379846  0.51774020  1
  O2-  O443  1  0.16665174  0.84892188  0.84732060  1
  O2-  O444  1  0.41140554  0.07920704  0.18703883  1
  O2-  O445  1  0.42991881  0.09214923  0.53280237  1
  O2-  O446  1  0.40700673  0.06076662  0.83467036  1
  O2-  O447  1  0.41811033  0.32925505  0.18072435  1
  O2-  O448  1  0.37815470  0.31775434  0.51505284  1
  O2-  O449  1  0.41746958  0.32754541  0.85605351  1
  O2-  O450  1  0.42473192  0.59517618  0.19764440  1
  O2-  O451  1  0.42912015  0.54293665  0.53259269  1
  O2-  O452  1  0.42665714  0.59490287  0.85456148  1
  O2-  O453  1  0.41104522  0.84410297  0.18715033  1
  O2-  O454  1  0.41095715  0.84003153  0.52104949  1
  O2-  O455  1  0.41947298  0.85675975  0.86082183  1
  O2-  O456  1  0.65432873  0.07510350  0.19200365  1
  O2-  O457  1  0.70546479  0.16274389  0.54043907  1
  O2-  O458  1  0.62556850  0.07110576  0.89854787  1
  O2-  O459  1  0.66142443  0.32892591  0.18620487  1
  O2-  O460  1  0.65672802  0.32781597  0.52354925  1
  O2-  O461  1  0.65318699  0.28330405  0.84404422  1
  O2-  O462  1  0.65624040  0.56991985  0.18189277  1
  O2-  O463  1  0.67754476  0.59828886  0.51816416  1
  O2-  O464  1  0.65277249  0.58172476  0.84703425  1
  O2-  O465  1  0.68991612  0.81614679  0.19225778  1
  O2-  O466  1  0.66592998  0.83112358  0.52003986  1
  O2-  O467  1  0.67112614  0.84043010  0.85496042  1
  O2-  O468  1  0.92632689  0.11810219  0.19277755  1
  O2-  O469  1  0.92059890  0.08698443  0.51734100  1
  O2-  O470  1  0.92073067  0.08727699  0.85704704  1
  O2-  O471  1  0.88264161  0.31535905  0.18288470  1
  O2-  O472  1  0.93107033  0.33820874  0.51810641  1
  O2-  O473  1  0.90854400  0.32965439  0.85930756  1
  O2-  O474  1  0.89521475  0.57083671  0.19495857  1
  O2-  O475  1  0.91132142  0.57659879  0.52040660  1
  O2-  O476  1  0.89903532  0.58536694  0.85331436  1
  O2-  O477  1  0.89535765  0.82049718  0.11598073  1
  O2-  O478  1  0.91372402  0.83844449  0.52581039  1
  O2-  O479  1  0.93861891  0.83612562  0.85217733  1
  O2-  O480  1  0.21505274  0.05724282  0.29331611  1
  O2-  O481  1  0.15596265  0.06426776  0.64663411  1
  O2-  O482  1  0.16799009  0.08786479  0.97687268  1
  O2-  O483  1  0.15646111  0.33868600  0.30537278  1
  O2-  O484  1  0.11094463  0.29268006  0.64868646  1
  O2-  O485  1  0.10883804  0.30360191  0.96900348  1
  O2-  O486  1  0.15550269  0.58081380  0.31827465  1
  O2-  O487  1  0.16882225  0.60326317  0.65088085  1
  O2-  O488  1  0.18860652  0.57285928  0.96835867  1
  O2-  O489  1  0.16085196  0.83936024  0.31565802  1
  O2-  O490  1  0.18474457  0.84486875  0.64140888  1
  O2-  O491  1  0.17644932  0.85816156  0.97435231  1
  O2-  O492  1  0.39572172  0.06630424  0.30667395  1
  O2-  O493  1  0.43400733  0.08090751  0.65035832  1
  O2-  O494  1  0.41847014  0.08160763  0.95704976  1
  O2-  O495  1  0.41946038  0.35820400  0.30744170  1
  O2-  O496  1  0.40499179  0.35960052  0.64154435  1
  O2-  O497  1  0.42688265  0.32958537  0.97937693  1
  O2-  O498  1  0.41229839  0.59177651  0.32018734  1
  O2-  O499  1  0.41715406  0.59518175  0.64195550  1
  O2-  O500  1  0.41870467  0.59020512  0.97988487  1
  O2-  O501  1  0.41111917  0.83039888  0.30734842  1
  O2-  O502  1  0.42116505  0.84449359  0.64123640  1
  O2-  O503  1  0.41284928  0.83878699  0.98344198  1
  O2-  O504  1  0.66935000  0.08634335  0.31078639  1
  O2-  O505  1  0.67381643  0.09393084  0.65746025  1
  O2-  O506  1  0.71455893  0.09588606  0.91146295  1
  O2-  O507  1  0.66673862  0.32619945  0.31521838  1
  O2-  O508  1  0.65940716  0.30784332  0.64258633  1
  O2-  O509  1  0.69161895  0.36848321  0.94814248  1
  O2-  O510  1  0.65436938  0.58755741  0.30295209  1
  O2-  O511  1  0.66404053  0.58937314  0.64205515  1
  O2-  O512  1  0.65952262  0.57617467  0.97656133  1
  O2-  O513  1  0.65945176  0.83274756  0.30910038  1
  O2-  O514  1  0.65936122  0.83281497  0.64406207  1
  O2-  O515  1  0.69449475  0.82959023  0.97177353  1
  O2-  O516  1  0.91723640  0.08474521  0.34888653  1
  O2-  O517  1  0.90561831  0.07695653  0.64015837  1
  O2-  O518  1  0.90990905  0.07637131  0.98234211  1
  O2-  O519  1  0.90827391  0.32914507  0.32218373  1
  O2-  O520  1  0.93182542  0.33769536  0.64561835  1
  O2-  O521  1  0.90633762  0.32830102  0.98191982  1
  O2-  O522  1  0.91027849  0.57584195  0.31694798  1
  O2-  O523  1  0.91749402  0.59742263  0.64583360  1
  O2-  O524  1  0.91238178  0.57776097  0.97753826  1
  O2-  O525  1  0.92579502  0.84825083  0.31043268  1
  O2-  O526  1  0.90105565  0.83873096  0.64957622  1
  O2-  O527  1  0.91558451  0.83231279  0.97608686  1
  O2-  O528  1  0.07933736  0.16010289  0.02070126  1
  O2-  O529  1  0.09833464  0.17836340  0.33979939  1
  O2-  O530  1  0.06337131  0.14029903  0.69230012  1
  O2-  O531  1  0.06471206  0.41567464  0.02919045  1
  O2-  O532  1  0.07031266  0.41277385  0.35036510  1
  O2-  O533  1  0.09061887  0.41117006  0.69532955  1
  O2-  O534  1  0.09863635  0.67527368  -0.00668108  1
  O2-  O535  1  0.07443308  0.66613112  0.35585421  1
  O2-  O536  1  0.08392874  0.68630698  0.68912746  1
  O2-  O537  1  0.09394447  0.93225744  0.02465762  1
  O2-  O538  1  0.07052438  0.94435093  0.36097395  1
  O2-  O539  1  0.07024603  0.89408616  0.69333544  1
  O2-  O540  1  0.33523930  0.16155961  0.01634850  1
  O2-  O541  1  0.35272108  0.19856474  0.35337951  1
  O2-  O542  1  0.32110163  0.13304430  0.69121200  1
  O2-  O543  1  0.41349990  0.45787648  0.04323875  1
  O2-  O544  1  0.31727529  0.42308662  0.34979865  1
  O2-  O545  1  0.32884995  0.43624265  0.69798162  1
  O2-  O546  1  0.33626619  0.67931907  0.01950599  1
  O2-  O547  1  0.32112666  0.66730857  0.35396846  1
  O2-  O548  1  0.33799511  0.67930471  0.68083120  1
  O2-  O549  1  0.33471022  0.92556481  0.01725867  1
  O2-  O550  1  0.32783054  0.90303466  0.35413957  1
  O2-  O551  1  0.34638052  0.92375581  0.69763457  1
  O2-  O552  1  0.58890401  0.20375688  0.01621953  1
  O2-  O553  1  0.57973184  0.16001787  0.35109079  1
  O2-  O554  1  0.59092233  0.16969906  0.69353260  1
  O2-  O555  1  0.59275251  0.40397217  0.00945442  1
  O2-  O556  1  0.61402053  0.43399786  0.37448271  1
  O2-  O557  1  0.55147239  0.44906398  0.70090921  1
  O2-  O558  1  0.57800492  0.65904658  0.01991906  1
  O2-  O559  1  0.57790137  0.67092074  0.35410783  1
  O2-  O560  1  0.58313402  0.66997122  0.68428620  1
  O2-  O561  1  0.56777885  0.93078907  0.02212551  1
  O2-  O562  1  0.58005060  0.91792987  0.34682124  1
  O2-  O563  1  0.58665473  0.92408641  0.68415968  1
  O2-  O564  1  0.82624486  0.15970566  0.01190238  1
  O2-  O565  1  0.82923677  0.17554052  0.35255106  1
  O2-  O566  1  0.84004127  0.16922307  0.69351288  1
  O2-  O567  1  0.82189298  0.40832339  0.01468040  1
  O2-  O568  1  0.82890262  0.40362294  0.36035875  1
  O2-  O569  1  0.80710925  0.35370679  0.69585498  1
  O2-  O570  1  0.83263954  0.66250913  0.01135718  1
  O2-  O571  1  0.83496396  0.67951018  0.33483677  1
  O2-  O572  1  0.83031423  0.67165261  0.68309836  1
  O2-  O573  1  0.83863349  0.89716289  0.03902097  1
  O2-  O574  1  0.81921943  0.90899940  0.35494739  1
  O2-  O575  1  0.82360619  0.92001638  0.68495028  1
