# generated using pymatgen
data_H2O
_symmetry_space_group_name_H-M   'P 1'
_cell_length_a   17.99893434
_cell_length_b   17.99863769
_cell_length_c   22.02044886
_cell_angle_alpha   89.98833955
_cell_angle_beta   90.01397964
_cell_angle_gamma   120.00760404
_symmetry_Int_Tables_number   1
_chemical_formula_structural   H2O
_chemical_formula_sum   'H384 O192'
_cell_volume   6177.45981995
_cell_formula_units_Z   192
loop_
 _symmetry_equiv_pos_site_id
 _symmetry_equiv_pos_as_xyz
  1  'x, y, z'
loop_
 _atom_type_symbol
 _atom_type_oxidation_number
  H+  1.0
  O2-  -2.0
loop_
 _atom_site_type_symbol
 _atom_site_label
 _atom_site_symmetry_multiplicity
 _atom_site_fract_x
 _atom_site_fract_y
 _atom_site_fract_z
 _atom_site_occupancy
  H+  H0  1  0.39257479  0.35783705  0.33560614  1
  H+  H1  1  0.89001230  0.04722390  0.14355152  1
  H+  H2  1  0.27574606  0.85725006  0.00660160  1
  H+  H3  1  0.62542343  0.26504012  0.32614914  1
  H+  H4  1  0.34829517  0.92704065  0.41901612  1
  H+  H5  1  0.86818568  0.89906726  0.49075236  1
  H+  H6  1  0.28007782  0.90432554  0.66944669  1
  H+  H7  1  0.30980784  0.14351619  0.36914855  1
  H+  H8  1  0.62854340  0.38848857  0.49497837  1
  H+  H9  1  0.28812722  0.87622591  0.36166038  1
  H+  H10  1  0.05761392  0.96696781  0.66705694  1
  H+  H11  1  0.67536715  0.34145245  0.60015280  1
  H+  H12  1  0.10668481  0.39354606  0.15753259  1
  H+  H13  1  0.13046447  0.22249581  0.51326795  1
  H+  H14  1  0.26177155  0.12199981  0.52264361  1
  H+  H15  1  0.36032340  0.64022062  0.15974564  1
  H+  H16  1  0.33120404  0.14941524  0.06771956  1
  H+  H17  1  0.42232867  0.33073809  0.27434365  1
  H+  H18  1  0.62640421  0.51254382  0.16989987  1
  H+  H19  1  0.12110839  0.50648000  0.34013383  1
  H+  H20  1  0.98340494  0.38326267  0.83864384  1
  H+  H21  1  0.09583597  0.90085023  0.40523617  1
  H+  H22  1  0.22314695  0.62936942  0.68768878  1
  H+  H23  1  0.52417415  0.13100746  0.00194708  1
  H+  H24  1  0.65670106  0.60084536  0.99531426  1
  H+  H25  1  0.73737851  0.86915782  0.51664733  1
  H+  H26  1  0.63141553  0.51920653  0.83676421  1
  H+  H27  1  0.47111866  0.83247658  0.37339979  1
  H+  H28  1  0.38054838  0.99821337  0.51498761  1
  H+  H29  1  0.41662489  0.55584697  0.98499109  1
  H+  H30  1  0.21371465  0.34316590  0.81919429  1
  H+  H31  1  0.76630495  0.86747844  0.34301702  1
  H+  H32  1  0.77148146  0.38569156  0.67363878  1
  H+  H33  1  0.59668784  0.96049037  0.15759055  1
  H+  H34  1  0.99722749  0.63092761  0.68405358  1
  H+  H35  1  0.11763823  0.85443232  0.98196824  1
  H+  H36  1  0.92336578  0.82857700  0.45355199  1
  H+  H37  1  0.74477370  0.37237307  0.50771509  1
  H+  H38  1  0.38578085  0.91305228  0.50969576  1
  H+  H39  1  0.61994446  0.39052021  0.82560979  1
  H+  H40  1  0.38076781  0.26939470  0.17280860  1
  H+  H41  1  0.86693995  0.23342387  0.50619572  1
  H+  H42  1  0.12060312  0.04198251  0.20689100  1
  H+  H43  1  0.01645893  0.88667535  -0.01466380  1
  H+  H44  1  -0.01301433  0.87654448  0.50474509  1
  H+  H45  1  0.65193014  1.03143096  0.66544393  1
  H+  H46  1  0.87928672  0.03831883  0.65391044  1
  H+  H47  1  0.18184477  0.85372620  0.60795716  1
  H+  H48  1  0.36571472  0.38713630  0.50370399  1
  H+  H49  1  0.72327869  0.62237666  0.31650198  1
  H+  H50  1  0.86389797  0.38995632  0.67637062  1
  H+  H51  1  0.10928577  0.73209469  0.82876657  1
  H+  H52  1  0.72197310  0.35735764  -0.00833940  1
  H+  H53  1  0.85788965  0.88730288  0.16716626  1
  H+  H54  1  0.85836116  0.08533371  0.89457958  1
  H+  H55  1  0.73497203  0.12195746  0.51035623  1
  H+  H56  1  0.88994845  0.28502651  0.98035673  1
  H+  H57  1  0.70461340  0.09910592  0.32374841  1
  H+  H58  1  0.55522165  0.16643116  0.74569658  1
  H+  H59  1  0.26838609  0.12945513  0.82306457  1
  H+  H60  1  0.38433335  0.32222955  0.97993950  1
  H+  H61  1  0.46251483  0.85753345  0.12221900  1
  H+  H62  1  0.18200756  0.93083757  0.64432275  1
  H+  H63  1  0.86151706  0.72592990  0.51511666  1
  H+  H64  1  0.84710710  0.15219068  0.14909243  1
  H+  H65  1  0.98742557  0.17026290  0.33026187  1
  H+  H66  1  0.12155250  0.41054184  0.01933450  1
  H+  H67  1  0.98680116  0.86476961  0.33287596  1
  H+  H68  1  0.12474353  0.60404724  0.34047118  1
  H+  H69  1  0.13671388  0.53312009  0.17377561  1
  H+  H70  1  0.35368922  0.44236114  0.73255748  1
  H+  H71  1  0.09260140  0.76616444  0.95032045  1
  H+  H72  1  0.29757418  0.31378863  0.76804650  1
  H+  H73  1  0.86461632  0.14297201  -0.02587796  1
  H+  H74  1  0.61559945  0.96953760  0.00187178  1
  H+  H75  1  0.27255834  0.35969584  0.36358383  1
  H+  H76  1  0.15391037  0.76845916  0.51379702  1
  H+  H77  1  0.83031618  0.51391541  0.98634026  1
  H+  H78  1  0.12000649  0.34979762  0.66299477  1
  H+  H79  1  0.73168297  0.62521176  0.66087189  1
  H+  H80  1  0.62082195  0.14488498  0.49730014  1
  H+  H81  1  0.54968048  0.67821208  0.65854556  1
  H+  H82  1  0.86483964  0.40427547  0.16037372  1
  H+  H83  1  0.16871210  0.68029624  1.04091885  1
  H+  H84  1  0.24583276  0.87504178  0.17913047  1
  H+  H85  1  0.24523934  0.85463325  0.52017255  1
  H+  H86  1  0.89139477  0.86767412  0.83309186  1
  H+  H87  1  0.57329726  0.40159816  0.20569806  1
  H+  H88  1  0.36575091  0.89264472  0.14098147  1
  H+  H89  1  0.12279475  0.47410969  0.48356425  1
  H+  H90  1  0.16543340  0.32229014  0.96852820  1
  H+  H91  1  0.63315879  0.67429926  0.66279755  1
  H+  H92  1  0.40912223  0.64188525  0.65924560  1
  H+  H93  1  0.10515397  0.73069824  0.18318206  1
  H+  H94  1  0.49359440  0.87665541  0.51716227  1
  H+  H95  1  0.37243917  0.77027856  0.12630461  1
  H+  H96  1  0.77613366  0.55869917  0.96695834  1
  H+  H97  1  0.47339533  0.61628154  0.17956404  1
  H+  H98  1  0.66337201  0.90689407  0.68196439  1
  H+  H99  1  0.78098885  0.01059348  0.26908525  1
  H+  H100  1  0.46521184  0.59553739  0.33862775  1
  H+  H101  1  0.38555404  0.28078479  0.66797339  1
  H+  H102  1  0.85449724  0.72559094  0.16496397  1
  H+  H103  1  0.66208483  0.57197222  0.89905271  1
  H+  H104  1  0.88727383  0.60430278  0.51430933  1
  H+  H105  1  0.61553261  0.87488546  0.82845723  1
  H+  H106  1  0.08410811  0.62907384  0.69485352  1
  H+  H107  1  0.86972368  -0.01154185  0.49166147  1
  H+  H108  1  0.86977817  0.14766844  0.49695725  1
  H+  H109  1  0.52130927  0.63989822  0.82867958  1
  H+  H110  1  0.40033913  0.85590163  0.97376792  1
  H+  H111  1  0.65285777  0.28304945  0.50625151  1
  H+  H112  1  0.10090435  0.21444336  0.80601172  1
  H+  H113  1  0.24146532  0.62619549  0.48425865  1
  H+  H114  1  0.85098584  0.14066037  0.33678388  1
  H+  H115  1  0.73356937  0.86143717  0.84350013  1
  H+  H116  1  0.87850302  0.52679258  0.15799610  1
  H+  H117  1  0.13932820  0.62183762  0.18007052  1
  H+  H118  1  0.40229563  0.62583547  0.82217173  1
  H+  H119  1  0.13751639  1.00132201  0.50023102  1
  H+  H120  1  0.38510304  0.26719424  0.51298801  1
  H+  H121  1  0.52721046  0.38116582  0.82389627  1
  H+  H122  1  0.88975639  0.51246552  0.51158843  1
  H+  H123  1  0.00444575  0.60867152  0.01901067  1
  H+  H124  1  0.89376563  0.37415769  0.52299402  1
  H+  H125  1  0.89288894  0.60365572  0.30480402  1
  H+  H126  1  0.10242625  0.38620802  0.33087043  1
  H+  H127  1  0.96708047  0.61898429  0.84709513  1
  H+  H128  1  0.39668452  0.37541423  0.66876404  1
  H+  H129  1  0.88518650  0.77584972  0.83367734  1
  H+  H130  1  0.32615525  0.15346199  0.76322404  1
  H+  H131  1  0.09584053  0.10421796  0.31968810  1
  H+  H132  1  0.48793040  0.85521180  0.98085449  1
  H+  H133  1  0.71407514  0.60576215  0.16489334  1
  H+  H134  1  0.38535038  0.52967909  0.18879271  1
  H+  H135  1  0.97192439  0.37559108  0.17563291  1
  H+  H136  1  0.02938168  0.89294539  0.82003965  1
  H+  H137  1  0.63350790  0.72336965  0.00911919  1
  H+  H138  1  0.27328648  0.13347044  0.16332753  1
  H+  H139  1  0.88107194  0.65787758  0.01150148  1
  H+  H140  1  0.71323719  0.35709423  0.31981203  1
  H+  H141  1  0.38124668  0.77583633  0.66164068  1
  H+  H142  1  0.62384183  0.88861830  0.50799338  1
  H+  H143  1  -0.03372559  0.85658799  0.17224661  1
  H+  H144  1  0.85551333  0.64164835  0.82199869  1
  H+  H145  1  0.20621907  0.07427635  0.28622143  1
  H+  H146  1  0.83085979  0.91801523  0.39813018  1
  H+  H147  1  1.01553652  0.64234260  0.99497807  1
  H+  H148  1  -0.03525700  0.12906476  0.34810884  1
  H+  H149  1  0.62513704  0.72973302  0.83401559  1
  H+  H150  1  0.08019746  0.84102656  0.13107886  1
  H+  H151  1  0.63454854  0.10364624  0.17062441  1
  H+  H152  1  0.47201681  0.35715448  0.50220006  1
  H+  H153  1  0.22488197  0.37054671  0.16795089  1
  H+  H154  1  0.86655104  0.65350079  0.66929626  1
  H+  H155  1  0.64045936  0.36640226  0.65944641  1
  H+  H156  1  0.87904860  0.98261067  0.83621330  1
  H+  H157  1  0.06906435  0.29562024  0.95753553  1
  H+  H158  1  0.84339456  0.93923186  0.77200094  1
  H+  H159  1  0.77781294  0.15011482  0.68542322  1
  H+  H160  1  0.98011052  0.36755768  0.51880623  1
  H+  H161  1  0.60259905  0.13138047  0.66158895  1
  H+  H162  1  0.34893473  0.70197809  0.34453896  1
  H+  H163  1  0.37659889  0.87708889  0.66532064  1
  H+  H164  1  0.46985634  0.35910796  0.17165078  1
  H+  H165  1  0.39172387  0.23316354  0.35820160  1
  H+  H166  1  0.60173786  0.96047024  0.34824122  1
  H+  H167  1  0.06974887  0.90487692  0.04623724  1
  H+  H168  1  0.02087577  0.37788382  0.67676959  1
  H+  H169  1  0.52220833  0.36825681  0.01860558  1
  H+  H170  1  0.62078993  0.75758058  0.17237869  1
  H+  H171  1  0.70790907  0.84741236  0.17227391  1
  H+  H172  1  0.33921992  0.66584995  0.06107944  1
  H+  H173  1  0.88731057  0.86859523  -0.01529280  1
  H+  H174  1  0.35135903  0.45453131  0.34724336  1
  H+  H175  1  0.37748442  0.10202592  0.83935239  1
  H+  H176  1  0.90070621  0.75435724  1.01092116  1
  H+  H177  1  0.84661944  0.22233326  0.31844595  1
  H+  H178  1  0.31737150  0.65965953  0.63637230  1
  H+  H179  1  0.09037098  0.11820488  0.66698974  1
  H+  H180  1  0.85560672  0.97028499  -0.00158020  1
  H+  H181  1  0.42421796  0.85259129  0.60665536  1
  H+  H182  1  0.85587298  0.47535360  0.32964009  1
  H+  H183  1  0.13162184  0.62490925  0.81999254  1
  H+  H184  1  0.87481999  0.52333954  0.66203050  1
  H+  H185  1  0.10453107  0.38963845  0.82393116  1
  H+  H186  1  0.88539459  0.38661979  0.83024562  1
  H+  H187  1  0.14434283  0.36375373  0.51231636  1
  H+  H188  1  0.13558286  0.95088169  0.34465978  1
  H+  H189  1  0.87624715  0.36207643  0.32852602  1
  H+  H190  1  0.62729876  0.76104945  0.33266731  1
  H+  H191  1  0.60713072  0.63548280  0.34326300  1
  H+  H192  1  0.61079470  0.63376774  0.50378747  1
  H+  H193  1  0.40161503  0.04094226  0.17423840  1
  H+  H194  1  0.61193422  0.36900922  0.34297255  1
  H+  H195  1  0.24323508  0.09257339  0.67074622  1
  H+  H196  1  0.38497603  0.50286036  0.67473147  1
  H+  H197  1  0.63979693  0.01085395  0.83837263  1
  H+  H198  1  0.14903818  0.30083976  0.31629581  1
  H+  H199  1  0.07191341  0.65554847  0.40051462  1
  H+  H200  1  0.52982609  0.39173917  0.67533900  1
  H+  H201  1  0.11586653  0.71229515  0.34101129  1
  H+  H202  1  0.36455337  0.13604104  0.16460952  1
  H+  H203  1  0.63285698  0.10653885  0.99278290  1
  H+  H204  1  0.38944125  0.53252456  0.50862637  1
  H+  H205  1  0.72817632  0.36592496  0.83583740  1
  H+  H206  1  0.54594569  0.64080459  0.00039209  1
  H+  H207  1  0.63740364  0.85461455  0.99304614  1
  H+  H208  1  0.92253269  0.09071959  0.56240546  1
  H+  H209  1  0.72323673  0.10987444  0.98944178  1
  H+  H210  1  0.39217112  0.25193327  0.83376167  1
  H+  H211  1  0.39158252  0.24145592  0.99634750  1
  H+  H212  1  0.02947444  0.14901770  0.14979944  1
  H+  H213  1  0.13926969  0.13784954  0.51023992  1
  H+  H214  1  0.47063326  0.12297548  0.58726593  1
  H+  H215  1  0.40481944  0.13537837  0.53715081  1
  H+  H216  1  0.11902460  0.89626262  0.81426706  1
  H+  H217  1  0.62014816  0.72718135  0.50354597  1
  H+  H218  1  0.52249164  0.37752189  0.34822083  1
  H+  H219  1  0.30504879  0.45529523  0.03453564  1
  H+  H220  1  0.53535072  0.15043988  0.50330164  1
  H+  H221  1  0.63806632  0.36774631  0.16489296  1
  H+  H222  1  0.13679961  0.02371035  0.82917246  1
  H+  H223  1  0.40016177  0.79284079  0.51757677  1
  H+  H224  1  0.10892142  0.48235485  0.82400513  1
  H+  H225  1  0.38568245  0.83763616  0.37817159  1
  H+  H226  1  0.06838122  0.06428498  0.33785591  1
  H+  H227  1  0.61471365  0.63077080  0.83445775  1
  H+  H228  1  0.36199376  0.11576932  0.00887911  1
  H+  H229  1  0.38887798  0.10227068  0.33703799  1
  H+  H230  1  0.97579410  0.37611168  0.98528967  1
  H+  H231  1  0.36128985  0.38603427  0.17552489  1
  H+  H232  1  0.23724311  0.36933716  0.51772456  1
  H+  H233  1  0.11449823  0.49327577  1.01088931  1
  H+  H234  1  0.23664354  0.86828794  0.82654253  1
  H+  H235  1  0.60558402  0.22026137  0.65691863  1
  H+  H236  1  0.10820195  0.12966794  0.81147414  1
  H+  H237  1  0.61167484  0.87609425  0.34715064  1
  H+  H238  1  0.13678925  0.28116572  0.15744032  1
  H+  H239  1  0.66590454  0.33285604  0.22227197  1
  H+  H240  1  0.37099862  0.00540823  0.33248157  1
  H+  H241  1  0.08658785  0.18666842  -0.00481937  1
  H+  H242  1  0.37076827  0.72690504  0.00022556  1
  H+  H243  1  0.13178109  0.29774866  0.41146607  1
  H+  H244  1  0.36990117  0.88601190  0.81977672  1
  H+  H245  1  0.60316778  0.62556873  0.16035349  1
  H+  H246  1  0.76776016  0.10175111  0.84847271  1
  H+  H247  1  0.17859082  0.89389706  0.21123879  1
  H+  H248  1  0.87932163  0.28943871  0.17855549  1
  H+  H249  1  0.71365186  0.60377603  0.52382498  1
  H+  H250  1  0.92741368  0.81558644  0.66457471  1
  H+  H251  1  0.39238167  1.01212655  -0.01383502  1
  H+  H252  1  0.87524568  0.73116168  0.32517399  1
  H+  H253  1  0.59287731  0.22783011  0.80393981  1
  H+  H254  1  0.11458957  0.93872969  0.13816130  1
  H+  H255  1  0.62589914  0.17815119  0.08818740  1
  H+  H256  1  0.97311961  0.62485748  0.16323448  1
  H+  H257  1  0.15088047  0.75689014  0.02914504  1
  H+  H258  1  0.42784434  0.60284796  0.60019463  1
  H+  H259  1  0.72829785  0.85904583  0.99591049  1
  H+  H260  1  0.65964933  0.24091382  0.14530532  1
  H+  H261  1  0.86090760  0.39776322  0.00224719  1
  H+  H262  1  0.11856663  0.25061060  0.65859109  1
  H+  H263  1  0.82739008  0.94742501  0.19627487  1
  H+  H264  1  0.70644840  0.08845663  0.19184562  1
  H+  H265  1  0.88645610  0.27817970  0.67436535  1
  H+  H266  1  0.14088050  0.01779906  0.97962262  1
  H+  H267  1  0.37106943  0.42468009  0.02595361  1
  H+  H268  1  0.06784676  0.98147905  0.45215420  1
  H+  H269  1  0.59610420  0.87096746  0.15683932  1
  H+  H270  1  0.47968953  0.62038003  0.50551883  1
  H+  H271  1  0.10811914  0.11255553  1.00338955  1
  H+  H272  1  0.01760333  0.63112919  0.49358952  1
  H+  H273  1  0.40936544  0.63782174  0.98344371  1
  H+  H274  1  0.10759212  0.63359225  0.48327445  1
  H+  H275  1  0.37645936  0.65572206  0.48908183  1
  H+  H276  1  0.23966942  0.62340696  1.00019340  1
  H+  H277  1  0.52688580  0.87520447  0.81916950  1
  H+  H278  1  0.60187393  0.13541751  0.34385835  1
  H+  H279  1  0.18473592  0.07165418  0.57492221  1
  H+  H280  1  -0.00955883  0.11429493  0.50854878  1
  H+  H281  1  0.86488316  0.15068581  0.67947656  1
  H+  H282  1  0.36966456  0.97581929  0.82513302  1
  H+  H283  1  0.28133453  0.63776962  0.79761580  1
  H+  H284  1  -0.02889583  0.12116478  0.65558181  1
  H+  H285  1  0.11380816  0.46210107  0.67646498  1
  H+  H286  1  0.41119664  0.57403057  0.27778889  1
  H+  H287  1  0.63254926  0.35379529  -0.00377480  1
  H+  H288  1  0.86306570  0.48609660  0.82182875  1
  H+  H289  1  0.87450276  0.42568926  0.45387027  1
  H+  H290  1  0.16086459  0.32444015  0.60051336  1
  H+  H291  1  0.85162749  0.68735981  0.09847944  1
  H+  H292  1  0.34415330  0.61037887  0.33388961  1
  H+  H293  1  0.34698941  0.67333182  0.74295124  1
  H+  H294  1  0.35712554  0.16381153  0.46878596  1
  H+  H295  1  0.59436554  0.91377636  0.44621291  1
  H+  H296  1  0.91275768  0.89333449  0.66147789  1
  H+  H297  1  0.35064996  0.43936775  0.12210504  1
  H+  H298  1  0.91246642  0.34409335  0.26797255  1
  H+  H299  1  0.46943781  0.11288689  0.83166800  1
  H+  H300  1  0.14194987  0.13037692  0.17990982  1
  H+  H301  1  0.33924868  0.92311521  0.72925880  1
  H+  H302  1  0.61227348  0.22130878  0.99748289  1
  H+  H303  1  0.91916911  0.33672058  0.61319845  1
  H+  H304  1  0.43025284  0.60472186  0.88715022  1
  H+  H305  1  0.65753021  0.58962509  0.26235153  1
  H+  H306  1  0.65590276  0.81744816  0.27143901  1
  H+  H307  1  0.66067337  0.06866613  0.89766233  1
  H+  H308  1  0.58270390  0.90748273  0.05977062  1
  H+  H309  1  0.42896093  0.30569619  0.89505318  1
  H+  H310  1  0.22273792  0.60140930  0.33018739  1
  H+  H311  1  0.41923296  0.84276264  0.25019276  1
  H+  H312  1  0.34845593  0.86083468  0.04955548  1
  H+  H313  1  0.91407586  0.83791608  0.92214486  1
  H+  H314  1  0.76701688  0.64131419  0.82394917  1
  H+  H315  1  0.08642746  0.15980184  0.09267838  1
  H+  H316  1  0.17913163  0.58629211  0.53907901  1
  H+  H317  1  0.59277822  0.42103800  0.73171399  1
  H+  H318  1  0.83826542  0.68725537  0.72611116  1
  H+  H319  1  0.58011823  0.40398089  0.07839144  1
  H+  H320  1  0.14222107  0.30909098  0.86988952  1
  H+  H321  1  0.82996205  0.42335978  0.06344019  1
  H+  H322  1  0.90126145  0.08906866  0.20560029  1
  H+  H323  1  0.41590610  0.79982669  0.24536320  1
  H+  H324  1  0.63546860  0.50406333  -0.00294989  1
  H+  H325  1  0.66588834  0.33140309  0.89354651  1
  H+  H326  1  0.07880087  0.40327666  0.43362781  1
  H+  H327  1  0.19285803  0.82300662  0.28041364  1
  H+  H328  1  0.14979661  0.84303617  0.33675002  1
  H+  H329  1  0.88664627  0.58121937  0.89544044  1
  H+  H330  1  0.64432222  0.53296081  0.66792893  1
  H+  H331  1  0.35350873  0.34471494  0.82609411  1
  H+  H332  1  0.15544130  0.34447019  0.25157721  1
  H+  H333  1  0.81061587  0.66372342  0.46291824  1
  H+  H334  1  0.67405168  0.82716655  0.90342459  1
  H+  H335  1  0.68451600  0.82940894  0.57777245  1
  H+  H336  1  0.89646113  0.86726858  0.33296086  1
  H+  H337  1  0.19026783  0.60685777  0.86339275  1
  H+  H338  1  0.26891105  0.63683990  0.15417092  1
  H+  H339  1  0.58057719  0.66330587  0.40614522  1
  H+  H340  1  0.64738269  0.03141803  0.51331481  1
  H+  H341  1  0.14183299  0.21905931  0.42280468  1
  H+  H342  1  0.83762848  0.92790365  0.06437683  1
  H+  H343  1  0.77276729  0.39987027  0.15784232  1
  H+  H344  1  0.77839321  0.18125707  0.12670289  1
  H+  H345  1  0.16627030  0.62522227  0.63439174  1
  H+  H346  1  0.23041976  0.10494554  0.98674938  1
  H+  H347  1  0.07132122  0.42704313  0.10423039  1
  H+  H348  1  0.91959830  0.83768088  0.23701775  1
  H+  H349  1  0.83857215  -0.02225155  0.29972218  1
  H+  H350  1  0.41625813  0.07561377  0.92914040  1
  H+  H351  1  0.65018878  0.57286080  0.57789197  1
  H+  H352  1  0.16042966  0.61058027  0.95771293  1
  H+  H353  1  0.58865398  0.40655767  0.41248810  1
  H+  H354  1  0.17877584  0.84868455  0.88543529  1
  H+  H355  1  0.07047184  0.15531590  0.72672885  1
  H+  H356  1  -0.01979347  0.07686579  -0.04164913  1
  H+  H357  1  0.67427344  0.08993681  0.60602732  1
  H+  H358  1  0.33466183  0.41765177  0.44786208  1
  H+  H359  1  0.37128505  0.72212977  0.44077699  1
  H+  H360  1  0.38982179  0.76767033  0.82053206  1
  H+  H361  1  0.05962613  0.66619608  0.77442797  1
  H+  H362  1  0.33050977  0.94182065  0.10337296  1
  H+  H363  1  1.01072298  0.38235101  0.34052306  1
  H+  H364  1  0.80830983  0.41918902  0.38887110  1
  H+  H365  1  0.91316887  0.58158200  0.60254114  1
  H+  H366  1  0.26903704  0.04074008  0.30907742  1
  H+  H367  1  0.61578406  0.47196849  0.49628089  1
  H+  H368  1  0.10489106  0.69394130  0.11873268  1
  H+  H369  1  0.97530519  0.59754776  0.32179953  1
  H+  H370  1  0.63298935  0.06013930  0.27401285  1
  H+  H371  1  0.57929165  0.65807579  0.10034144  1
  H+  H372  1  0.83474837  0.42349638  0.76161008  1
  H+  H373  1  0.40829223  0.08472211  0.23645975  1
  H+  H374  1  0.85365753  0.13867171  0.80644066  1
  H+  H375  1  0.58468816  0.17550762  0.40252743  1
  H+  H376  1  0.42149532  0.82065106  0.88315984  1
  H+  H377  1  0.16776945  0.08448714  0.88863574  1
  H+  H378  1  0.84989906  0.65569707  0.37168448  1
  H+  H379  1  0.91165588  0.35037229  0.89422016  1
  H+  H380  1  0.86018669  0.17148532  0.04033318  1
  H+  H381  1  0.61119265  0.92023620  0.73344345  1
  H+  H382  1  0.87551530  0.62457815  0.15804646  1
  H+  H383  1  0.35960725  0.09864262  0.63376674  1
  O2-  O384  1  0.09027991  0.17286730  0.13726547  1
  O2-  O385  1  0.10549399  0.16495689  0.49421353  1
  O2-  O386  1  0.07257852  0.15302778  0.79441563  1
  O2-  O387  1  0.07403907  0.42410070  0.14892848  1
  O2-  O388  1  0.08961035  0.41080795  0.47835679  1
  O2-  O389  1  0.07486066  0.42127371  0.83662416  1
  O2-  O390  1  0.07524141  0.67713254  0.15966764  1
  O2-  O391  1  0.07558170  0.66320015  0.47257506  1
  O2-  O392  1  0.07206033  0.66922423  0.82064454  1
  O2-  O393  1  0.06348610  0.88488968  0.12711807  1
  O2-  O394  1  0.08958356  0.94994584  0.47513522  1
  O2-  O395  1  0.08886295  0.92817188  0.80513077  1
  O2-  O396  1  0.33105727  0.16197297  0.14491285  1
  O2-  O397  1  0.34975249  0.16635494  0.51276816  1
  O2-  O398  1  0.32985468  0.15547023  0.80896018  1
  O2-  O399  1  0.33439090  0.42206948  0.16467703  1
  O2-  O400  1  0.33542602  0.42111047  0.49291784  1
  O2-  O401  1  0.31149210  0.35374919  0.80180646  1
  O2-  O402  1  0.32895426  0.66336321  0.13619864  1
  O2-  O403  1  0.34743270  0.68965325  0.47934119  1
  O2-  O404  1  0.34343422  0.66707051  0.78903676  1
  O2-  O405  1  0.33798628  0.92955563  0.14563095  1
  O2-  O406  1  0.35307424  0.94086425  0.49500658  1
  O2-  O407  1  0.33834652  0.91620230  0.80790822  1
  O2-  O408  1  0.65898562  0.19038147  0.12666771  1
  O2-  O409  1  0.59257592  0.17735754  0.48250894  1
  O2-  O410  1  0.55260936  0.16892231  0.79088651  1
  O2-  O411  1  0.57815521  0.41112394  0.16186669  1
  O2-  O412  1  0.59416319  0.41411277  0.47728709  1
  O2-  O413  1  0.58807274  0.42008134  0.81141950  1
  O2-  O414  1  0.57341755  0.65730600  0.14546549  1
  O2-  O415  1  0.58698365  0.66861302  0.48567732  1
  O2-  O416  1  0.58962269  0.66759409  0.81913996  1
  O2-  O417  1  0.57136173  0.90356048  0.13679096  1
  O2-  O418  1  0.59459597  0.91881957  0.49136752  1
  O2-  O419  1  0.58980386  0.90743839  0.81069939  1
  O2-  O420  1  0.81531597  0.18210935  0.15980040  1
  O2-  O421  1  0.83658482  0.17598854  0.48659706  1
  O2-  O422  1  0.83361998  0.12421136  0.84827136  1
  O2-  O423  1  0.83451514  0.43321007  0.14220864  1
  O2-  O424  1  0.85024269  0.42525154  0.49333457  1
  O2-  O425  1  0.83775064  0.42476032  0.80820555  1
  O2-  O426  1  0.83063783  0.67027713  0.14254226  1
  O2-  O427  1  0.82517248  0.66380678  0.50546151  1
  O2-  O428  1  0.82696229  0.67417103  0.80849854  1
  O2-  O429  1  0.82770326  0.91974503  0.15701510  1
  O2-  O430  1  0.83573814  0.92696651  0.47683003  1
  O2-  O431  1  0.84199800  0.92789015  0.81612201  1
  O2-  O432  1  0.16854207  0.09976037  0.20091563  1
  O2-  O433  1  0.19197772  0.08743024  0.53077382  1
  O2-  O434  1  0.16760746  0.08613838  0.84364094  1
  O2-  O435  1  0.16098541  0.34097854  0.17288490  1
  O2-  O436  1  0.17457632  0.33561049  0.53116042  1
  O2-  O437  1  0.15189977  0.32446357  0.82658789  1
  O2-  O438  1  0.17452170  0.59438554  0.18416496  1
  O2-  O439  1  0.17862250  0.58774243  0.49490779  1
  O2-  O440  1  0.16744554  0.59512257  0.82231413  1
  O2-  O441  1  0.18764168  0.84661965  0.20017483  1
  O2-  O442  1  0.19663549  0.80858177  0.54286636  1
  O2-  O443  1  0.17513228  0.84104888  0.84115011  1
  O2-  O444  1  0.42023943  0.09755972  0.19241308  1
  O2-  O445  1  0.44162165  0.10526252  0.54773920  1
  O2-  O446  1  0.41320831  0.07755904  0.85476257  1
  O2-  O447  1  0.40959356  0.32906072  0.18942012  1
  O2-  O448  1  0.40992458  0.33171488  0.50674213  1
  O2-  O449  1  0.42424643  0.31252729  0.85094423  1
  O2-  O450  1  0.41500696  0.59216038  0.19813499  1
  O2-  O451  1  0.41831079  0.59523352  0.51813081  1
  O2-  O452  1  0.43526366  0.60140613  0.84231454  1
  O2-  O453  1  0.40000490  0.83181343  0.11296568  1
  O2-  O454  1  0.43298846  0.85316934  0.53197251  1
  O2-  O455  1  0.41999867  0.82684048  0.83838416  1
  O2-  O456  1  0.64332061  0.06017837  0.19366997  1
  O2-  O457  1  0.67390412  0.09243493  0.52571538  1
  O2-  O458  1  0.67394868  0.07071574  0.85394287  1
  O2-  O459  1  0.67476185  0.34094924  0.17780680  1
  O2-  O460  1  0.68243509  0.34416877  0.52047809  1
  O2-  O461  1  0.66713339  0.33633106  0.84852453  1
  O2-  O462  1  0.65531382  0.57676507  0.18160165  1
  O2-  O463  1  0.65119531  0.57062131  0.53162235  1
  O2-  O464  1  0.66003472  0.57942596  0.85414255  1
  O2-  O465  1  0.64875430  0.81832456  0.18840047  1
  O2-  O466  1  0.67843467  0.83475122  0.53384383  1
  O2-  O467  1  0.67346865  0.82488020  0.85768647  1
  O2-  O468  1  0.91540474  0.10455121  0.16225990  1
  O2-  O469  1  0.92795310  0.08782399  0.51721695  1
  O2-  O470  1  0.93505598  0.04066039  0.92822905  1
  O2-  O471  1  0.91161665  0.35103378  0.19090103  1
  O2-  O472  1  0.92238667  0.33999114  0.53723412  1
  O2-  O473  1  0.91665206  0.35416413  0.84832287  1
  O2-  O474  1  0.90834452  0.59154534  0.16991175  1
  O2-  O475  1  0.92276542  0.57918423  0.52604375  1
  O2-  O476  1  0.90310264  0.58516758  0.85178704  1
  O2-  O477  1  0.90971399  0.83306390  0.19207723  1
  O2-  O478  1  0.92407923  0.83757009  0.49729832  1
  O2-  O479  1  0.91922886  0.83613499  0.84958765  1
  O2-  O480  1  0.21700104  0.04536233  0.31989618  1
  O2-  O481  1  0.18058276  0.03395004  0.64559550  1
  O2-  O482  1  0.17103567  0.08047577  0.97040536  1
  O2-  O483  1  0.16048936  0.35439816  0.29619592  1
  O2-  O484  1  0.14939994  0.31536683  0.64651206  1
  O2-  O485  1  0.11217088  0.27900241  0.94971042  1
  O2-  O486  1  0.15403248  0.56988114  0.32704874  1
  O2-  O487  1  0.16354276  0.59506959  0.67181739  1
  O2-  O488  1  0.17413987  0.59731256  0.99757907  1
  O2-  O489  1  0.18451333  0.81585005  0.32492071  1
  O2-  O490  1  0.18778948  0.87943651  0.64887277  1
  O2-  O491  1  0.14137588  0.81571754  0.96908924  1
  O2-  O492  1  0.36834442  0.05181894  0.30931692  1
  O2-  O493  1  0.36776064  0.11208481  0.67723060  1
  O2-  O494  1  0.41700505  0.07292316  0.97541111  1
  O2-  O495  1  0.42786965  0.33301196  0.31938174  1
  O2-  O496  1  0.42630506  0.34195111  0.66158391  1
  O2-  O497  1  0.42547169  0.30223799  0.97894355  1
  O2-  O498  1  0.40538454  0.56178491  0.32232550  1
  O2-  O499  1  0.43472829  0.60682984  0.64513614  1
  O2-  O500  1  0.44317948  0.61276022  0.96577219  1
  O2-  O501  1  0.40802409  0.79688067  0.38076238  1
  O2-  O502  1  0.41228408  0.84473582  0.65147206  1
  O2-  O503  1  0.42812773  0.82210725  0.96340741  1
  O2-  O504  1  0.64102286  0.06368174  0.31886977  1
  O2-  O505  1  0.67276098  0.09170198  0.65130342  1
  O2-  O506  1  0.66179220  0.07340200  0.98014668  1
  O2-  O507  1  0.65122374  0.32612261  0.30838208  1
  O2-  O508  1  0.67221812  0.33690614  0.64539486  1
  O2-  O509  1  0.66206587  0.32638565  0.97550456  1
  O2-  O510  1  0.66193498  0.59700556  0.30721223  1
  O2-  O511  1  0.66963094  0.59147895  0.64970172  1
  O2-  O512  1  0.67201799  0.56024002  0.97631538  1
  O2-  O513  1  0.66229487  0.82154626  0.31643171  1
  O2-  O514  1  0.75448941  0.87427736  0.66629978  1
  O2-  O515  1  0.66902236  0.82477907  0.97936598  1
  O2-  O516  1  0.83262134  0.00684262  0.26236547  1
  O2-  O517  1  0.91165133  0.09793130  0.63872378  1
  O2-  O518  1  0.86825186  0.06391339  0.93787972  1
  O2-  O519  1  0.90930099  0.33514279  0.31309945  1
  O2-  O520  1  0.91948791  0.33956040  0.65888112  1
  O2-  O521  1  0.91664783  0.34690011  0.96862724  1
  O2-  O522  1  0.91738392  0.56545419  0.30288725  1
  O2-  O523  1  0.90452260  0.58399886  0.64746627  1
  O2-  O524  1  0.83419993  0.56538218  0.96616620  1
  O2-  O525  1  0.92777164  0.83899264  0.31558190  1
  O2-  O526  1  0.95563486  0.87638573  0.65222224  1
  O2-  O527  1  0.91917158  0.84134485  0.96821647  1
  O2-  O528  1  0.06648932  0.13159745  0.01646707  1
  O2-  O529  1  0.15603114  0.26570510  0.39252217  1
  O2-  O530  1  0.07135085  0.15934069  0.67931891  1
  O2-  O531  1  0.08007042  0.43018382  0.02102540  1
  O2-  O532  1  0.07175106  0.41065194  0.35545402  1
  O2-  O533  1  0.08374555  0.40069611  0.68632346  1
  O2-  O534  1  0.16977542  0.73030724  0.06058643  1
  O2-  O535  1  0.07715271  0.65162452  0.35462681  1
  O2-  O536  1  0.05375140  0.65965444  0.70602179  1
  O2-  O537  1  0.07765612  0.91170392  0.00180468  1
  O2-  O538  1  0.09293332  0.89224099  0.36034129  1
  O2-  O539  1  0.10453539  1.02687267  0.67631646  1
  O2-  O540  1  0.33211679  0.14760439  0.02207242  1
  O2-  O541  1  0.37140150  0.17678555  0.37832064  1
  O2-  O542  1  0.31348421  0.15094657  0.68799595  1
  O2-  O543  1  0.36434642  0.47097696  0.04280813  1
  O2-  O544  1  0.33491948  0.39848305  0.36723145  1
  O2-  O545  1  0.35469107  0.44175137  0.68817723  1
  O2-  O546  1  0.33840464  0.66582484  0.01509680  1
  O2-  O547  1  0.31198156  0.64202139  0.32954489  1
  O2-  O548  1  0.34560420  0.69019471  0.67338075  1
  O2-  O549  1  0.33664750  0.89219071  0.01716000  1
  O2-  O550  1  0.34864980  0.91262270  0.37477834  1
  O2-  O551  1  0.34096598  0.92292099  0.68412281  1
  O2-  O552  1  0.58560205  0.16172295  0.01447428  1
  O2-  O553  1  0.58173790  0.17492879  0.35728162  1
  O2-  O554  1  0.56582807  0.15844807  0.66458097  1
  O2-  O555  1  0.58213875  0.40390588  0.03341167  1
  O2-  O556  1  0.58352017  0.40112076  0.36411567  1
  O2-  O557  1  0.59286687  0.42301465  0.68651303  1
  O2-  O558  1  0.60154137  0.66162380  0.02163447  1
  O2-  O559  1  0.57376320  0.66170748  0.36102995  1
  O2-  O560  1  0.61257914  0.71564408  0.66128857  1
  O2-  O561  1  0.58520270  0.90748413  0.01428814  1
  O2-  O562  1  0.58124966  0.90289128  0.36733238  1
  O2-  O563  1  0.62595522  0.93087790  0.68961155  1
  O2-  O564  1  0.84680685  0.17849207  -0.00137571  1
  O2-  O565  1  0.81521444  0.15843765  0.31523771  1
  O2-  O566  1  0.83792725  0.17942901  0.70136996  1
  O2-  O567  1  0.82520112  0.42117754  0.01814840  1
  O2-  O568  1  0.81729890  0.41372451  0.34568676  1
  O2-  O569  1  0.83182909  0.41939315  0.69030077  1
  O2-  O570  1  0.90121846  0.70974639  0.03737363  1
  O2-  O571  1  0.84341069  0.66697676  0.32937510  1
  O2-  O572  1  0.84204825  0.69035896  0.68113751  1
  O2-  O573  1  0.83252401  0.91566077  0.02059696  1
  O2-  O574  1  0.82861472  0.90540757  0.35349516  1
  O2-  O575  1  0.83181739  0.92720699  0.68472970  1
