# generated using pymatgen
data_H2O
_symmetry_space_group_name_H-M   'P 1'
_cell_length_a   17.99386132
_cell_length_b   17.99348864
_cell_length_c   22.01169302
_cell_angle_alpha   90.02018110
_cell_angle_beta   90.02064678
_cell_angle_gamma   120.04451838
_symmetry_Int_Tables_number   1
_chemical_formula_structural   H2O
_chemical_formula_sum   'H384 O192'
_cell_volume   6169.19806818
_cell_formula_units_Z   192
loop_
 _symmetry_equiv_pos_site_id
 _symmetry_equiv_pos_as_xyz
  1  'x, y, z'
loop_
 _atom_type_symbol
 _atom_type_oxidation_number
  H+  1.0
  O2-  -2.0
loop_
 _atom_site_type_symbol
 _atom_site_label
 _atom_site_symmetry_multiplicity
 _atom_site_fract_x
 _atom_site_fract_y
 _atom_site_fract_z
 _atom_site_occupancy
  H+  H0  1  0.67281896  0.35408490  0.25125172  1
  H+  H1  1  0.86421130  0.37397328  0.14026357  1
  H+  H2  1  0.36989412  0.39456691  0.13206884  1
  H+  H3  1  0.36059439  0.42957121  0.40641958  1
  H+  H4  1  0.63672255  0.77213367  0.31998042  1
  H+  H5  1  0.71498618  0.67977308  0.95607757  1
  H+  H6  1  0.13995635  1.02548865  -0.02451095  1
  H+  H7  1  0.12226725  0.09184394  0.50812127  1
  H+  H8  1  0.86070062  0.88670249  0.34521339  1
  H+  H9  1  0.59057784  0.19265212  0.50940791  1
  H+  H10  1  0.36236662  0.48564119  0.67224833  1
  H+  H11  1  0.80074695  0.65786268  0.01534786  1
  H+  H12  1  0.10954355  0.23105271  -0.00159911  1
  H+  H13  1  0.62752959  0.24247834  0.67205337  1
  H+  H14  1  0.15613683  0.66731366  0.15056563  1
  H+  H15  1  0.91234086  0.04165553  0.83121939  1
  H+  H16  1  0.85716510  0.62087267  0.82153844  1
  H+  H17  1  0.27043042  0.63973580  0.33689244  1
  H+  H18  1  0.35774014  0.63436574  0.33810163  1
  H+  H19  1  0.89613255  0.60955881  0.99281440  1
  H+  H20  1  0.60958773  0.64105543  0.80360667  1
  H+  H21  1  0.61356753  0.00225017  0.17066109  1
  H+  H22  1  0.86317105  0.22532741  0.33960240  1
  H+  H23  1  0.46729890  0.11661052  0.99054336  1
  H+  H24  1  0.61292374  0.63470080  0.31971140  1
  H+  H25  1  0.12630340  0.22822104  0.14229024  1
  H+  H26  1  0.24090355  0.87457768  0.52178360  1
  H+  H27  1  0.51475634  0.48839815  0.72485258  1
  H+  H28  1  0.62444266  0.52556710  0.29229957  1
  H+  H29  1  0.62223492  0.77035824  0.16958358  1
  H+  H30  1  0.27029712  0.15143049  0.50499540  1
  H+  H31  1  0.48734872  0.12914265  0.14463476  1
  H+  H32  1  0.13726693  0.40848186  0.47552551  1
  H+  H33  1  0.67546096  0.46923847  0.09703581  1
  H+  H34  1  0.16147288  0.79746284  0.16603742  1
  H+  H35  1  0.88401260  0.10622574  0.98764774  1
  H+  H36  1  0.88717056  0.77482329  0.17448792  1
  H+  H37  1  0.35845408  -0.04056554  0.36306750  1
  H+  H38  1  0.51353007  0.11794072  0.67574566  1
  H+  H39  1  0.89623813  0.33406853  0.57006216  1
  H+  H40  1  0.71345971  0.83897052  0.83279237  1
  H+  H41  1  0.52426441  0.63576838  0.33187363  1
  H+  H42  1  0.54393526  0.61413078  0.07228351  1
  H+  H43  1  0.36383312  0.21093759  0.35317127  1
  H+  H44  1  0.14623559  0.77570176  0.98174143  1
  H+  H45  1  0.78065630  0.64979088  0.67729375  1
  H+  H46  1  0.96858591  0.37378418  0.33277247  1
  H+  H47  1  0.34723470  0.64942035  0.49529578  1
  H+  H48  1  0.12937098  0.16711786  0.81765351  1
  H+  H49  1  1.02025169  0.64672371  0.33939670  1
  H+  H50  1  0.76253253  0.12300802  0.67083354  1
  H+  H51  1  0.10435720  0.19929515  0.35782256  1
  H+  H52  1  0.67875189  0.21919531  0.13260155  1
  H+  H53  1  0.63517374  0.54852523  0.67567549  1
  H+  H54  1  0.37761301  0.76957231  0.32372078  1
  H+  H55  1  0.57421089  0.90465195  0.76123649  1
  H+  H56  1  0.48485209  0.37530484  0.12318855  1
  H+  H57  1  0.80054869  0.12796048  0.09074237  1
  H+  H58  1  0.15032153  0.86926817  0.51289307  1
  H+  H59  1  0.38166004  0.86818226  0.16936683  1
  H+  H60  1  0.84024016  0.20292168  1.00334081  1
  H+  H61  1  0.63020318  0.01589098  0.83199452  1
  H+  H62  1  0.74968876  0.58966382  0.52470991  1
  H+  H63  1  0.59988876  0.95113875  0.66753216  1
  H+  H64  1  0.38237294  0.90504269  0.00943717  1
  H+  H65  1  0.84401929  0.83683233  0.82077786  1
  H+  H66  1  0.76696792  0.37444218  0.82541022  1
  H+  H67  1  0.85202371  0.12455751  0.67310621  1
  H+  H68  1  0.10608465  0.39532803  0.82601824  1
  H+  H69  1  0.74972899  0.51756549  0.56485401  1
  H+  H70  1  0.61415028  0.09053749  0.17885133  1
  H+  H71  1  0.17179480  0.60540863  0.23029235  1
  H+  H72  1  0.87683885  0.26280748  0.66124589  1
  H+  H73  1  0.36491942  0.72879899  0.15888972  1
  H+  H74  1  0.65264398  0.55029186  0.16146580  1
  H+  H75  1  0.39358665  0.79973699  0.48474392  1
  H+  H76  1  0.02750091  0.88157968  0.34864721  1
  H+  H77  1  0.12037084  0.13405229  0.14310107  1
  H+  H78  1  0.85277871  -0.01301826  0.16718961  1
  H+  H79  1  0.39374884  0.34963939  0.34422133  1
  H+  H80  1  0.63420113  0.85837605  0.82976462  1
  H+  H81  1  0.59287634  0.85680992  0.67410480  1
  H+  H82  1  0.38832697  0.66333295  -0.00084377  1
  H+  H83  1  0.72817325  0.36359079  -0.01375974  1
  H+  H84  1  0.60533742  0.16625309  0.42392119  1
  H+  H85  1  0.27223117  0.13539192  0.66887594  1
  H+  H86  1  0.25189331  0.38208114  0.49387722  1
  H+  H87  1  0.24041531  0.36381012  0.15529466  1
  H+  H88  1  0.47828849  0.34562512  0.35379290  1
  H+  H89  1  0.46175011  0.84076548  0.66058639  1
  H+  H90  1  0.62513964  0.26015330  0.15300817  1
  H+  H91  1  0.96374000  0.84851926  0.84663672  1
  H+  H92  1  0.63460843  -0.02002462  0.36154058  1
  H+  H93  1  0.51953094  0.72596357  0.54331583  1
  H+  H94  1  0.16876080  0.34282380  0.89236408  1
  H+  H95  1  0.88023126  0.51101744  0.83680197  1
  H+  H96  1  0.88185265  0.02128375  0.31740286  1
  H+  H97  1  0.62950539  0.26948188  0.83379034  1
  H+  H98  1  0.36927170  0.88454594  0.83316562  1
  H+  H99  1  0.21598043  0.35001260  0.63910514  1
  H+  H100  1  0.64266085  0.27531131  0.34434089  1
  H+  H101  1  0.90514841  0.30707796  0.07874579  1
  H+  H102  1  0.73671666  0.61126068  0.32391432  1
  H+  H103  1  0.12949087  0.54180568  0.32439525  1
  H+  H104  1  0.89675511  0.52781960  0.16917814  1
  H+  H105  1  0.61961038  0.45050228  0.51934921  1
  H+  H106  1  0.52836167  0.88506552  0.82782320  1
  H+  H107  1  0.22105258  0.36241246  0.98426212  1
  H+  H108  1  0.12125310  0.61344912  0.84691919  1
  H+  H109  1  0.69919997  0.21906012  0.39860390  1
  H+  H110  1  0.86782409  0.85807860  0.64416521  1
  H+  H111  1  0.63895322  0.27377906  -0.01660825  1
  H+  H112  1  0.13230959  0.11155738  -0.01941677  1
  H+  H113  1  0.92669402  0.09215897  0.92879385  1
  H+  H114  1  0.05810126  0.91237290  0.77893635  1
  H+  H115  1  0.09255691  -0.01259487  0.68467255  1
  H+  H116  1  0.14520724  0.01952260  0.51387346  1
  H+  H117  1  0.13397345  0.02584489  0.17006013  1
  H+  H118  1  0.37629361  0.11342457  0.99277134  1
  H+  H119  1  0.02998151  0.63469828  -0.00100648  1
  H+  H120  1  0.61364028  0.11461773  0.50414896  1
  H+  H121  1  0.72529259  0.86197235  0.32054257  1
  H+  H122  1  0.11595218  0.89821050  0.16861675  1
  H+  H123  1  0.38453112  0.62223280  0.66254144  1
  H+  H124  1  0.85581450  0.39446381  0.35048710  1
  H+  H125  1  0.86938826  0.00996889  0.65861386  1
  H+  H126  1  0.23086826  0.14006278  0.82503437  1
  H+  H127  1  0.73461522  0.44186468  0.22179809  1
  H+  H128  1  0.85908031  0.21851996  0.82518278  1
  H+  H129  1  0.12824308  0.89884008  -0.01453736  1
  H+  H130  1  0.63023703  0.35841604  0.34688096  1
  H+  H131  1  0.39888601  0.04118863  0.13787606  1
  H+  H132  1  0.35595249  0.50174971  0.82201644  1
  H+  H133  1  0.38668279  0.52080524  0.32915205  1
  H+  H134  1  0.76197041  0.13660622  0.49608408  1
  H+  H135  1  0.07371671  0.67156843  0.88269421  1
  H+  H136  1  0.87967084  0.75646005  0.84698737  1
  H+  H137  1  0.61565952  0.38603304  0.82142615  1
  H+  H138  1  0.78662756  0.88815823  0.48643343  1
  H+  H139  1  0.38462799  0.52422573  0.16938862  1
  H+  H140  1  0.84593224  0.87582530  0.16452033  1
  H+  H141  1  0.37100132  0.65587667  0.82672998  1
  H+  H142  1  0.61963815  0.33363428  0.52375380  1
  H+  H143  1  0.75260457  0.87351401  0.16503476  1
  H+  H144  1  0.71660797  0.10548722  0.83742358  1
  H+  H145  1  0.46656618  0.86185085  0.17156848  1
  H+  H146  1  0.34948220  0.39022621  0.67688340  1
  H+  H147  1  0.36140409  0.13404734  0.66683809  1
  H+  H148  1  0.37696571  0.84911118  0.66118940  1
  H+  H149  1  0.17415713  0.32648088  0.53889856  1
  H+  H150  1  0.63977190  0.41332097  0.15537354  1
  H+  H151  1  0.74620727  0.86271178  0.66707149  1
  H+  H152  1  0.85379005  0.08539325  0.16369238  1
  H+  H153  1  0.75082677  0.11387065  -0.00305966  1
  H+  H154  1  0.09595305  0.87164649  0.82525050  1
  H+  H155  1  0.87011641  0.75048381  0.35511637  1
  H+  H156  1  -0.03638064  0.35794238  0.66420450  1
  H+  H157  1  0.38283818  0.28215864  0.51408839  1
  H+  H158  1  0.14253691  0.28959795  0.82831122  1
  H+  H159  1  1.01920995  0.36075918  0.13483812  1
  H+  H160  1  0.73245202  0.61398014  0.82105892  1
  H+  H161  1  0.88480357  0.52843956  0.33006353  1
  H+  H162  1  0.47569829  0.36578348  0.83510115  1
  H+  H163  1  0.90845645  0.85199909  0.97979037  1
  H+  H164  1  0.74623936  0.10774735  0.15397962  1
  H+  H165  1  0.69203278  0.82041843  1.01550501  1
  H+  H166  1  0.25594378  0.40375996  0.82458981  1
  H+  H167  1  0.17675126  0.58626825  0.93040427  1
  H+  H168  1  0.60698287  0.00552168  0.98873228  1
  H+  H169  1  0.11903717  0.47955634  -0.00391602  1
  H+  H170  1  0.61080063  0.47227969  0.37496058  1
  H+  H171  1  0.61946947  0.47804785  0.82240405  1
  H+  H172  1  0.13533277  0.76554069  0.83175190  1
  H+  H173  1  1.04388672  0.90037961  1.00687193  1
  H+  H174  1  0.02495623  0.89542860  0.17010483  1
  H+  H175  1  0.36461577  0.23937333  0.81611760  1
  H+  H176  1  0.95802001  0.11019849  0.50780084  1
  H+  H177  1  0.59153380  0.60148923  1.01784036  1
  H+  H178  1  0.78611011  0.58883629  0.37951384  1
  H+  H179  1  0.28383474  0.90901320  0.15714194  1
  H+  H180  1  0.85391616  0.73555673  0.49626358  1
  H+  H181  1  0.59763301  0.87864588  0.15197087  1
  H+  H182  1  0.38327756  1.01211483  0.66372496  1
  H+  H183  1  0.88926551  0.62392269  0.50256883  1
  H+  H184  1  0.85994374  -0.01088769  0.49152239  1
  H+  H185  1  0.73922148  0.34369932  0.67648388  1
  H+  H186  1  0.97830121  0.62765616  0.66606655  1
  H+  H187  1  0.63042373  0.89028907  0.35629939  1
  H+  H188  1  0.78571481  0.64984319  0.16033493  1
  H+  H189  1  -0.11362081  0.36080562  -0.00267646  1
  H+  H190  1  0.21205058  0.60941054  0.65275322  1
  H+  H191  1  0.91072206  0.81770544  0.40725922  1
  H+  H192  1  0.28691534  0.37749235  0.36042989  1
  H+  H193  1  -0.00950961  0.02459006  0.46548878  1
  H+  H194  1  0.46034316  0.08701560  0.34498019  1
  H+  H195  1  0.48712932  0.61704012  -0.01267450  1
  H+  H196  1  0.25853538  0.13389156  -0.00727633  1
  H+  H197  1  0.88198179  0.77754604  0.65026966  1
  H+  H198  1  0.89086827  0.11785799  0.83197634  1
  H+  H199  1  0.88448250  0.53283133  0.50846751  1
  H+  H200  1  0.53139688  0.69159561  0.54197270  1
  H+  H201  1  0.62610738  0.09043051  0.65800015  1
  H+  H202  1  0.59824142  0.13244869  0.83064243  1
  H+  H203  1  0.46341675  0.05841215  0.50655524  1
  H+  H204  1  0.12430347  0.49131401  0.48048205  1
  H+  H205  1  0.10625304  0.63560934  0.68384391  1
  H+  H206  1  0.13685656  0.11862501  0.66237484  1
  H+  H207  1  0.22584946  0.11642793  0.16913944  1
  H+  H208  1  0.22007242  0.62639798  0.50209302  1
  H+  H209  1  0.27868197  0.88196429  0.67464612  1
  H+  H210  1  0.67909866  0.76498767  0.48817381  1
  H+  H211  1  0.78697769  0.38764555  0.16250490  1
  H+  H212  1  0.84797382  0.35937269  0.67498874  1
  H+  H213  1  0.60568107  0.72698979  0.81603802  1
  H+  H214  1  0.10318795  0.48247238  0.82964035  1
  H+  H215  1  0.87277854  0.65331490  0.67102639  1
  H+  H216  1  1.01540330  0.12224075  0.32884296  1
  H+  H217  1  -0.02778979  0.36075335  0.84376412  1
  H+  H218  1  0.29121275  0.53142734  0.54898917  1
  H+  H219  1  0.66038338  0.83975273  0.50973444  1
  H+  H220  1  0.51718955  0.63528070  0.16471415  1
  H+  H221  1  -0.02278856  0.36098318  -0.00420521  1
  H+  H222  1  0.87523290  0.12356504  0.51020637  1
  H+  H223  1  0.64706144  0.11335184  0.33616304  1
  H+  H224  1  0.37512445  0.27218722  0.66415686  1
  H+  H225  1  0.14873756  0.58423076  0.59677875  1
  H+  H226  1  0.47751175  0.62273309  0.82255028  1
  H+  H227  1  0.51692492  0.37628246  0.51512640  1
  H+  H228  1  0.59930098  0.37631549  -0.01349769  1
  H+  H229  1  0.71280457  0.34597125  0.51992098  1
  H+  H230  1  0.37906060  0.09157574  0.36792740  1
  H+  H231  1  0.35265493  0.72474873  0.66707522  1
  H+  H232  1  0.03059866  0.88655774  0.49486989  1
  H+  H233  1  0.64386471  0.03841173  0.48404211  1
  H+  H234  1  1.00204954  0.90210276  0.67654175  1
  H+  H235  1  0.01596869  0.13929704  0.00000404  1
  H+  H236  1  0.38624510  0.40485057  0.50364304  1
  H+  H237  1  0.12820348  0.61792039  0.50118149  1
  H+  H238  1  0.86706610  0.47620502  -0.00158253  1
  H+  H239  1  0.01361808  0.12986602  0.67070779  1
  H+  H240  1  0.41188490  0.06574268  0.60314374  1
  H+  H241  1  0.03864980  0.16639277  0.81943935  1
  H+  H242  1  0.87917051  0.61245348  0.31944675  1
  H+  H243  1  0.83947706  0.66533861  0.76231944  1
  H+  H244  1  0.13248365  0.36389600  0.98349842  1
  H+  H245  1  0.39943346  0.78607775  0.87073216  1
  H+  H246  1  0.49033648  0.87236821  0.49569416  1
  H+  H247  1  0.35872579  0.86566732  0.33565510  1
  H+  H248  1  0.37118406  0.48851220  0.50265439  1
  H+  H249  1  0.85553370  0.37199293  0.82884947  1
  H+  H250  1  0.13694457  0.77717286  0.32461371  1
  H+  H251  1  0.64572801  0.06555916  0.92860461  1
  H+  H252  1  0.35791499  0.19692808  0.20701109  1
  H+  H253  1  0.16431189  0.08340835  0.60535749  1
  H+  H254  1  0.11239895  0.37196959  0.14286203  1
  H+  H255  1  0.29426672  0.65259306  1.00153473  1
  H+  H256  1  0.21109303  0.74332143  0.10526541  1
  H+  H257  1  0.38580664  0.61368718  0.17321983  1
  H+  H258  1  0.51138365  0.14018590  0.82985846  1
  H+  H259  1  0.76735769  0.39445290  0.34875437  1
  H+  H260  1  0.97121564  0.60134921  0.84124966  1
  H+  H261  1  0.36571178  0.27046937  -0.01727956  1
  H+  H262  1  0.16839357  0.10586033  0.88262999  1
  H+  H263  1  0.09042547  0.47371704  0.67178972  1
  H+  H264  1  0.38547366  0.12981195  0.83622088  1
  H+  H265  1  0.15069770  0.61669913  0.98987173  1
  H+  H266  1  0.86674941  0.28008294  0.50907358  1
  H+  H267  1  0.23190557  0.61910780  0.17328270  1
  H+  H268  1  0.58651960  0.84743866  0.98357579  1
  H+  H269  1  0.17187910  0.30862373  0.42861090  1
  H+  H270  1  0.10189381  0.41362528  0.32293464  1
  H+  H271  1  0.59655894  0.62560766  0.47810480  1
  H+  H272  1  0.77703383  0.13383551  0.33707585  1
  H+  H273  1  0.61221618  0.64593665  0.15888717  1
  H+  H274  1  0.14368843  0.77777697  0.67360913  1
  H+  H275  1  0.26533334  0.87446125  0.33992702  1
  H+  H276  1  1.02548398  0.65084216  0.49260982  1
  H+  H277  1  0.42848307  0.80321463  1.01193941  1
  H+  H278  1  0.36511611  0.98373381  0.00299285  1
  H+  H279  1  0.39936366  0.28619036  0.13095496  1
  H+  H280  1  0.87231733  0.64208835  0.16605521  1
  H+  H281  1  0.17199338  0.83099555  0.61230544  1
  H+  H282  1  0.11422133  0.97265633  0.33668074  1
  H+  H283  1  0.27328321  0.12359791  0.34618644  1
  H+  H284  1  0.59660744  0.71125145  0.71561851  1
  H+  H285  1  0.23593156  0.86361892  0.98281454  1
  H+  H286  1  0.13431529  0.25645246  0.63589602  1
  H+  H287  1  0.35902870  0.47462803  0.99082221  1
  H+  H288  1  0.40519706  0.33469090  0.88683861  1
  H+  H289  1  0.08875512  0.41526548  0.05401309  1
  H+  H290  1  0.92845743  0.60567907  0.60272967  1
  H+  H291  1  0.90486984  0.34221808  0.27698605  1
  H+  H292  1  0.34862665  0.01512464  0.25576356  1
  H+  H293  1  0.35510020  0.38420920  -0.00594799  1
  H+  H294  1  0.81435098  0.89063346  0.72064222  1
  H+  H295  1  0.16710775  0.07854907  0.26169478  1
  H+  H296  1  0.84837429  0.39106636  0.50644183  1
  H+  H297  1  0.81808977  0.39146576  0.73703543  1
  H+  H298  1  0.88482807  0.11235149  0.31738587  1
  H+  H299  1  0.66515857  0.33286446  0.89140828  1
  H+  H300  1  0.17789271  0.84538649  0.23079077  1
  H+  H301  1  0.09427162  0.91731387  0.43802711  1
  H+  H302  1  0.07935011  0.66269263  0.74580930  1
  H+  H303  1  0.76907580  0.78240327  0.77431830  1
  H+  H304  1  0.48564533  0.37116745  0.22882261  1
  H+  H305  1  0.79811519  0.67101778  0.44322182  1
  H+  H306  1  0.32305607  0.03751445  0.25385547  1
  H+  H307  1  0.45331610  0.37062390  0.67152247  1
  H+  H308  1  0.91546378  0.57594353  0.92977929  1
  H+  H309  1  0.55881877  0.43541600  0.74328672  1
  H+  H310  1  0.06353582  0.41966056  0.73299203  1
  H+  H311  1  0.08085902  0.67988683  0.39915490  1
  H+  H312  1  0.65705250  0.07142619  0.27377254  1
  H+  H313  1  0.34374947  0.67197011  0.09880680  1
  H+  H314  1  0.68474517  0.57864070  0.61431284  1
  H+  H315  1  0.33564688  0.17410682  0.75895872  1
  H+  H316  1  0.76357825  0.85052058  0.06866732  1
  H+  H317  1  0.82805645  0.16853553  0.43808890  1
  H+  H318  1  0.65820714  0.06818720  0.59610732  1
  H+  H319  1  0.89441826  0.06575819  0.22637870  1
  H+  H320  1  0.14146238  0.33352612  0.36998544  1
  H+  H321  1  0.30633218  0.65066390  0.72158436  1
  H+  H322  1  0.32895442  0.17520929  0.44653005  1
  H+  H323  1  0.65851561  0.30563753  0.61294486  1
  H+  H324  1  0.17876609  0.32759955  0.21347707  1
  H+  H325  1  0.36420408  0.73013317  0.79079653  1
  H+  H326  1  0.55948184  0.90601406  0.09339950  1
  H+  H327  1  0.43449385  0.61006703  0.88835072  1
  H+  H328  1  0.63052937  -0.05256321  0.52529740  1
  H+  H329  1  0.85731497  0.66835538  0.07313519  1
  H+  H330  1  0.86761718  0.24466691  0.13497505  1
  H+  H331  1  0.34297243  0.90777674  0.73123530  1
  H+  H332  1  0.21546726  0.61683257  0.83806102  1
  H+  H333  1  0.48064181  0.63890379  0.65254683  1
  H+  H334  1  0.91218495  0.78173295  0.01863978  1
  H+  H335  1  0.39876553  0.91802787  0.50856699  1
  H+  H336  1  0.72336048  0.72286447  1.01855029  1
  H+  H337  1  0.51380268  0.70694579  0.95966375  1
  H+  H338  1  0.61775944  0.66536720  0.41208141  1
  H+  H339  1  0.41001873  0.57754000  0.26848508  1
  H+  H340  1  0.90244593  0.07664533  0.60337302  1
  H+  H341  1  0.27468330  0.86992037  0.81981139  1
  H+  H342  1  0.67573638  0.60274978  0.22513058  1
  H+  H343  1  0.32115929  0.43639751  0.75868436  1
  H+  H344  1  0.83521646  0.93063422  0.39577473  1
  H+  H345  1  0.13250049  0.09905356  0.32191985  1
  H+  H346  1  0.91348151  0.83762055  0.55825537  1
  H+  H347  1  0.09954189  0.67671808  0.05382858  1
  H+  H348  1  0.91851438  0.58107242  0.23107264  1
  H+  H349  1  0.56975986  0.14761907  0.73737636  1
  H+  H350  1  0.40920317  0.09537104  0.89646655  1
  H+  H351  1  0.11945178  0.73646813  0.49449623  1
  H+  H352  1  0.44991280  0.85902971  0.92000320  1
  H+  H353  1  0.08750602  0.16910228  0.07306331  1
  H+  H354  1  0.61213449  0.91081416  0.45693100  1
  H+  H355  1  0.13812206  0.63373898  0.32687854  1
  H+  H356  1  0.83328654  0.41874362  0.05887833  1
  H+  H357  1  0.60371987  0.13005140  -0.00304450  1
  H+  H358  1  0.31211219  0.16409147  0.05484204  1
  H+  H359  1  0.08164640  0.17829950  0.72461485  1
  H+  H360  1  0.90558976  0.83019783  0.23439633  1
  H+  H361  1  0.40096058  0.83098182  0.26432002  1
  H+  H362  1  0.32944506  0.42921192  0.08629941  1
  H+  H363  1  0.56609920  0.40836348  0.04055355  1
  H+  H364  1  0.58589088  0.17452724  0.05370005  1
  H+  H365  1  0.89387988  0.87772990  0.49920195  1
  H+  H366  1  0.45726008  0.35559790  0.97904222  1
  H+  H367  1  0.04673940  0.10319570  0.42291776  1
  H+  H368  1  0.33702958  0.92487160  0.09452138  1
  H+  H369  1  0.38333293  0.58114455  0.57771436  1
  H+  H370  1  0.14397804  0.86902639  0.32623559  1
  H+  H371  1  0.66580768  0.59104005  0.87571826  1
  H+  H372  1  0.82679015  0.15914750  0.76501773  1
  H+  H373  1  0.91155830  0.32188888  0.90231199  1
  H+  H374  1  0.58393488  0.40586490  0.43019085  1
  H+  H375  1  0.81896389  0.42297491  0.44781442  1
  H+  H376  1  0.17267024  0.83234669  0.88561686  1
  H+  H377  1  0.65347994  0.83162875  0.22940985  1
  H+  H378  1  0.37781289  0.15026821  0.15321122  1
  H+  H379  1  0.32744736  0.67542361  0.43038614  1
  H+  H380  1  0.44730927  0.37727056  0.22829837  1
  H+  H381  1  0.08799531  0.43403131  0.39457378  1
  H+  H382  1  0.41085319  0.33821432  0.57649457  1
  H+  H383  1  0.62850349  0.82112941  0.92695263  1
  O2-  O384  1  0.09339127  0.16800583  0.12525915  1
  O2-  O385  1  0.03424065  0.08538175  0.46677885  1
  O2-  O386  1  0.09719840  0.19897517  0.80197330  1
  O2-  O387  1  0.08075061  0.39895976  0.12621993  1
  O2-  O388  1  0.10618466  0.43634325  0.45808200  1
  O2-  O389  1  0.07005934  0.42081044  0.81502800  1
  O2-  O390  1  0.15407765  0.71372213  0.12355240  1
  O2-  O391  1  0.08477514  0.67831545  0.47532314  1
  O2-  O392  1  0.07296966  0.65435334  0.84051852  1
  O2-  O393  1  0.08583524  0.93035331  0.15860983  1
  O2-  O394  1  0.09236148  0.91545406  0.48323358  1
  O2-  O395  1  0.05805735  0.89654873  0.82234852  1
  O2-  O396  1  0.34522955  0.18163199  0.16417926  1
  O2-  O397  1  0.32964047  0.18955892  0.49000309  1
  O2-  O398  1  0.33274699  0.17674002  0.80412628  1
  O2-  O399  1  0.33430211  0.42357677  0.13123062  1
  O2-  O400  1  0.35929420  0.43481008  0.48148718  1
  O2-  O401  1  0.31883172  0.44101455  0.80557742  1
  O2-  O402  1  0.33994775  0.66839497  0.14409210  1
  O2-  O403  1  0.32458784  0.68331474  0.47522406  1
  O2-  O404  1  0.33634805  0.68526782  0.82131671  1
  O2-  O405  1  0.34304206  0.93227686  0.14001571  1
  O2-  O406  1  0.36126385  0.94139070  0.52765614  1
  O2-  O407  1  0.33413471  0.89405881  0.80364038  1
  O2-  O408  1  0.61967898  0.20685258  0.13711548  1
  O2-  O409  1  0.57010130  0.13680431  0.48877469  1
  O2-  O410  1  0.57332674  0.16607984  0.81341384  1
  O2-  O411  1  0.62594279  0.44461554  0.12425081  1
  O2-  O412  1  0.57764366  0.39504329  0.50006559  1
  O2-  O413  1  0.58414709  0.41685676  0.81006720  1
  O2-  O414  1  0.57469506  0.66889126  0.14459771  1
  O2-  O415  1  0.64381935  0.66621689  0.45273208  1
  O2-  O416  1  0.57712088  0.67053859  0.79297850  1
  O2-  O417  1  0.56667880  0.90942693  0.13954896  1
  O2-  O418  1  0.60008046  0.89441658  0.50141042  1
  O2-  O419  1  0.58482806  0.91150661  0.80661691  1
  O2-  O420  1  0.80536906  0.13259523  0.13649721  1
  O2-  O421  1  0.82613798  0.17231359  0.48272447  1
  O2-  O422  1  0.82935357  0.15778302  0.81070173  1
  O2-  O423  1  0.84056748  0.41397670  0.13899696  1
  O2-  O424  1  0.81765084  0.42389025  0.49277310  1
  O2-  O425  1  0.82805445  0.40311561  0.81044491  1
  O2-  O426  1  0.84815885  0.67805500  0.14926654  1
  O2-  O427  1  0.82316215  0.67343686  0.48320867  1
  O2-  O428  1  0.82817693  0.65322679  0.80736815  1
  O2-  O429  1  0.81427602  0.90499051  0.14917491  1
  O2-  O430  1  0.84789719  0.93457970  0.47081139  1
  O2-  O431  1  0.79738845  0.83901604  0.79332622  1
  O2-  O432  1  0.16458006  0.09098139  0.18025563  1
  O2-  O433  1  0.16467210  0.07935686  0.52752076  1
  O2-  O434  1  0.17057943  0.11966605  0.83884852  1
  O2-  O435  1  0.17785976  0.32613499  0.16925306  1
  O2-  O436  1  0.18767268  0.35074356  0.49630065  1
  O2-  O437  1  0.17145422  0.35068903  0.84705390  1
  O2-  O438  1  0.17265586  0.60348748  0.18524532  1
  O2-  O439  1  0.15947403  0.58851280  0.51613214  1
  O2-  O440  1  0.15819920  0.58126161  0.85577615  1
  O2-  O441  1  0.18060309  0.85429330  0.18591610  1
  O2-  O442  1  0.17818390  0.83647606  0.52700664  1
  O2-  O443  1  0.16906452  0.82877811  0.84041622  1
  O2-  O444  1  0.42822168  0.10485650  0.13084888  1
  O2-  O445  1  0.40279779  0.03492127  0.52157909  1
  O2-  O446  1  0.41845970  0.10283426  0.85212791  1
  O2-  O447  1  0.42390468  0.34442685  0.11307975  1
  O2-  O448  1  0.42014871  0.34322940  0.53132165  1
  O2-  O449  1  0.41307835  0.33805360  0.84210052  1
  O2-  O450  1  0.41368271  0.58141593  0.18971784  1
  O2-  O451  1  0.35159935  0.56453174  0.53749141  1
  O2-  O452  1  0.42017448  0.59865434  0.84365749  1
  O2-  O453  1  0.40591361  0.83319252  0.18651940  1
  O2-  O454  1  0.43303782  0.86266256  0.48378376  1
  O2-  O455  1  0.43892240  0.84812356  0.87551490  1
  O2-  O456  1  0.64655341  0.06214700  0.18959882  1
  O2-  O457  1  0.66789257  0.08142524  0.51627325  1
  O2-  O458  1  0.65572345  0.07435758  0.85093810  1
  O2-  O459  1  0.69355311  0.38261511  0.21013422  1
  O2-  O460  1  0.65425769  0.30688262  0.53662824  1
  O2-  O461  1  0.66447290  0.33194902  0.84597847  1
  O2-  O462  1  0.68065296  0.60911971  0.17796616  1
  O2-  O463  1  0.71172946  0.53731783  0.54936435  1
  O2-  O464  1  0.66804635  0.58909590  0.83163960  1
  O2-  O465  1  0.65370926  0.83214337  0.18361653  1
  O2-  O466  1  0.70380085  0.82112030  0.50967671  1
  O2-  O467  1  0.65506976  0.82147881  0.84922331  1
  O2-  O468  1  0.88545104  0.05597139  0.18044469  1
  O2-  O469  1  0.90077765  0.08829314  0.52619211  1
  O2-  O470  1  0.93130485  0.09849826  0.84804751  1
  O2-  O471  1  0.90236345  0.30666029  0.12377687  1
  O2-  O472  1  0.89160850  0.33927842  0.52540327  1
  O2-  O473  1  0.91072797  0.32304432  0.85755240  1
  O2-  O474  1  0.91599870  0.58519692  0.18621602  1
  O2-  O475  1  0.92023263  0.59560931  0.51840610  1
  O2-  O476  1  0.90677718  0.57106732  0.85209795  1
  O2-  O477  1  0.90744393  0.83524570  0.19030214  1
  O2-  O478  1  0.91768389  0.84008074  0.51157117  1
  O2-  O479  1  0.90062855  0.81638602  0.86022182  1
  O2-  O480  1  0.16631701  0.07257326  0.30676636  1
  O2-  O481  1  0.16817562  0.08801014  0.65055699  1
  O2-  O482  1  0.16744418  0.08933178  0.96264921  1
  O2-  O483  1  0.16954767  0.30178306  0.38269811  1
  O2-  O484  1  0.17242976  0.30839642  0.61143817  1
  O2-  O485  1  0.16034161  0.33002774  0.96930442  1
  O2-  O486  1  0.16710906  0.60227030  0.31136963  1
  O2-  O487  1  0.15002935  0.58276346  0.64208276  1
  O2-  O488  1  0.18276296  0.58774341  0.97617058  1
  O2-  O489  1  0.17321826  0.83819904  0.30993940  1
  O2-  O490  1  0.17868508  0.83633862  0.65684076  1
  O2-  O491  1  0.17744548  0.83495765  0.96485511  1
  O2-  O492  1  0.40997002  0.05809851  0.37078298  1
  O2-  O493  1  0.41251882  0.07328868  0.64776170  1
  O2-  O494  1  0.40614429  0.08268502  0.97812319  1
  O2-  O495  1  0.42029679  0.31382679  0.33588018  1
  O2-  O496  1  0.39629378  0.33374506  0.65211202  1
  O2-  O497  1  0.39525906  0.33078023  0.96745654  1
  O2-  O498  1  0.41232085  0.58091621  0.31388160  1
  O2-  O499  1  0.41883450  0.59526242  0.64762696  1
  O2-  O500  1  0.46368589  0.64649671  0.96012089  1
  O2-  O501  1  0.40065555  0.83029645  0.30980478  1
  O2-  O502  1  0.39999234  0.81043221  0.64822483  1
  O2-  O503  1  0.45652334  0.86448334  0.99875933  1
  O2-  O504  1  0.67047796  0.07882442  0.31775477  1
  O2-  O505  1  0.65779854  0.06266334  0.64145583  1
  O2-  O506  1  0.64506876  0.06676311  0.97425551  1
  O2-  O507  1  0.66002292  0.33198440  0.32476667  1
  O2-  O508  1  0.66195203  0.30511448  0.65857384  1
  O2-  O509  1  0.66832267  0.33491332  0.96987241  1
  O2-  O510  1  0.66330126  0.58737003  0.29289419  1
  O2-  O511  1  0.68044556  0.59985076  0.65479216  1
  O2-  O512  1  0.70923245  0.66535326  0.99909264  1
  O2-  O513  1  0.66491461  0.83352290  0.30601610  1
  O2-  O514  1  0.63998520  0.80812455  0.65802869  1
  O2-  O515  1  0.60514323  0.80584766  0.96891348  1
  O2-  O516  1  0.91121941  0.08000947  0.29828680  1
  O2-  O517  1  0.90342531  0.07247013  0.64866131  1
  O2-  O518  1  0.92645017  0.09014418  0.97391554  1
  O2-  O519  1  0.90572906  0.33842979  0.32114081  1
  O2-  O520  1  0.90170582  0.32395413  0.64854076  1
  O2-  O521  1  0.91282103  0.32333332  0.99258458  1
  O2-  O522  1  0.91585204  0.58672720  0.31089079  1
  O2-  O523  1  0.92062351  0.60433592  0.64714964  1
  O2-  O524  1  0.92236377  0.57646064  0.97523360  1
  O2-  O525  1  0.90687769  0.81325043  0.36290901  1
  O2-  O526  1  0.90465244  0.83457487  0.62934379  1
  O2-  O527  1  0.93402997  0.84445358  1.01667099  1
  O2-  O528  1  0.07939363  0.17071498  0.01553710  1
  O2-  O529  1  0.06913641  0.13593114  0.35117024  1
  O2-  O530  1  0.07599071  0.16560388  0.68009166  1
  O2-  O531  1  0.08521142  0.41733445  0.00794171  1
  O2-  O532  1  0.07071404  0.43353916  0.34793166  1
  O2-  O533  1  0.05900829  0.41444577  0.68812293  1
  O2-  O534  1  0.09254653  0.66870895  0.00900464  1
  O2-  O535  1  0.08117963  0.67955974  0.35338368  1
  O2-  O536  1  0.07972862  0.66807474  0.70141720  1
  O2-  O537  1  0.10732553  0.93630392  0.00162844  1
  O2-  O538  1  0.08967399  0.91494970  0.35710602  1
  O2-  O539  1  0.04549240  0.93867725  0.70674190  1
  O2-  O540  1  0.31936596  0.16552995  0.01096913  1
  O2-  O541  1  0.32933332  0.14936559  0.36727166  1
  O2-  O542  1  0.33470296  0.16812323  0.68071668  1
  O2-  O543  1  0.32568924  0.41752984  0.00851587  1
  O2-  O544  1  0.34944100  0.41787259  0.36164052  1
  O2-  O545  1  0.32524923  0.42748218  0.68995808  1
  O2-  O546  1  0.35311504  0.68498277  0.01945998  1
  O2-  O547  1  0.33078712  0.66813883  0.35249025  1
  O2-  O548  1  0.31817160  0.65690536  0.67809812  1
  O2-  O549  1  0.33993115  0.92303720  0.01892944  1
  O2-  O550  1  0.32362001  0.89351374  0.35939323  1
  O2-  O551  1  0.34210620  0.91193587  0.68549069  1
  O2-  O552  1  0.58040203  0.16834207  0.00931329  1
  O2-  O553  1  0.64014373  0.19086199  0.38373301  1
  O2-  O554  1  0.57386853  0.14442421  0.69197583  1
  O2-  O555  1  0.56267573  0.40156965  -0.00349920  1
  O2-  O556  1  0.58784663  0.41150838  0.38368293  1
  O2-  O557  1  0.54036258  0.45685293  0.70694376  1
  O2-  O558  1  0.53306778  0.58247163  0.03321876  1
  O2-  O559  1  0.58719121  0.66715430  0.34042749  1
  O2-  O560  1  0.59231039  0.71577220  0.67085543  1
  O2-  O561  1  0.54869968  0.90431679  0.01844628  1
  O2-  O562  1  0.61956481  0.92700506  0.38417724  1
  O2-  O563  1  0.56554840  0.89349046  0.68648049  1
  O2-  O564  1  0.81009005  0.14167284  0.01519236  1
  O2-  O565  1  0.83815340  0.16423097  0.35145940  1
  O2-  O566  1  0.82236433  0.15613043  0.68746707  1
  O2-  O567  1  0.83368698  0.41486306  0.01379525  1
  O2-  O568  1  0.82787964  0.42763364  0.36350831  1
  O2-  O569  1  0.81034409  0.38361591  0.69139329  1
  O2-  O570  1  0.85819579  0.66741101  0.02761617  1
  O2-  O571  1  0.79810045  0.63400289  0.35007950  1
  O2-  O572  1  0.84331537  0.68403245  0.68904192  1
  O2-  O573  1  0.74138675  0.81604829  0.03164330  1
  O2-  O574  1  0.83386072  0.92262280  0.35014309  1
  O2-  O575  1  0.80991291  0.89972714  0.67653833  1
