# generated using pymatgen
data_H2O
_symmetry_space_group_name_H-M   'P 1'
_cell_length_a   17.98415323
_cell_length_b   17.98718291
_cell_length_c   22.00309181
_cell_angle_alpha   90.01211073
_cell_angle_beta   90.00949972
_cell_angle_gamma   120.00933825
_symmetry_Int_Tables_number   1
_chemical_formula_structural   H2O
_chemical_formula_sum   'H384 O192'
_cell_volume   6163.48839656
_cell_formula_units_Z   192
loop_
 _symmetry_equiv_pos_site_id
 _symmetry_equiv_pos_as_xyz
  1  'x, y, z'
loop_
 _atom_type_symbol
 _atom_type_oxidation_number
  H+  1.0
  O2-  -2.0
loop_
 _atom_site_type_symbol
 _atom_site_label
 _atom_site_symmetry_multiplicity
 _atom_site_fract_x
 _atom_site_fract_y
 _atom_site_fract_z
 _atom_site_occupancy
  H+  H0  1  0.46723229  0.84682106  0.83585869  1
  H+  H1  1  0.11537675  0.23375519  -0.00865360  1
  H+  H2  1  0.09300162  0.35238176  0.34127675  1
  H+  H3  1  0.36451113  0.39263489  0.33808359  1
  H+  H4  1  0.11219193  0.03182946  0.96279766  1
  H+  H5  1  0.98017224  0.61510663  0.16632108  1
  H+  H6  1  0.60480076  0.36487580  0.48878219  1
  H+  H7  1  0.02610878  0.63989398  0.66996552  1
  H+  H8  1  0.52120209  0.39297904  0.67943912  1
  H+  H9  1  0.11864275  0.99076080  0.65625089  1
  H+  H10  1  0.07031984  0.95019744  0.35189590  1
  H+  H11  1  0.35479256  0.23787819  0.49828257  1
  H+  H12  1  0.78163069  0.89481350  0.00090081  1
  H+  H13  1  0.85959247  0.72614449  1.00811910  1
  H+  H14  1  0.12338057  0.23791009  0.14766354  1
  H+  H15  1  0.14201428  0.11390541  0.82403884  1
  H+  H16  1  1.01570569  0.37283885  0.33839375  1
  H+  H17  1  0.13300147  0.52264428  -0.00379551  1
  H+  H18  1  0.35717763  0.70997141  0.82166560  1
  H+  H19  1  0.88988563  0.27489255  0.50101916  1
  H+  H20  1  0.99569745  0.39156011  0.84244375  1
  H+  H21  1  0.72129082  0.86020773  0.20219209  1
  H+  H22  1  0.11500491  0.72725670  0.16063167  1
  H+  H23  1  0.53560886  0.14111495  0.67864318  1
  H+  H24  1  0.35965463  0.96601115  0.00963326  1
  H+  H25  1  0.36003907  0.99242313  0.51271087  1
  H+  H26  1  0.89217682  0.61305766  0.83978042  1
  H+  H27  1  0.38682445  0.61605197  0.65720842  1
  H+  H28  1  0.90010728  0.36272049  0.65230740  1
  H+  H29  1  0.36515240  0.48021224  0.15189714  1
  H+  H30  1  0.88861159  0.27323823  -0.01033176  1
  H+  H31  1  0.11403017  0.47984831  0.16041351  1
  H+  H32  1  0.21822674  0.85291114  1.00520006  1
  H+  H33  1  0.66958564  0.59621218  0.57492422  1
  H+  H34  1  0.86298465  0.72328022  0.49836724  1
  H+  H35  1  0.62859835  0.62454663  0.34166663  1
  H+  H36  1  0.61288735  -0.08479661  0.34503570  1
  H+  H37  1  0.72896649  0.11768468  0.16378639  1
  H+  H38  1  0.19186471  0.81110432  0.81831192  1
  H+  H39  1  0.62106527  0.35319436  1.00050189  1
  H+  H40  1  0.84895300  0.11763120  0.31662694  1
  H+  H41  1  0.14199979  0.11680121  0.64840222  1
  H+  H42  1  0.84821641  0.72555105  0.34681332  1
  H+  H43  1  0.59710104  0.22790641  0.00182371  1
  H+  H44  1  0.38838658  0.60620022  0.82983367  1
  H+  H45  1  0.47853171  0.62105621  0.65871585  1
  H+  H46  1  0.62741338  0.14642476  0.67775138  1
  H+  H47  1  0.02328262  0.89235803  0.66498656  1
  H+  H48  1  0.74416182  0.87397150  0.36095459  1
  H+  H49  1  0.36769249  0.72690084  0.00005340  1
  H+  H50  1  0.63809899  0.52951048  0.85108865  1
  H+  H51  1  0.63571085  0.86164222  0.18555700  1
  H+  H52  1  0.35778810  0.62578429  0.46948207  1
  H+  H53  1  0.63938577  0.53312119  0.67073266  1
  H+  H54  1  0.30503568  0.15681380  0.32940647  1
  H+  H55  1  0.37009085  0.22459495  0.67090464  1
  H+  H56  1  0.72471695  0.86257826  0.84705063  1
  H+  H57  1  0.13543716  0.86264782  0.17880324  1
  H+  H58  1  0.56574165  0.96023032  0.68131898  1
  H+  H59  1  0.36482323  0.72347243  0.19056802  1
  H+  H60  1  0.86717084  0.10638880  0.15475703  1
  H+  H61  1  0.65497462  0.35517601  0.63458231  1
  H+  H62  1  0.14116918  0.36894934  0.17073152  1
  H+  H63  1  0.75514852  0.86964687  0.51203757  1
  H+  H64  1  0.09381152  0.67927281  0.76603422  1
  H+  H65  1  0.87668949  0.85053064  0.52079756  1
  H+  H66  1  0.86259787  0.63279293  0.49337349  1
  H+  H67  1  0.43357869  0.57652451  0.21807548  1
  H+  H68  1  0.61786815  0.12694770  0.49793444  1
  H+  H69  1  0.97430633  0.85107227  1.00246221  1
  H+  H70  1  0.89628835  0.54251151  0.32284501  1
  H+  H71  1  0.12270860  0.97658003  0.82537898  1
  H+  H72  1  0.89400852  0.52569354  0.65483218  1
  H+  H73  1  0.64330645  0.51668820  0.17910077  1
  H+  H74  1  0.76264152  0.89580719  0.11932513  1
  H+  H75  1  0.16786452  0.58757903  0.59442547  1
  H+  H76  1  0.72623541  0.12953636  0.32215522  1
  H+  H77  1  0.22580280  0.11028762  0.49191302  1
  H+  H78  1  0.72947580  0.61744412  0.84702126  1
  H+  H79  1  0.49689933  0.60799596  0.31578117  1
  H+  H80  1  0.62921178  0.36443510  0.85012727  1
  H+  H81  1  0.11953158  0.23467213  0.67201317  1
  H+  H82  1  0.90081123  0.23644966  0.75509290  1
  H+  H83  1  0.04295019  0.65749787  0.82751065  1
  H+  H84  1  0.77944496  0.38726157  0.48596207  1
  H+  H85  1  1.04088065  0.88336009  0.83121634  1
  H+  H86  1  0.86585138  0.13459165  0.49829677  1
  H+  H87  1  0.11312346  0.47968938  0.66520997  1
  H+  H88  1  0.64374381  0.83331013  0.28232255  1
  H+  H89  1  0.35344351  0.37972352  0.48870170  1
  H+  H90  1  0.88289557  0.29474347  0.31921373  1
  H+  H91  1  0.22161476  0.10525194  0.15624913  1
  H+  H92  1  0.63879664  0.27548193  0.33498166  1
  H+  H93  1  0.89066636  0.37054691  0.16038648  1
  H+  H94  1  0.77449676  0.88479064  0.67844604  1
  H+  H95  1  0.76452993  0.12082267  0.80248367  1
  H+  H96  1  0.85509824  0.72390774  0.15871314  1
  H+  H97  1  0.10959072  0.13352053  0.49796144  1
  H+  H98  1  0.31163850  0.95018221  0.85072929  1
  H+  H99  1  0.61795817  0.75919267  0.50160818  1
  H+  H100  1  0.50088634  0.12572172  -0.00271594  1
  H+  H101  1  0.36121265  0.47353609  0.49268852  1
  H+  H102  1  0.58487072  0.16483714  0.40528191  1
  H+  H103  1  0.88071992  1.01613526  0.51892687  1
  H+  H104  1  0.38834980  0.27701136  0.18047535  1
  H+  H105  1  -0.02235580  0.07638904  0.34170215  1
  H+  H106  1  0.77725992  0.63748156  0.67945374  1
  H+  H107  1  0.26524569  0.12918522  0.99498838  1
  H+  H108  1  0.22688005  0.87524683  0.33640437  1
  H+  H109  1  0.77708618  0.40243791  0.34171036  1
  H+  H110  1  0.26812307  0.61893541  0.81827733  1
  H+  H111  1  0.96942465  0.85591179  0.51462368  1
  H+  H112  1  0.64655646  0.26419687  0.65288975  1
  H+  H113  1  0.14821867  0.57833085  0.23526995  1
  H+  H114  1  0.14654675  0.33125101  0.87679748  1
  H+  H115  1  0.22819065  0.36517654  0.50846832  1
  H+  H116  1  0.47076126  0.87682547  0.52151818  1
  H+  H117  1  0.76263504  0.62527679  0.34746274  1
  H+  H118  1  0.86538901  0.13594394  0.99471755  1
  H+  H119  1  0.64227839  0.51192639  0.33275368  1
  H+  H120  1  0.38430001  0.88022781  0.52394744  1
  H+  H121  1  0.38417280  0.60405271  0.17510382  1
  H+  H122  1  0.36167978  0.38954823  0.15620033  1
  H+  H123  1  0.77312660  0.12919134  -0.00618297  1
  H+  H124  1  0.13402881  0.02105787  0.50157161  1
  H+  H125  1  0.63412990  0.77590119  0.84680747  1
  H+  H126  1  0.48819671  0.86556543  0.67922907  1
  H+  H127  1  0.37762818  0.10333930  0.98507835  1
  H+  H128  1  0.85895715  0.47997501  0.82164478  1
  H+  H129  1  0.29266484  0.90070544  0.74099131  1
  H+  H130  1  0.83809352  0.02639438  0.30627056  1
  H+  H131  1  0.13811020  0.61623512  0.50070534  1
  H+  H132  1  0.62508045  0.97390296  0.15747074  1
  H+  H133  1  0.86999237  0.85708564  0.17310106  1
  H+  H134  1  0.52289330  0.39126960  0.84275841  1
  H+  H135  1  0.88846801  0.85795346  0.99456795  1
  H+  H136  1  0.18003241  0.09752996  0.22049074  1
  H+  H137  1  0.85513705  0.47024786  0.00115231  1
  H+  H138  1  0.63428289  0.02065514  0.83122922  1
  H+  H139  1  0.42749602  0.92422859  0.28914412  1
  H+  H140  1  0.72483125  0.27237131  0.21352023  1
  H+  H141  1  0.04404228  0.31623731  0.80371614  1
  H+  H142  1  0.86369573  0.48268850  0.15516387  1
  H+  H143  1  0.86272721  0.97272614  0.68067800  1
  H+  H144  1  0.84267157  0.43324989  0.39744044  1
  H+  H145  1  0.48178781  0.37373173  0.32773676  1
  H+  H146  1  0.38793714  1.01639034  0.17905562  1
  H+  H147  1  0.63057378  0.72095860  0.17532916  1
  H+  H148  1  0.07463930  0.39813953  0.43484900  1
  H+  H149  1  0.10965142  0.86735325  0.02063753  1
  H+  H150  1  0.62267425  0.87724833  0.65937857  1
  H+  H151  1  0.38989206  0.27324069  0.98988266  1
  H+  H152  1  0.36773553  0.76134738  0.66825451  1
  H+  H153  1  0.76484338  0.38083093  1.00496648  1
  H+  H154  1  0.39026047  1.02215453  0.67621474  1
  H+  H155  1  0.39765744  0.28215617  0.32994530  1
  H+  H156  1  0.51404852  0.35969748  0.49048781  1
  H+  H157  1  0.52283535  0.39010798  0.00602200  1
  H+  H158  1  0.37860409  0.60259766  -0.02097445  1
  H+  H159  1  0.38021518  0.13347542  0.15972911  1
  H+  H160  1  0.61544864  0.73243174  0.68094627  1
  H+  H161  1  0.11335516  0.38753301  0.49693374  1
  H+  H162  1  0.65869650  0.61365372  0.18098391  1
  H+  H163  1  0.21914438  0.61196507  0.18496053  1
  H+  H164  1  1.02669220  0.38603953  0.65621174  1
  H+  H165  1  0.13497201  0.36220118  -0.01520946  1
  H+  H166  1  0.64185702  0.02183663  0.51449326  1
  H+  H167  1  0.39763158  0.27494674  0.84982952  1
  H+  H168  1  0.39765161  0.36885836  0.65365341  1
  H+  H169  1  0.11924566  0.89342309  0.66292389  1
  H+  H170  1  0.48677581  0.90180368  0.33010738  1
  H+  H171  1  0.60401778  0.37704068  0.16138377  1
  H+  H172  1  0.14137575  0.37642701  0.67746293  1
  H+  H173  1  0.97561895  0.60407924  0.99383530  1
  H+  H174  1  0.86314017  0.18833416  0.40510406  1
  H+  H175  1  0.84242819  -0.02168608  0.15391805  1
  H+  H176  1  0.70035307  0.06395469  0.67632961  1
  H+  H177  1  0.78868021  0.38387438  0.66198456  1
  H+  H178  1  0.63947144  0.10196114  0.97845017  1
  H+  H179  1  0.88489142  0.10042457  0.82248014  1
  H+  H180  1  0.02341314  0.64584961  0.33774927  1
  H+  H181  1  0.22210912  0.36006794  0.98074810  1
  H+  H182  1  0.33256015  0.66171142  0.24684113  1
  H+  H183  1  0.40038104  0.05316659  0.93346424  1
  H+  H184  1  0.62969776  0.74009503  1.01735826  1
  H+  H185  1  0.28842905  0.39758489  0.67081332  1
  H+  H186  1  0.63787959  0.71667524  0.34143502  1
  H+  H187  1  0.02462992  0.64192317  0.49324416  1
  H+  H188  1  0.40822792  0.81465569  0.89318407  1
  H+  H189  1  0.21541390  0.62027872  0.31703667  1
  H+  H190  1  0.14286344  0.61580303  0.82716019  1
  H+  H191  1  0.86189750  0.23266873  0.14680903  1
  H+  H192  1  0.40276432  0.52891024  0.31634009  1
  H+  H193  1  0.12849318  0.76376924  1.00240382  1
  H+  H194  1  0.28196403  0.13646417  0.66565011  1
  H+  H195  1  0.39829746  0.12100288  0.33270702  1
  H+  H196  1  0.11299868  0.63684026  0.16124693  1
  H+  H197  1  0.94582996  0.24622353  0.36486265  1
  H+  H198  1  0.62785240  0.65127745  1.01306281  1
  H+  H199  1  0.11866657  0.52541264  0.85328025  1
  H+  H200  1  0.58433422  0.79032826  0.34173719  1
  H+  H201  1  0.89075000  0.85967467  0.66683366  1
  H+  H202  1  0.86502726  0.72382899  0.83232130  1
  H+  H203  1  0.42776272  0.32987016  0.60031740  1
  H+  H204  1  0.10314015  0.87893259  0.50095078  1
  H+  H205  1  0.17654622  0.88925595  0.81218013  1
  H+  H206  1  0.89679965  0.02933536  0.97979915  1
  H+  H207  1  0.39800112  0.36596282  0.83735946  1
  H+  H208  1  0.61165637  0.88562356  0.82968380  1
  H+  H209  1  0.86455588  0.96996867  0.83005615  1
  H+  H210  1  0.27404557  0.63236337  0.46983698  1
  H+  H211  1  0.49006660  0.86457386  0.16974357  1
  H+  H212  1  0.11812532  0.14712114  0.14485065  1
  H+  H213  1  0.89116239  0.11797927  0.67445723  1
  H+  H214  1  0.13626547  0.52646653  0.50016802  1
  H+  H215  1  0.13862871  0.61722176  0.65483542  1
  H+  H216  1  0.82887699  0.42052893  0.09545956  1
  H+  H217  1  0.39406406  0.11297501  0.67148310  1
  H+  H218  1  0.82696962  0.66435809  0.07041167  1
  H+  H219  1  0.59129665  0.20921545  0.85344488  1
  H+  H220  1  0.62612628  0.68204881  0.10874125  1
  H+  H221  1  0.35325727  0.74941081  0.32970888  1
  H+  H222  1  0.35845271  0.38097080  0.00239755  1
  H+  H223  1  0.10682625  0.62790087  0.00608449  1
  H+  H224  1  0.36902920  0.13524873  0.82970281  1
  H+  H225  1  0.92285127  0.57855966  0.89512674  1
  H+  H226  1  0.72347191  0.61797194  0.51366338  1
  H+  H227  1  0.34192579  0.87627088  0.68995282  1
  H+  H228  1  0.60159379  0.88385157  0.49152708  1
  H+  H229  1  0.33694467  0.11566634  0.47448842  1
  H+  H230  1  0.88867703  0.61201901  0.66042593  1
  H+  H231  1  0.12515630  0.61282029  0.32539855  1
  H+  H232  1  0.37732741  0.48605313  0.65981448  1
  H+  H233  1  0.63473696  1.01087391  -0.00980271  1
  H+  H234  1  0.33351139  0.42398043  0.39544807  1
  H+  H235  1  0.75552912  0.62485651  0.00390816  1
  H+  H236  1  0.64497876  0.52324199  0.99741052  1
  H+  H237  1  0.64126104  0.87561991  1.00112752  1
  H+  H238  1  0.76525981  0.15980859  0.67227175  1
  H+  H239  1  0.38502618  0.47887488  0.81681282  1
  H+  H240  1  0.13263165  0.86287505  0.33067251  1
  H+  H241  1  0.02554743  0.38439565  0.00898998  1
  H+  H242  1  0.13045317  0.12453891  -0.01464954  1
  H+  H243  1  0.10026213  0.96813492  0.16687988  1
  H+  H244  1  0.17873938  0.06040198  0.31464469  1
  H+  H245  1  1.02964163  0.14509395  0.66371719  1
  H+  H246  1  0.13455965  0.77454519  0.50920567  1
  H+  H247  1  0.36579958  0.88412315  0.16423247  1
  H+  H248  1  0.02298773  0.12556079  0.81204464  1
  H+  H249  1  0.39122409  0.85689289  -0.00840122  1
  H+  H250  1  0.87047225  0.39171567  0.48823132  1
  H+  H251  1  0.15924903  0.25549907  0.34124201  1
  H+  H252  1  0.28583219  0.14314229  0.83877406  1
  H+  H253  1  0.99724733  0.08834175  0.31041581  1
  H+  H254  1  0.64283222  0.62315368  0.67062805  1
  H+  H255  1  0.77814196  0.13610281  0.49377658  1
  H+  H256  1  0.26910695  0.62957673  0.66932729  1
  H+  H257  1  0.61209358  0.38409579  0.34023051  1
  H+  H258  1  0.18024790  0.34663137  0.72945717  1
  H+  H259  1  0.48172554  0.85950218  -0.01005747  1
  H+  H260  1  0.36339340  0.98811675  0.35388891  1
  H+  H261  1  0.27565796  0.88460059  0.16540740  1
  H+  H262  1  0.11226047  0.73047567  0.67121456  1
  H+  H263  1  0.02826667  0.36298434  0.74930169  1
  H+  H264  1  0.18303278  0.15127536  0.32122127  1
  H+  H265  1  0.88767531  0.52579306  0.50312727  1
  H+  H266  1  0.02671426  0.38964666  0.15693825  1
  H+  H267  1  0.61384944  0.64401101  0.83268038  1
  H+  H268  1  0.41561518  0.57623409  0.89115882  1
  H+  H269  1  0.61566247  0.21416677  0.15271217  1
  H+  H270  1  0.47305535  0.60525258  0.50134387  1
  H+  H271  1  0.89125752  0.85843170  0.84477353  1
  H+  H272  1  0.88821190  0.60676114  0.99131019  1
  H+  H273  1  0.23413765  0.38269365  0.32182213  1
  H+  H274  1  0.56736726  0.15659636  0.06122736  1
  H+  H275  1  0.61336439  0.63666147  0.50049749  1
  H+  H276  1  0.60556803  0.39380198  0.70159169  1
  H+  H277  1  0.37483735  0.51270580  0.98066778  1
  H+  H278  1  0.86117072  0.85030916  0.33157036  1
  H+  H279  1  0.53008614  0.13001097  0.50398355  1
  H+  H280  1  0.22033371  0.86877519  0.66394105  1
  H+  H281  1  0.63880884  0.13256284  0.32440608  1
  H+  H282  1  0.61025306  0.12463394  0.14865755  1
  H+  H283  1  0.88598652  0.36016884  0.99689589  1
  H+  H284  1  0.89159057  0.61654821  0.16614811  1
  H+  H285  1  0.77903002  0.45126279  0.78114127  1
  H+  H286  1  0.52485769  0.13970846  0.34568200  1
  H+  H287  1  0.97947850  0.36462585  0.50089948  1
  H+  H288  1  0.91617356  0.58583944  0.56283710  1
  H+  H289  1  0.32712002  0.65456124  0.73070716  1
  H+  H290  1  0.64887471  0.32252976  0.93941122  1
  H+  H291  1  0.92891223  0.59536414  0.26187445  1
  H+  H292  1  0.63655179  0.81903365  0.56078393  1
  H+  H293  1  0.59609428  0.91323193  0.09836237  1
  H+  H294  1  0.88984775  0.82237642  0.26944069  1
  H+  H295  1  0.64360079  0.26249886  0.49409641  1
  H+  H296  1  0.91397925  0.34020821  0.22144089  1
  H+  H297  1  0.91649574  0.82585817  0.60722829  1
  H+  H298  1  0.35733027  0.89798364  0.36374762  1
  H+  H299  1  0.61494123  0.00521813  0.34310304  1
  H+  H300  1  0.08370245  0.67398775  0.43389931  1
  H+  H301  1  0.58470707  0.67376130  0.74031844  1
  H+  H302  1  0.11262230  0.95798544  0.02916307  1
  H+  H303  1  0.54509450  0.95098456  0.04474017  1
  H+  H304  1  0.88470999  0.38435038  0.31797368  1
  H+  H305  1  0.81611979  0.89234528  0.45668665  1
  H+  H306  1  0.41383899  0.58229960  0.55971676  1
  H+  H307  1  0.33558390  0.90981864  0.06960382  1
  H+  H308  1  0.58029491  0.41760912  0.06682764  1
  H+  H309  1  0.84948128  0.92699815  0.05499645  1
  H+  H310  1  0.68392225  0.08997207  0.57031642  1
  H+  H311  1  0.95972912  0.85881591  0.18025980  1
  H+  H312  1  0.08978477  0.17750933  0.05396822  1
  H+  H313  1  0.83060210  0.90452180  0.77535753  1
  H+  H314  1  0.22067252  0.86885135  0.51416161  1
  H+  H315  1  0.57974665  0.40909405  0.40094547  1
  H+  H316  1  0.92165580  0.82679049  0.90226954  1
  H+  H317  1  0.32298629  0.15103316  0.05441754  1
  H+  H318  1  0.11601811  0.73134108  0.34181019  1
  H+  H319  1  0.34006481  0.66432064  0.05704151  1
  H+  H320  1  0.67597063  0.07861152  0.88877929  1
  H+  H321  1  0.84399900  0.41627583  0.72270752  1
  H+  H322  1  0.23086266  0.36993639  0.16876379  1
  H+  H323  1  0.34187066  0.17233009  0.39877973  1
  H+  H324  1  0.90839319  0.08561472  0.61004017  1
  H+  H325  1  0.17335215  0.34408105  0.26245370  1
  H+  H326  1  0.17110497  0.83666005  0.23597024  1
  H+  H327  1  0.39970394  0.83244265  0.61372707  1
  H+  H328  1  0.52179443  0.63898721  0.82857801  1
  H+  H329  1  0.97106158  0.10515125  0.51478980  1
  H+  H330  1  0.06357624  0.89759658  0.44161645  1
  H+  H331  1  0.60145086  0.12659434  0.84796556  1
  H+  H332  1  0.17111270  0.08464252  0.58899619  1
  H+  H333  1  0.98313322  0.12061859  0.98118446  1
  H+  H334  1  0.67297460  0.32860921  0.27356476  1
  H+  H335  1  0.42214684  0.14460181  0.53698451  1
  H+  H336  1  0.42123213  0.08129454  0.27447052  1
  H+  H337  1  0.86913076  0.72324692  0.68044138  1
  H+  H338  1  0.17263220  0.09606907  0.88691216  1
  H+  H339  1  0.67841493  0.32079385  0.55236320  1
  H+  H340  1  0.57320030  0.90579951  0.76959850  1
  H+  H341  1  0.16200895  0.83748607  0.60203186  1
  H+  H342  1  0.82937216  0.17133850  0.08697444  1
  H+  H343  1  0.08996881  0.41545177  0.06545635  1
  H+  H344  1  0.74651195  0.35277684  0.17428542  1
  H+  H345  1  0.33007040  0.93601087  0.45179487  1
  H+  H346  1  0.13200380  0.19332878  0.40034148  1
  H+  H347  1  0.92288492  0.33230133  0.59133665  1
  H+  H348  1  0.70523039  0.92251160  0.61938151  1
  H+  H349  1  0.58566075  0.65752266  0.43572318  1
  H+  H350  1  0.86080953  0.06851696  0.21924372  1
  H+  H351  1  0.17444484  0.34254962  0.57002433  1
  H+  H352  1  0.33234463  0.67091515  0.37248618  1
  H+  H353  1  0.43735143  0.84540011  0.23145867  1
  H+  H354  1  0.32610185  0.41150973  0.05957772  1
  H+  H355  1  0.98444165  0.40120428  0.91169977  1
  H+  H356  1  0.71374089  0.35659325  0.84914295  1
  H+  H357  1  -0.00802336  0.85909623  0.34399563  1
  H+  H358  1  0.83427260  0.95550824  0.37635907  1
  H+  H359  1  0.10769396  0.22112219  0.50363468  1
  H+  H360  1  0.82663786  0.66734642  0.41485832  1
  H+  H361  1  0.36522285  0.42264642  0.75682224  1
  H+  H362  1  0.31838720  0.27487938  0.54732597  1
  H+  H363  1  0.07544729  0.65823838  0.06520288  1
  H+  H364  1  0.51834336  0.38262021  0.16564417  1
  H+  H365  1  0.06703699  0.89903583  0.11367063  1
  H+  H366  1  0.77416265  0.62830515  0.16099879  1
  H+  H367  1  0.57863501  0.93189581  0.43971210  1
  H+  H368  1  0.43204003  0.08903946  0.58887181  1
  H+  H369  1  0.42066556  0.21193642  0.11604777  1
  H+  H370  1  0.41872267  0.33893521  0.23880706  1
  H+  H371  1  0.46640174  0.08983657  0.82905555  1
  H+  H372  1  0.21915439  0.61303039  0.99378859  1
  H+  H373  1  0.47875144  0.10347413  0.17604701  1
  H+  H374  1  0.12220059  0.26094649  0.82581986  1
  H+  H375  1  0.67900900  0.57236610  0.27154395  1
  H+  H376  1  0.92151431  0.08705622  0.88633052  1
  H+  H377  1  0.66654318  0.84362629  0.94121037  1
  H+  H378  1  0.83289103  0.66288805  0.77351987  1
  H+  H379  1  0.67031405  0.09058992  0.22448527  1
  H+  H380  1  0.58026891  0.42940065  0.78355896  1
  H+  H381  1  0.67735288  0.58665773  0.93642872  1
  H+  H382  1  0.42251586  0.33778888  0.93348011  1
  H+  H383  1  0.08490102  0.15856578  0.75332809  1
  O2-  O384  1  0.09570874  0.18158150  0.12613424  1
  O2-  O385  1  0.07657753  0.16253595  0.48594509  1
  O2-  O386  1  0.08428412  0.15653311  0.79861535  1
  O2-  O387  1  0.08821732  0.41960702  0.14444674  1
  O2-  O388  1  0.08252403  0.41508199  0.47874820  1
  O2-  O389  1  -0.00288762  0.32091941  0.78197734  1
  O2-  O390  1  0.08319531  0.66761874  0.14467758  1
  O2-  O391  1  0.08572496  0.67447589  0.47976106  1
  O2-  O392  1  0.10179154  0.68853621  0.81067830  1
  O2-  O393  1  0.06662991  0.90502468  0.15902310  1
  O2-  O394  1  0.06957026  0.90671061  0.48622442  1
  O2-  O395  1  0.09909280  0.91543037  0.81398439  1
  O2-  O396  1  0.36643709  0.17367714  0.13639654  1
  O2-  O397  1  0.31736077  0.15556997  0.46407285  1
  O2-  O398  1  0.34869547  0.17283273  0.84640122  1
  O2-  O399  1  0.33106431  0.41700141  0.13834635  1
  O2-  O400  1  0.32569311  0.41299401  0.47623348  1
  O2-  O401  1  0.36323839  0.41919584  0.80155127  1
  O2-  O402  1  0.32967996  0.66202489  0.20182923  1
  O2-  O403  1  0.32826715  0.65134098  0.44747071  1
  O2-  O404  1  0.32983960  0.65004783  0.80427717  1
  O2-  O405  1  0.33683085  0.91631486  0.15089822  1
  O2-  O406  1  0.32680885  0.93282923  0.49707983  1
  O2-  O407  1  0.36709919  0.99748075  0.86828654  1
  O2-  O408  1  0.57904919  0.15573724  0.13510177  1
  O2-  O409  1  0.58554039  0.15457043  0.48142811  1
  O2-  O410  1  0.56041120  0.14644174  0.85854514  1
  O2-  O411  1  0.57808925  0.41022630  0.14710513  1
  O2-  O412  1  0.57182115  0.39217025  0.47387396  1
  O2-  O413  1  0.58574971  0.42585114  0.82816904  1
  O2-  O414  1  0.64420760  0.68279096  0.15228226  1
  O2-  O415  1  0.57989216  0.66225959  0.48028538  1
  O2-  O416  1  0.58501184  0.67387393  0.81522476  1
  O2-  O417  1  0.59708100  0.91237965  0.14514319  1
  O2-  O418  1  0.57996794  0.92455796  0.48444896  1
  O2-  O419  1  0.58034072  0.91469160  0.81413845  1
  O2-  O420  1  0.82673809  0.17185780  0.13260080  1
  O2-  O421  1  0.83918367  0.16652479  0.47993125  1
  O2-  O422  1  0.81408070  0.11932177  0.78164992  1
  O2-  O423  1  0.83230042  0.42101080  0.14106166  1
  O2-  O424  1  0.84119386  0.42388963  0.47437429  1
  O2-  O425  1  0.81169510  0.42777683  0.80034873  1
  O2-  O426  1  0.83173224  0.66538355  0.14067490  1
  O2-  O427  1  0.83227670  0.66472960  0.47909619  1
  O2-  O428  1  0.83105313  0.66205131  0.81898213  1
  O2-  O429  1  0.81753990  0.91396986  0.13933732  1
  O2-  O430  1  0.81794260  0.89895499  0.50134856  1
  O2-  O431  1  0.83181152  0.90683622  0.82039574  1
  O2-  O432  1  0.16611035  0.08093931  0.17668749  1
  O2-  O433  1  0.16684682  0.08230491  0.51404382  1
  O2-  O434  1  0.17441672  0.08757686  0.84273423  1
  O2-  O435  1  0.17106046  0.33817068  0.18585212  1
  O2-  O436  1  0.16816889  0.33458200  0.52612438  1
  O2-  O437  1  0.13347447  0.32028212  0.83290238  1
  O2-  O438  1  0.15536940  0.58100186  0.18882805  1
  O2-  O439  1  0.16923387  0.58666519  0.51509774  1
  O2-  O440  1  0.16316482  0.57388120  0.82947087  1
  O2-  O441  1  0.17066053  0.83625150  0.19058171  1
  O2-  O442  1  0.15895943  0.83414193  0.52677840  1
  O2-  O443  1  0.22326836  0.87379456  0.81111744  1
  O2-  O444  1  0.42014369  0.07774930  0.19397291  1
  O2-  O445  1  0.43400804  0.09765536  0.54255237  1
  O2-  O446  1  0.40346110  0.05543549  0.81593792  1
  O2-  O447  1  0.42002958  0.33783073  0.19263793  1
  O2-  O448  1  0.37098726  0.29400453  0.52393165  1
  O2-  O449  1  0.42718738  0.33838910  0.86056943  1
  O2-  O450  1  0.41873381  0.57528902  0.17406488  1
  O2-  O451  1  0.41176924  0.57448928  0.51480009  1
  O2-  O452  1  0.42436790  0.58171300  0.84506376  1
  O2-  O453  1  0.43050839  0.83874795  0.18690224  1
  O2-  O454  1  0.41386323  0.85100895  0.54100401  1
  O2-  O455  1  0.40666737  0.81030481  0.84832014  1
  O2-  O456  1  0.66799797  0.08441638  0.17953123  1
  O2-  O457  1  0.67660222  0.08459610  0.52575220  1
  O2-  O458  1  0.67054296  0.08248633  0.84378559  1
  O2-  O459  1  0.69684082  0.30248520  0.19677280  1
  O2-  O460  1  0.67312562  0.32395911  0.50748646  1
  O2-  O461  1  0.65506802  0.33005735  0.86634698  1
  O2-  O462  1  0.68075962  0.57433866  0.19687998  1
  O2-  O463  1  0.66531947  0.59700354  0.53002326  1
  O2-  O464  1  0.67062123  0.59067126  0.86593514  1
  O2-  O465  1  0.65993064  0.83313923  0.21249881  1
  O2-  O466  1  0.64553367  0.82135607  0.51642636  1
  O2-  O467  1  0.66437305  0.83656280  0.86203171  1
  O2-  O468  1  0.88048685  0.06641762  0.17743631  1
  O2-  O469  1  0.91078151  0.07754098  0.53107245  1
  O2-  O470  1  0.91988420  0.07763207  0.84132750  1
  O2-  O471  1  0.91646975  0.33643238  0.17612704  1
  O2-  O472  1  0.91757248  0.33613785  0.51389255  1
  O2-  O473  1  1.00721879  0.43476318  0.87421367  1
  O2-  O474  1  0.91871942  0.58341026  0.18067346  1
  O2-  O475  1  0.91527252  0.58699660  0.51728237  1
  O2-  O476  1  0.92314641  0.58161301  0.84997188  1
  O2-  O477  1  0.89735160  0.82677854  0.19220356  1
  O2-  O478  1  0.90952284  0.82096104  0.53159104  1
  O2-  O479  1  0.92139621  0.82685089  0.85721461  1
  O2-  O480  1  0.20429222  0.11670159  0.29573625  1
  O2-  O481  1  0.16862967  0.08214853  0.63500962  1
  O2-  O482  1  0.15901999  0.08981997  0.97040470  1
  O2-  O483  1  0.17319211  0.34567180  0.30821374  1
  O2-  O484  1  0.17647528  0.34582741  0.68491019  1
  O2-  O485  1  0.16194564  0.33126886  0.96489405  1
  O2-  O486  1  0.15374413  0.58312230  0.30682728  1
  O2-  O487  1  0.16725085  0.58527668  0.63996534  1
  O2-  O488  1  0.15720750  0.58381387  0.98438857  1
  O2-  O489  1  0.17054294  0.84206533  0.31520713  1
  O2-  O490  1  0.15944681  0.84074490  0.64768620  1
  O2-  O491  1  0.15644245  0.82715779  0.99516493  1
  O2-  O492  1  0.42276254  0.08287519  0.31978807  1
  O2-  O493  1  0.42589964  0.08153508  0.66017155  1
  O2-  O494  1  0.41228072  0.07460256  0.97675795  1
  O2-  O495  1  0.42085897  0.34186515  0.31309217  1
  O2-  O496  1  0.43031424  0.33769979  0.64491236  1
  O2-  O497  1  0.42244565  0.33508639  0.97976782  1
  O2-  O498  1  0.44109001  0.58374801  0.29518412  1
  O2-  O499  1  0.42055026  0.58977339  0.64016627  1
  O2-  O500  1  0.40577880  0.57092970  0.96239546  1
  O2-  O501  1  0.42818311  0.87672920  0.31010742  1
  O2-  O502  1  0.39576163  0.82510861  0.65958639  1
  O2-  O503  1  0.42035427  0.82638157  0.97548769  1
  O2-  O504  1  0.66765024  0.10152524  0.30627915  1
  O2-  O505  1  0.71077122  0.11513937  0.65401698  1
  O2-  O506  1  0.66929843  0.07074974  0.96812186  1
  O2-  O507  1  0.66842615  0.33519080  0.31781941  1
  O2-  O508  1  0.68464467  0.32263310  0.63110464  1
  O2-  O509  1  0.64533410  0.31660119  0.98552916  1
  O2-  O510  1  0.67735949  0.57384616  0.31758816  1
  O2-  O511  1  0.67347996  0.59309645  0.65584241  1
  O2-  O512  1  0.68060658  0.58473646  0.98329581  1
  O2-  O513  1  0.64048565  0.83692179  0.32878291  1
  O2-  O514  1  0.66830148  0.86796895  0.63978526  1
  O2-  O515  1  0.67439733  0.84897770  0.98642945  1
  O2-  O516  1  0.81725763  0.06364548  0.29184302  1
  O2-  O517  1  0.91587230  0.08577373  0.65519818  1
  O2-  O518  1  0.92294562  0.08919184  0.96450833  1
  O2-  O519  1  0.90960513  0.35092888  0.29851233  1
  O2-  O520  1  0.92774021  0.33083734  0.63640680  1
  O2-  O521  1  0.92238746  0.33646625  0.98331479  1
  O2-  O522  1  0.93093219  0.60162929  0.30671033  1
  O2-  O523  1  0.92117079  0.58667096  0.64093571  1
  O2-  O524  1  0.91462460  0.57369475  0.97671642  1
  O2-  O525  1  0.89035463  0.82002594  0.31531938  1
  O2-  O526  1  0.92385145  0.83192941  0.65276422  1
  O2-  O527  1  0.91492479  0.82154888  0.98483579  1
  O2-  O528  1  0.08573104  0.17256329  0.00762760  1
  O2-  O529  1  0.15991188  0.20512056  0.36033164  1
  O2-  O530  1  0.09144245  0.17070643  0.67449855  1
  O2-  O531  1  0.08780995  0.41380385  0.02009826  1
  O2-  O532  1  0.04338402  0.34917007  0.36469286  1
  O2-  O533  1  0.08494752  0.41776208  0.67696142  1
  O2-  O534  1  0.07264158  0.65686743  0.01994367  1
  O2-  O535  1  0.08233353  0.67220296  0.35793393  1
  O2-  O536  1  0.08666020  0.66993507  0.68489912  1
  O2-  O537  1  0.07496633  0.89679437  0.03660297  1
  O2-  O538  1  0.05194174  0.89039246  0.36069037  1
  O2-  O539  1  0.08801069  0.92794475  0.67296273  1
  O2-  O540  1  0.32557498  0.15469129  0.00971900  1
  O2-  O541  1  0.35987664  0.18095321  0.35242229  1
  O2-  O542  1  0.34083801  0.16319369  0.68203869  1
  O2-  O543  1  0.32408557  0.40806126  0.01411402  1
  O2-  O544  1  0.33643127  0.42618731  0.35026645  1
  O2-  O545  1  0.35196875  0.42446417  0.67287213  1
  O2-  O546  1  0.33344887  0.66481148  0.01318487  1
  O2-  O547  1  0.32840046  0.68717291  0.32919368  1
  O2-  O548  1  0.32981762  0.65966019  0.68455834  1
  O2-  O549  1  0.33290974  0.90612846  0.02445072  1
  O2-  O550  1  0.32773760  0.93008548  0.37372912  1
  O2-  O551  1  0.31417903  0.91146629  0.69839697  1
  O2-  O552  1  0.56468136  0.16142970  0.01504649  1
  O2-  O553  1  0.58616365  0.17181636  0.35991413  1
  O2-  O554  1  0.59819920  0.17913228  0.68667052  1
  O2-  O555  1  0.58421288  0.41967915  0.02155262  1
  O2-  O556  1  0.58413180  0.41675107  0.35510126  1
  O2-  O557  1  0.57764553  0.42820473  0.70212718  1
  O2-  O558  1  0.60698293  0.68318144  0.03680908  1
  O2-  O559  1  0.60169758  0.65864989  0.35696506  1
  O2-  O560  1  0.58569567  0.67262484  0.69408808  1
  O2-  O561  1  0.57949040  0.92842059  0.02692080  1
  O2-  O562  1  0.58259860  0.94531878  0.35982027  1
  O2-  O563  1  0.55341777  0.90208231  0.69026546  1
  O2-  O564  1  0.83284388  0.16352836  0.01039145  1
  O2-  O565  1  0.88298354  0.20396859  0.36197177  1
  O2-  O566  1  0.84853727  0.18675369  0.73509560  1
  O2-  O567  1  0.82473858  0.41120218  0.01961171  1
  O2-  O568  1  0.83917484  0.43537013  0.35196896  1
  O2-  O569  1  0.84836900  0.41910917  0.67771020  1
  O2-  O570  1  0.82611607  0.66359317  0.02330014  1
  O2-  O571  1  0.82263381  0.66686679  0.36633009  1
  O2-  O572  1  0.83789469  0.66252944  0.69446603  1
  O2-  O573  1  0.84481023  0.92096771  0.01026950  1
  O2-  O574  1  0.80409884  0.89287404  0.37431246  1
  O2-  O575  1  0.83443668  0.91102064  0.69252820  1
