# generated using pymatgen
data_H2O
_symmetry_space_group_name_H-M   'P 1'
_cell_length_a   17.99424175
_cell_length_b   17.99281698
_cell_length_c   21.99742239
_cell_angle_alpha   90.01975857
_cell_angle_beta   89.99300583
_cell_angle_gamma   120.02270904
_symmetry_Int_Tables_number   1
_chemical_formula_structural   H2O
_chemical_formula_sum   'H384 O192'
_cell_volume   6166.45670735
_cell_formula_units_Z   192
loop_
 _symmetry_equiv_pos_site_id
 _symmetry_equiv_pos_as_xyz
  1  'x, y, z'
loop_
 _atom_type_symbol
 _atom_type_oxidation_number
  H+  1.0
  O2-  -2.0
loop_
 _atom_site_type_symbol
 _atom_site_label
 _atom_site_symmetry_multiplicity
 _atom_site_fract_x
 _atom_site_fract_y
 _atom_site_fract_z
 _atom_site_occupancy
  H+  H0  1  0.47238521  0.75637653  0.22387814  1
  H+  H1  1  0.77214779  0.13958367  0.67273456  1
  H+  H2  1  0.07513433  0.41396817  0.73499533  1
  H+  H3  1  0.63203459  0.02385029  0.50900701  1
  H+  H4  1  0.88195546  0.52225058  0.50281451  1
  H+  H5  1  0.34197907  0.44930411  0.32602833  1
  H+  H6  1  0.60676952  0.63090258  0.50070362  1
  H+  H7  1  0.90800577  0.56974100  0.32169334  1
  H+  H8  1  0.37077069  0.23018902  0.15716207  1
  H+  H9  1  0.29776905  0.17056838  0.83908116  1
  H+  H10  1  0.38298070  0.02278287  0.98589807  1
  H+  H11  1  0.25329729  0.88092291  0.31733192  1
  H+  H12  1  0.63749970  0.10113772  0.34194440  1
  H+  H13  1  0.71781273  0.60930058  0.50518170  1
  H+  H14  1  0.86716869  0.98823858  0.16696377  1
  H+  H15  1  0.35354486  0.22117977  0.67438038  1
  H+  H16  1  0.03010927  0.63763797  0.16292476  1
  H+  H17  1  0.37964177  0.77188078  0.50089829  1
  H+  H18  1  0.26973748  0.98233262  0.79759617  1
  H+  H19  1  0.86102004  0.13820138  0.67434568  1
  H+  H20  1  0.37984019  0.77144767  0.84188840  1
  H+  H21  1  0.86488314  -0.03238592  1.00651518  1
  H+  H22  1  0.27867652  0.62988680  0.99729694  1
  H+  H23  1  0.61984240  0.37428138  0.17156434  1
  H+  H24  1  0.35800489  0.37614255  0.67533776  1
  H+  H25  1  0.12684453  0.23387446  0.15199555  1
  H+  H26  1  0.97987525  0.61637255  0.83509989  1
  H+  H27  1  0.50889363  0.87867083  0.34381326  1
  H+  H28  1  0.60710785  0.62315915  0.15152141  1
  H+  H29  1  0.13285861  0.57260909  0.50197194  1
  H+  H30  1  0.14131187  0.76272752  0.66090965  1
  H+  H31  1  0.77204411  0.38483265  0.49840195  1
  H+  H32  1  0.45908599  0.59208976  0.32416782  1
  H+  H33  1  0.37438135  0.11342378  0.65617058  1
  H+  H34  1  0.77036823  0.88771692  0.81840126  1
  H+  H35  1  0.37720605  0.59052107  0.97342927  1
  H+  H36  1  0.69884922  0.86895763  0.31150962  1
  H+  H37  1  0.87534986  0.09199989  0.98843774  1
  H+  H38  1  0.02090942  0.37173419  0.49332580  1
  H+  H39  1  0.63913855  0.59826860  0.31216797  1
  H+  H40  1  0.89463229  0.36887551  0.16835011  1
  H+  H41  1  0.90110551  0.87659521  0.18031435  1
  H+  H42  1  0.88899776  0.36481221  0.50911592  1
  H+  H43  1  0.86556639  0.47645934  0.66820007  1
  H+  H44  1  0.63994831  0.26728882  0.83336336  1
  H+  H45  1  0.85045746  0.63017526  0.48891699  1
  H+  H46  1  0.63010057  0.99607552  0.81969996  1
  H+  H47  1  0.59411164  0.36225588  0.34314661  1
  H+  H48  1  0.86935185  0.72394991  0.67670264  1
  H+  H49  1  0.97240229  0.35911524  0.66311051  1
  H+  H50  1  0.88059296  0.27506136  0.84047831  1
  H+  H51  1  0.73894609  0.62695410  0.31153279  1
  H+  H52  1  0.50994699  0.09980657  0.35328661  1
  H+  H53  1  0.47352898  0.60200921  0.16816496  1
  H+  H54  1  0.61441134  0.45925998  0.16105390  1
  H+  H55  1  0.11236880  0.48781801  1.00049550  1
  H+  H56  1  0.87040930  0.23541074  0.14527056  1
  H+  H57  1  0.84590242  0.22799440  0.31888088  1
  H+  H58  1  0.90662723  0.34346275  0.89613138  1
  H+  H59  1  0.11055875  0.23451234  0.83296301  1
  H+  H60  1  0.76473314  0.62897160  0.82778931  1
  H+  H61  1  0.78495421  0.39053931  0.16900648  1
  H+  H62  1  0.90912317  0.86823800  0.66529808  1
  H+  H63  1  0.86469327  0.38499770  0.66810930  1
  H+  H64  1  0.62394056  0.89826014  0.82002864  1
  H+  H65  1  0.34844485  0.60306392  0.68277379  1
  H+  H66  1  0.14196759  0.97302532  0.68601317  1
  H+  H67  1  0.58889168  0.44242801  0.82764661  1
  H+  H68  1  0.61906466  0.58272478  0.83241581  1
  H+  H69  1  -0.02857575  0.38763902  -0.01033233  1
  H+  H70  1  0.88031437  0.30112604  0.99071843  1
  H+  H71  1  0.40029504  0.79572135  0.64373749  1
  H+  H72  1  0.12561236  0.98732331  0.34118410  1
  H+  H73  1  0.53066547  0.89751798  0.66639532  1
  H+  H74  1  0.63419081  1.01210555  0.33618006  1
  H+  H75  1  0.43909417  0.63673878  0.83400897  1
  H+  H76  1  0.27852865  0.89487320  0.48833606  1
  H+  H77  1  0.27172770  0.64718178  0.33945210  1
  H+  H78  1  0.48424895  0.35329974  0.17566111  1
  H+  H79  1  0.13544751  0.86635112  0.99098886  1
  H+  H80  1  0.19506779  0.61537349  0.82841219  1
  H+  H81  1  0.59270546  0.36788881  -0.00475963  1
  H+  H82  1  0.51999050  0.88344460  0.49262470  1
  H+  H83  1  0.04327807  0.14089676  0.35044935  1
  H+  H84  1  0.08761974  0.70954909  0.82590154  1
  H+  H85  1  0.97457501  0.12138247  0.67015612  1
  H+  H86  1  0.13427119  0.78951175  0.50486801  1
  H+  H87  1  0.60678838  0.85291202  0.32422139  1
  H+  H88  1  0.10241905  0.46603718  0.67196055  1
  H+  H89  1  0.60933610  0.13723721  0.49978263  1
  H+  H90  1  0.35833030  0.46503685  0.67423233  1
  H+  H91  1  0.61662330  0.13289633  0.15434878  1
  H+  H92  1  0.38775753  0.50978943  0.16850812  1
  H+  H93  1  0.91586205  0.83421089  0.89627186  1
  H+  H94  1  0.36010640  0.21854943  0.00102114  1
  H+  H95  1  0.89903804  0.61771995  0.16938890  1
  H+  H96  1  0.85077151  0.63182510  -0.00402280  1
  H+  H97  1  0.65416651  0.81890766  1.06068753  1
  H+  H98  1  0.08452252  0.92012565  0.40756504  1
  H+  H99  1  0.70617058  0.33181719  0.33650740  1
  H+  H100  1  0.85302243  0.72210859  0.82903873  1
  H+  H101  1  0.46512575  0.34141777  0.32797701  1
  H+  H102  1  0.92377084  0.09143885  0.60515102  1
  H+  H103  1  0.52074056  0.13916945  0.49998663  1
  H+  H104  1  0.89919437  0.89319101  0.34677580  1
  H+  H105  1  0.35579943  0.88561191  1.00386452  1
  H+  H106  1  0.36184568  0.47044994  0.50903757  1
  H+  H107  1  0.33752895  0.15121647  0.40512982  1
  H+  H108  1  0.51078889  0.05708388  0.78918487  1
  H+  H109  1  0.48914140  0.11824148  0.17431903  1
  H+  H110  1  0.13625687  0.48769643  0.50305000  1
  H+  H111  1  0.10660316  0.62271473  0.67086278  1
  H+  H112  1  0.37403346  0.38285499  0.15793417  1
  H+  H113  1  0.28473200  0.14637868  0.49766718  1
  H+  H114  1  0.85850274  0.40682854  1.01066846  1
  H+  H115  1  0.38923622  0.16448465  0.84313663  1
  H+  H116  1  0.23669045  0.12214579  0.18061382  1
  H+  H117  1  0.76699852  0.11416031  0.34856676  1
  H+  H118  1  0.58512999  0.45176430  0.99159323  1
  H+  H119  1  0.65131374  0.78515929  0.66350428  1
  H+  H120  1  0.03269630  0.38987420  0.15385269  1
  H+  H121  1  0.96342900  0.18059789  0.21670556  1
  H+  H122  1  0.09615077  0.03459535  0.64042874  1
  H+  H123  1  0.92634636  0.60585586  0.23913339  1
  H+  H124  1  0.35998758  0.61527020  0.15161298  1
  H+  H125  1  0.86526308  0.14039347  0.82748482  1
  H+  H126  1  1.01637324  0.39193788  0.82589057  1
  H+  H127  1  0.72835627  0.36559853  0.66185692  1
  H+  H128  1  0.12189729  0.15114627  0.83343506  1
  H+  H129  1  0.12331512  0.12186130  0.67318562  1
  H+  H130  1  0.89238567  0.86070754  0.99417741  1
  H+  H131  1  0.39330288  0.27521313  0.50778610  1
  H+  H132  1  0.73075351  0.11478149  0.15494711  1
  H+  H133  1  0.27799556  0.96289422  0.82522638  1
  H+  H134  1  0.62694308  0.34889295  0.81968393  1
  H+  H135  1  0.61001220  0.88404316  0.49453924  1
  H+  H136  1  0.73225377  0.12005443  -0.01504236  1
  H+  H137  1  0.63754818  0.03244544  0.65810143  1
  H+  H138  1  0.62739689  0.14309991  0.66539412  1
  H+  H139  1  0.23434187  0.11630809  -0.00574717  1
  H+  H140  1  0.10163569  0.48447750  0.82581773  1
  H+  H141  1  0.73281333  0.87704258  0.65422277  1
  H+  H142  1  0.52015038  0.13321565  0.00398305  1
  H+  H143  1  0.10443676  0.86919085  0.15631472  1
  H+  H144  1  0.88036308  0.61744517  0.84077011  1
  H+  H145  1  0.36728008  0.13950675  0.15420532  1
  H+  H146  1  0.11545376  0.21803421  0.50213900  1
  H+  H147  1  0.10828831  0.35245909  -0.01102946  1
  H+  H148  1  0.36181247  0.46029553  -0.00217086  1
  H+  H149  1  0.52389257  0.13745196  0.82162282  1
  H+  H150  1  1.01893229  0.87757052  0.49032040  1
  H+  H151  1  0.34277097  0.36173108  0.32566842  1
  H+  H152  1  0.68658478  0.71309372  0.72914350  1
  H+  H153  1  0.97221431  0.61926420  0.99051108  1
  H+  H154  1  0.53298026  0.87507946  0.16332821  1
  H+  H155  1  0.61049012  0.71459082  0.15186040  1
  H+  H156  1  0.17597094  0.60194431  0.26668276  1
  H+  H157  1  0.83476743  0.16962511  0.76750618  1
  H+  H158  1  0.10488821  0.64135064  -0.00024985  1
  H+  H159  1  0.15931790  0.79605648  0.31532367  1
  H+  H160  1  0.39126140  0.02862453  0.50671369  1
  H+  H161  1  0.38955729  0.36320191  0.51386522  1
  H+  H162  1  0.38361959  0.11278910  -0.00523280  1
  H+  H163  1  0.62717884  0.24138768  0.67140968  1
  H+  H164  1  0.87487160  0.65673459  0.32843431  1
  H+  H165  1  0.14517440  0.11866304  -0.00812842  1
  H+  H166  1  0.88694640  0.77050235  0.98664531  1
  H+  H167  1  0.21937197  0.68251214  0.95528355  1
  H+  H168  1  0.27605824  0.37937182  0.50697782  1
  H+  H169  1  0.02741107  0.66923474  0.32217482  1
  H+  H170  1  0.56177629  0.68807398  0.75540684  1
  H+  H171  1  0.03329312  0.89491553  -0.00013948  1
  H+  H172  1  0.84989248  0.22536219  0.49594364  1
  H+  H173  1  0.93271522  0.84090612  0.26722590  1
  H+  H174  1  0.25306842  0.91413419  0.13921627  1
  H+  H175  1  0.78073989  0.89728857  0.16457337  1
  H+  H176  1  0.85446168  0.71971754  0.49344397  1
  H+  H177  1  0.00533463  0.65030001  0.48722258  1
  H+  H178  1  0.70787598  0.59623851  -0.01736383  1
  H+  H179  1  0.12805135  0.36846616  0.83628894  1
  H+  H180  1  0.46088172  0.33962953  0.98215384  1
  H+  H181  1  0.73195236  0.11845586  0.83335566  1
  H+  H182  1  -0.01951182  0.85842157  0.17030276  1
  H+  H183  1  0.81063983  0.88867336  0.35379521  1
  H+  H184  1  0.64066212  0.64536698  0.67774564  1
  H+  H185  1  0.61782900  0.78482462  0.82577402  1
  H+  H186  1  0.18492835  0.84337735  0.22519899  1
  H+  H187  1  0.27277975  0.62464476  0.49244956  1
  H+  H188  1  0.84741259  0.91702009  0.61274201  1
  H+  H189  1  0.22333819  0.35962845  0.66718308  1
  H+  H190  1  0.37910770  1.02732614  0.65608333  1
  H+  H191  1  0.72033879  0.11651950  0.50714211  1
  H+  H192  1  0.61721625  0.24402330  0.33178731  1
  H+  H193  1  0.36462344  0.45269602  0.83598941  1
  H+  H194  1  0.33962621  0.68222053  0.70384734  1
  H+  H195  1  0.36013685  0.37137785  1.00241024  1
  H+  H196  1  0.37223356  0.14253204  0.49601875  1
  H+  H197  1  0.63578787  0.27350527  0.99644542  1
  H+  H198  1  0.61420233  -0.01905088  1.00303748  1
  H+  H199  1  0.09391502  0.61722346  0.82945133  1
  H+  H200  1  0.63593161  0.36228507  0.66426119  1
  H+  H201  1  0.02577831  0.89723763  0.82822482  1
  H+  H202  1  0.14163654  0.61223872  0.16758546  1
  H+  H203  1  1.02294569  0.12379058  1.00572208  1
  H+  H204  1  0.61397088  0.89226270  0.00984109  1
  H+  H205  1  0.63533347  0.27340964  0.50737781  1
  H+  H206  1  0.61514822  0.73122814  0.34172723  1
  H+  H207  1  0.88979706  0.02746615  0.83460609  1
  H+  H208  1  0.07962642  0.17454213  0.74297011  1
  H+  H209  1  0.71628019  0.61119055  0.15580289  1
  H+  H210  1  0.71631844  0.36741522  1.00097515  1
  H+  H211  1  1.00277491  0.14150166  0.17157658  1
  H+  H212  1  0.38692255  0.76809106  -0.00612502  1
  H+  H213  1  0.09704242  0.66231160  0.47515669  1
  H+  H214  1  0.13380981  0.36121871  0.66663870  1
  H+  H215  1  0.39586768  0.29662083  0.92479570  1
  H+  H216  1  0.64148932  0.86364773  0.16246369  1
  H+  H217  1  0.14694331  0.64206351  0.32003119  1
  H+  H218  1  0.90744341  0.31856093  0.22273718  1
  H+  H219  1  0.30285041  0.58733350  0.85496285  1
  H+  H220  1  0.75871964  0.37287947  0.81081165  1
  H+  H221  1  0.36843412  0.70605696  0.15464460  1
  H+  H222  1  0.62912696  0.51899458  0.50750684  1
  H+  H223  1  0.88484020  0.86201789  0.83634079  1
  H+  H224  1  0.88648211  0.85421294  0.51553302  1
  H+  H225  1  0.11513493  0.89411438  0.49210146  1
  H+  H226  1  0.41640969  0.91776709  0.81702919  1
  H+  H227  1  0.10787143  0.88771790  0.83463580  1
  H+  H228  1  0.61098845  0.47042800  0.67514247  1
  H+  H229  1  0.97465089  0.60793009  0.65641222  1
  H+  H230  1  0.21406823  0.58849538  0.66137028  1
  H+  H231  1  0.86309819  0.12410726  0.34632208  1
  H+  H232  1  1.01211014  0.36457717  0.34643713  1
  H+  H233  1  0.89970608  0.77958966  0.32706099  1
  H+  H234  1  0.16461014  1.05014666  0.84014801  1
  H+  H235  1  0.17421179  0.84038688  0.56650918  1
  H+  H236  1  0.10062440  0.21904107  0.00286770  1
  H+  H237  1  0.10426348  0.72859796  0.00567860  1
  H+  H238  1  0.47061093  0.35615675  0.66173242  1
  H+  H239  1  0.60079923  0.70861166  1.00081718  1
  H+  H240  1  0.14775579  0.77555741  0.16892161  1
  H+  H241  1  0.35672947  0.63811458  0.33840206  1
  H+  H242  1  0.52138540  0.38652977  0.49864012  1
  H+  H243  1  0.64408782  1.02608225  0.16406433  1
  H+  H244  1  0.21642354  0.36581736  0.83989727  1
  H+  H245  1  0.26447870  0.13512756  0.67647093  1
  H+  H246  1  0.84838950  0.43517605  0.33774212  1
  H+  H247  1  0.22896175  0.60792958  0.16643252  1
  H+  H248  1  0.41319540  0.32820233  0.60189266  1
  H+  H249  1  0.40934692  0.90385864  0.18460737  1
  H+  H250  1  0.15110269  0.36967839  0.15423380  1
  H+  H251  1  0.85452115  0.75162046  0.15204602  1
  H+  H252  1  0.40307614  1.05386699  0.84199046  1
  H+  H253  1  0.23931605  0.36653874  0.16036748  1
  H+  H254  1  0.14841638  0.12130570  0.18240144  1
  H+  H255  1  0.23440804  0.10000578  0.33340749  1
  H+  H256  1  0.87229940  0.48384169  0.16972596  1
  H+  H257  1  0.83358626  0.34168302  0.33866053  1
  H+  H258  1  0.91382513  0.21269589  -0.00304511  1
  H+  H259  1  0.63431949  0.77017520  0.50826258  1
  H+  H260  1  0.61853278  0.89414298  0.67021449  1
  H+  H261  1  0.72875964  0.60733733  0.65783634  1
  H+  H262  1  0.34200096  0.00134080  0.14160732  1
  H+  H263  1  0.11980350  0.48078769  0.15514434  1
  H+  H264  1  0.03156706  0.89097105  0.33933255  1
  H+  H265  1  0.90867738  1.02551293  0.33469302  1
  H+  H266  1  0.14500981  0.85271422  0.66774241  1
  H+  H267  1  0.85651952  0.37779008  0.81912887  1
  H+  H268  1  0.37350965  0.89892106  0.66250925  1
  H+  H269  1  0.73141675  0.86009865  0.01616949  1
  H+  H270  1  0.77462829  0.88173455  0.49867593  1
  H+  H271  1  0.12278656  0.98438463  0.00186561  1
  H+  H272  1  0.87594276  0.15010244  0.14585957  1
  H+  H273  1  0.46834585  0.60200935  0.66140728  1
  H+  H274  1  0.63525229  0.10737658  0.83034792  1
  H+  H275  1  0.35519705  0.09927488  0.35276937  1
  H+  H276  1  0.12464105  0.12860588  0.35199250  1
  H+  H277  1  0.37890054  0.77635119  0.33334686  1
  H+  H278  1  0.38025909  0.25002766  0.32355442  1
  H+  H279  1  0.61159279  0.38883102  0.49653055  1
  H+  H280  1  0.10936179  0.23304364  0.68164788  1
  H+  H281  1  0.88181347  0.53003648  0.99393558  1
  H+  H282  1  0.37851458  0.90222040  0.16088325  1
  H+  H283  1  0.38482527  0.61435355  0.51086624  1
  H+  H284  1  -0.00464973  0.86342033  0.66907998  1
  H+  H285  1  0.13416619  0.34863601  0.50923077  1
  H+  H286  1  0.19846392  0.84051553  0.84189408  1
  H+  H287  1  0.20325891  0.34463828  0.31367775  1
  H+  H288  1  0.41428564  0.08610591  0.56842424  1
  H+  H289  1  0.33641868  0.65176719  0.05690600  1
  H+  H290  1  0.32730572  0.41158448  0.77072939  1
  H+  H291  1  0.66418596  0.57940561  0.60047912  1
  H+  H292  1  0.07254933  0.65090332  0.72962204  1
  H+  H293  1  0.31919064  0.61671075  0.78562186  1
  H+  H294  1  0.82161081  0.16221259  0.43872803  1
  H+  H295  1  0.33202373  0.66365032  0.43342522  1
  H+  H296  1  0.42716542  0.84969739  0.58368028  1
  H+  H297  1  0.56975910  0.40061150  0.39974760  1
  H+  H298  1  0.83124205  0.66133593  0.73383554  1
  H+  H299  1  0.93167472  0.08379084  0.27488929  1
  H+  H300  1  0.91286036  0.58750018  0.90243030  1
  H+  H301  1  0.16295698  0.32501938  0.57193244  1
  H+  H302  1  0.82983120  0.40545143  0.43925878  1
  H+  H303  1  0.66507392  0.83411757  0.56495947  1
  H+  H304  1  0.78715293  0.24200902  0.27275210  1
  H+  H305  1  0.50265086  0.34662869  0.82350012  1
  H+  H306  1  0.89710532  1.02271009  0.52078862  1
  H+  H307  1  0.67038685  0.08519901  0.92808255  1
  H+  H308  1  0.98850961  0.10912559  0.51865119  1
  H+  H309  1  0.83238637  0.91638278  0.76131729  1
  H+  H310  1  0.61793326  0.59398969  0.98229008  1
  H+  H311  1  0.47361632  0.61322402  0.51398245  1
  H+  H312  1  0.19180487  0.11021524  0.57377739  1
  H+  H313  1  0.85190280  0.18264581  0.05535128  1
  H+  H314  1  0.88607440  0.60923118  0.65965818  1
  H+  H315  1  0.84933837  0.91640663  0.44794691  1
  H+  H316  1  0.57353265  0.90467346  0.40235751  1
  H+  H317  1  0.39293769  0.01620828  0.28566316  1
  H+  H318  1  0.15411131  0.33340386  0.25257902  1
  H+  H319  1  0.66933536  0.69803085  0.37445323  1
  H+  H320  1  0.27925217  0.88257728  0.67521663  1
  H+  H321  1  0.08208860  0.66416288  0.10034524  1
  H+  H322  1  0.57205516  0.15148600  0.40891321  1
  H+  H323  1  0.16220356  0.56272585  0.59787757  1
  H+  H324  1  0.41614782  0.32020337  0.23144675  1
  H+  H325  1  0.57735213  0.66361029  0.44280753  1
  H+  H326  1  0.83400262  0.67421523  0.39081806  1
  H+  H327  1  0.92413326  0.82382697  0.57013064  1
  H+  H328  1  0.18749965  0.10291174  0.90194447  1
  H+  H329  1  0.07774064  0.90363482  0.09751775  1
  H+  H330  1  0.33356695  0.16319495  0.06442735  1
  H+  H331  1  0.41130713  0.57968911  0.60061639  1
  H+  H332  1  0.38818345  0.87212098  0.32637604  1
  H+  H333  1  0.91034670  0.58209902  0.56195568  1
  H+  H334  1  0.84693181  0.92078247  0.07119715  1
  H+  H335  1  0.65833281  0.83261392  0.88862840  1
  H+  H336  1  0.07920424  0.69564024  0.38432739  1
  H+  H337  1  0.65810250  0.82551705  0.22209885  1
  H+  H338  1  0.81741222  0.66615946  0.05125536  1
  H+  H339  1  0.15289902  0.12312602  0.51321537  1
  H+  H340  1  0.88190665  0.27149412  0.66205219  1
  H+  H341  1  0.08099940  0.43120124  0.06124833  1
  H+  H342  1  0.83228398  0.41088567  0.75259375  1
  H+  H343  1  0.67004742  0.31473631  0.23831731  1
  H+  H344  1  0.91714168  0.33164196  0.56704998  1
  H+  H345  1  0.42344077  0.10035505  0.90793453  1
  H+  H346  1  0.66539910  0.08859335  0.59595906  1
  H+  H347  1  0.46138892  0.58765794  0.96744448  1
  H+  H348  1  0.17651408  0.08222152  0.27217962  1
  H+  H349  1  0.65080837  0.56184872  0.89393820  1
  H+  H350  1  0.40804803  0.83018997  0.90023838  1
  H+  H351  1  0.08902252  0.16459919  0.09792344  1
  H+  H352  1  0.14676340  0.81878894  0.90383659  1
  H+  H353  1  0.59329503  0.92890498  0.75544730  1
  H+  H354  1  0.13619835  0.32149079  0.92962676  1
  H+  H355  1  0.66556432  0.33264924  0.56666858  1
  H+  H356  1  0.97942179  0.11606858  0.84143473  1
  H+  H357  1  0.57875888  0.91440515  0.09830662  1
  H+  H358  1  0.16050735  0.60168757  0.91337338  1
  H+  H359  1  0.57554984  0.40436444  0.73201296  1
  H+  H360  1  0.43860741  0.13430760  0.22640751  1
  H+  H361  1  0.38266702  0.86425090  0.49654758  1
  H+  H362  1  0.34197375  0.92928369  0.42927384  1
  H+  H363  1  0.22186838  0.86064684  0.98639661  1
  H+  H364  1  0.64900544  0.26662137  0.17399215  1
  H+  H365  1  0.66743019  0.58033579  0.21852257  1
  H+  H366  1  0.34796325  0.41349208  0.09581617  1
  H+  H367  1  0.83538760  0.43514318  0.07349634  1
  H+  H368  1  0.40830277  0.57339050  0.26205530  1
  H+  H369  1  0.60957573  0.13378557  1.00286005  1
  H+  H370  1  0.58245662  0.16163662  0.72763528  1
  H+  H371  1  0.10095996  0.36767263  0.33478310  1
  H+  H372  1  0.43176566  0.81147477  0.24386204  1
  H+  H373  1  0.08832831  0.15532621  0.44391174  1
  H+  H374  1  0.31916960  0.93053228  0.05198644  1
  H+  H375  1  0.87398528  0.99208347  0.65922621  1
  H+  H376  1  0.47136393  0.86104241  0.99400288  1
  H+  H377  1  0.38815092  0.94816606  0.75659164  1
  H+  H378  1  0.56583482  0.64450231  0.05554863  1
  H+  H379  1  0.09707834  0.91675680  0.74382751  1
  H+  H380  1  0.58171495  0.16425442  0.09844496  1
  H+  H381  1  0.07820233  0.39324839  0.43175094  1
  H+  H382  1  0.77713171  0.73409259  0.11038082  1
  H+  H383  1  0.91147387  0.07025735  0.92937742  1
  O2-  O384  1  0.09107378  0.17027024  0.14327602  1
  O2-  O385  1  0.08582892  0.15610245  0.49016602  1
  O2-  O386  1  0.08299017  0.17215201  0.81977521  1
  O2-  O387  1  0.09064717  0.42217487  0.13528383  1
  O2-  O388  1  0.08128546  0.39680120  0.47834030  1
  O2-  O389  1  0.07637289  0.42297277  0.81080820  1
  O2-  O390  1  0.08933614  0.66455778  0.14514754  1
  O2-  O391  1  0.06416088  0.69126809  0.47007527  1
  O2-  O392  1  0.05581696  0.64890766  0.81134923  1
  O2-  O393  1  0.06439633  0.88833719  0.14083445  1
  O2-  O394  1  0.07678402  0.91149753  0.47180343  1
  O2-  O395  1  0.08774673  0.92572189  0.81702317  1
  O2-  O396  1  0.33658458  0.16912233  0.14072837  1
  O2-  O397  1  0.34397743  0.17337679  0.47811820  1
  O2-  O398  1  0.36088223  0.19904425  0.82595060  1
  O2-  O399  1  0.34553672  0.41467994  0.14216096  1
  O2-  O400  1  0.33811497  0.41026751  0.49648038  1
  O2-  O401  1  0.31472205  0.40764648  0.81502443  1
  O2-  O402  1  0.33361512  0.64930526  0.13522687  1
  O2-  O403  1  0.33300894  0.66389006  0.47936203  1
  O2-  O404  1  0.33746148  0.63579820  0.82818016  1
  O2-  O405  1  0.29754374  0.96173342  0.11358440  1
  O2-  O406  1  0.33969465  0.92251812  0.47523580  1
  O2-  O407  1  0.42237697  0.96911502  0.79487584  1
  O2-  O408  1  0.58469893  0.16428865  0.14389032  1
  O2-  O409  1  0.58178127  0.16975996  0.48374580  1
  O2-  O410  1  0.55775858  0.12014827  0.79498033  1
  O2-  O411  1  0.58269941  0.39622076  0.15646437  1
  O2-  O412  1  0.58193200  0.41960443  0.48200477  1
  O2-  O413  1  0.56427394  0.38544966  0.80787668  1
  O2-  O414  1  0.57744758  0.65518315  0.13623934  1
  O2-  O415  1  0.57707315  0.66355177  0.48793040  1
  O2-  O416  1  0.53906200  0.71128368  0.78700921  1
  O2-  O417  1  0.58896950  0.91273081  0.14285217  1
  O2-  O418  1  0.58115685  0.91525694  0.47888740  1
  O2-  O419  1  0.59870603  0.93326889  0.80242910  1
  O2-  O420  1  0.84393561  0.17599459  0.12705957  1
  O2-  O421  1  0.81099383  0.16538096  0.48263500  1
  O2-  O422  1  0.83349896  0.16973342  0.81337378  1
  O2-  O423  1  0.84456208  0.42445809  0.15188760  1
  O2-  O424  1  0.83331742  0.41566850  0.48379773  1
  O2-  O425  1  0.82520861  0.40628849  0.79955526  1
  O2-  O426  1  0.80858835  0.70624553  0.12445942  1
  O2-  O427  1  0.82110948  0.66160312  0.47458180  1
  O2-  O428  1  0.82597492  0.66143898  0.81407053  1
  O2-  O429  1  0.84236862  0.92962604  0.15140917  1
  O2-  O430  1  0.83817877  0.90994507  0.49243379  1
  O2-  O431  1  0.83178738  0.91743007  0.80572571  1
  O2-  O432  1  0.18017372  0.09585722  0.20143007  1
  O2-  O433  1  0.19332012  0.10473621  0.52959448  1
  O2-  O434  1  0.19399274  0.10959620  0.85590154  1
  O2-  O435  1  0.17646857  0.33601835  0.17081429  1
  O2-  O436  1  0.16652714  0.32208849  0.52692824  1
  O2-  O437  1  0.15429943  0.33512619  0.85251606  1
  O2-  O438  1  0.16969425  0.57985929  0.18332142  1
  O2-  O439  1  0.16747980  0.55040869  0.51945528  1
  O2-  O440  1  0.13922010  0.58354037  0.84831698  1
  O2-  O441  1  0.17310168  0.83711624  0.17954382  1
  O2-  O442  1  0.17398907  0.84752646  0.52162975  1
  O2-  O443  1  0.13989303  0.81408753  0.85744270  1
  O2-  O444  1  0.43055835  0.09348551  0.19443627  1
  O2-  O445  1  0.42129398  0.08871688  0.52199543  1
  O2-  O446  1  0.42781370  0.11105302  0.86131868  1
  O2-  O447  1  0.42058630  0.32552148  0.18596819  1
  O2-  O448  1  0.42311154  0.33383560  0.52677753  1
  O2-  O449  1  0.40655226  0.28761855  0.85039849  1
  O2-  O450  1  0.41356779  0.57147770  0.18402798  1
  O2-  O451  1  0.41376332  0.58526064  0.53048539  1
  O2-  O452  1  0.49424570  0.63696296  0.82833431  1
  O2-  O453  1  0.45043693  0.79168172  0.20688480  1
  O2-  O454  1  0.41267661  0.83367835  0.51343828  1
  O2-  O455  1  0.40833321  0.83137087  0.85499080  1
  O2-  O456  1  0.67288403  0.08824062  0.17297800  1
  O2-  O457  1  0.65918540  0.08317256  0.52566869  1
  O2-  O458  1  0.67006413  0.08266479  0.84732937  1
  O2-  O459  1  0.68242725  0.32420403  0.19383492  1
  O2-  O460  1  0.66790950  0.33487853  0.52162484  1
  O2-  O461  1  0.66978228  0.32772712  0.82277681  1
  O2-  O462  1  0.65833107  0.57415285  0.17285955  1
  O2-  O463  1  0.65890296  0.58016891  0.52357984  1
  O2-  O464  1  0.65484934  0.56016029  0.84754473  1
  O2-  O465  1  0.67061319  0.83140622  0.17782115  1
  O2-  O466  1  0.66654938  0.83256420  0.51975064  1
  O2-  O467  1  0.66333275  0.84125704  0.84463235  1
  O2-  O468  1  0.94602637  0.12823952  0.19327705  1
  O2-  O469  1  0.92962302  0.08110431  0.53770877  1
  O2-  O470  1  0.91689062  0.08521038  0.85356854  1
  O2-  O471  1  0.92097373  0.33239438  0.17903745  1
  O2-  O472  1  0.91814462  0.33247520  0.52173161  1
  O2-  O473  1  0.90604064  0.33729891  0.85077799  1
  O2-  O474  1  0.92637550  0.59042069  0.19089779  1
  O2-  O475  1  0.90908701  0.58362906  0.51655905  1
  O2-  O476  1  0.91259958  0.58819096  0.85569551  1
  O2-  O477  1  0.92087672  0.83607816  0.19148748  1
  O2-  O478  1  0.91639248  0.82136725  0.52543446  1
  O2-  O479  1  0.91453181  0.83133543  0.85058802  1
  O2-  O480  1  0.17360884  0.07398255  0.31842544  1
  O2-  O481  1  0.14665303  0.08427845  0.65716213  1
  O2-  O482  1  0.17489476  0.08860708  0.97524993  1
  O2-  O483  1  0.14490761  0.32661729  0.29690033  1
  O2-  O484  1  0.16258069  0.32927524  0.65199270  1
  O2-  O485  1  0.11709997  0.30664070  0.97257035  1
  O2-  O486  1  0.18059489  0.61332356  0.31089151  1
  O2-  O487  1  0.15663166  0.56762952  0.64274855  1
  O2-  O488  1  0.17915094  0.62100657  0.95924678  1
  O2-  O489  1  0.19672664  0.85276401  0.29598019  1
  O2-  O490  1  0.17414037  0.82419989  0.64818651  1
  O2-  O491  1  0.15892514  0.82922258  0.97519382  1
  O2-  O492  1  0.39763590  0.02402355  0.33003276  1
  O2-  O493  1  0.40669334  0.08597162  0.63912770  1
  O2-  O494  1  0.41652710  0.08570637  0.97599725  1
  O2-  O495  1  0.40627146  0.30949396  0.30836001  1
  O2-  O496  1  0.41010794  0.32808364  0.64781369  1
  O2-  O497  1  0.39705601  0.30524906  0.97015984  1
  O2-  O498  1  0.40255293  0.57449021  0.30742766  1
  O2-  O499  1  0.40910158  0.57377193  0.64735184  1
  O2-  O500  1  0.40143212  0.55836507  0.95316063  1
  O2-  O501  1  0.41363570  0.83473168  0.31446573  1
  O2-  O502  1  0.43390629  0.85497537  0.63015167  1
  O2-  O503  1  0.41044607  0.82888657  0.98057301  1
  O2-  O504  1  0.67098030  0.07422271  0.32771928  1
  O2-  O505  1  0.66733155  0.09268375  0.64292939  1
  O2-  O506  1  0.67153609  0.08551772  0.97329743  1
  O2-  O507  1  0.64967371  0.30425345  0.31599802  1
  O2-  O508  1  0.66666383  0.33135917  0.64930303  1
  O2-  O509  1  0.66128235  0.33229661  0.97970224  1
  O2-  O510  1  0.68312745  0.59332918  0.28968215  1
  O2-  O511  1  0.66685418  0.58041922  0.64637993  1
  O2-  O512  1  0.64857535  0.56472945  0.96591146  1
  O2-  O513  1  0.63942069  0.82555846  0.30352732  1
  O2-  O514  1  0.66976439  0.84279693  0.64586252  1
  O2-  O515  1  0.66652379  0.83007493  1.01732631  1
  O2-  O516  1  0.92805174  0.08449314  0.31955071  1
  O2-  O517  1  0.91538185  0.08991141  0.65211485  1
  O2-  O518  1  0.90870048  0.06516766  0.97506856  1
  O2-  O519  1  0.84369300  0.27406438  0.29179237  1
  O2-  O520  1  0.91211838  0.33204403  0.64667653  1
  O2-  O521  1  0.91076722  0.35964708  0.97357006  1
  O2-  O522  1  0.92912231  0.62443229  0.30115194  1
  O2-  O523  1  0.91358060  0.57775598  0.64185140  1
  O2-  O524  1  0.91216277  0.58840348  0.97348844  1
  O2-  O525  1  0.93619780  0.84204977  0.31307322  1
  O2-  O526  1  0.93482701  0.83284692  0.65400591  1
  O2-  O527  1  0.92137309  0.83219778  0.97433823  1
  O2-  O528  1  0.08274891  0.15978577  0.01969414  1
  O2-  O529  1  0.09677274  0.15736714  0.37248569  1
  O2-  O530  1  0.07624670  0.17203673  0.69738758  1
  O2-  O531  1  0.07277989  0.43019250  0.01559217  1
  O2-  O532  1  0.07107029  0.39249042  0.36059223  1
  O2-  O533  1  0.07344013  0.40678388  0.68947094  1
  O2-  O534  1  0.07260702  0.66685708  0.01892748  1
  O2-  O535  1  0.08764625  0.69353698  0.34035358  1
  O2-  O536  1  0.07761895  0.65491501  0.68444855  1
  O2-  O537  1  0.09291956  0.92291234  0.01557629  1
  O2-  O538  1  0.09014397  0.92435305  0.35928421  1
  O2-  O539  1  0.10204552  0.91342180  0.69803050  1
  O2-  O540  1  0.33182720  0.15724525  0.01895094  1
  O2-  O541  1  0.33425976  0.13983195  0.35975238  1
  O2-  O542  1  0.32465289  0.16056468  0.68863193  1
  O2-  O543  1  0.34128578  0.40810545  0.02325049  1
  O2-  O544  1  0.30753421  0.38809737  0.33600250  1
  O2-  O545  1  0.32754817  0.40636200  0.69150732  1
  O2-  O546  1  0.33871379  0.65738188  0.01147250  1
  O2-  O547  1  0.33251503  0.67172997  0.35703107  1
  O2-  O548  1  0.30923145  0.61972386  0.70467717  1
  O2-  O549  1  0.32452287  0.91789658  0.00745746  1
  O2-  O550  1  0.35128873  0.93351921  0.35311160  1
  O2-  O551  1  0.34109134  0.92041579  0.68593245  1
  O2-  O552  1  0.57997587  0.16258450  0.02048471  1
  O2-  O553  1  0.56998942  0.14284167  0.36348829  1
  O2-  O554  1  0.59839565  0.17629011  0.68314034  1
  O2-  O555  1  0.55371119  0.39123978  0.00434964  1
  O2-  O556  1  0.56254699  0.39170023  0.35523361  1
  O2-  O557  1  0.58190159  0.40874278  0.68659080  1
  O2-  O558  1  0.56810206  0.64682363  0.01020082  1
  O2-  O559  1  0.60999002  0.68050520  0.36424639  1
  O2-  O560  1  0.63681444  0.69167511  0.70229552  1
  O2-  O561  1  0.58061476  0.92120349  0.01916980  1
  O2-  O562  1  0.57078710  0.90247931  0.35666935  1
  O2-  O563  1  0.58907307  0.92554174  0.68572634  1
  O2-  O564  1  0.85339404  0.18529381  0.00880737  1
  O2-  O565  1  0.83036815  0.15242453  0.35967199  1
  O2-  O566  1  0.83085291  0.16850836  0.69077298  1
  O2-  O567  1  0.83034914  0.43741668  0.02828787  1
  O2-  O568  1  0.81863455  0.38180089  0.36052448  1
  O2-  O569  1  0.83410924  0.41563341  0.68407129  1
  O2-  O570  1  0.81760551  0.66126465  0.00635019  1
  O2-  O571  1  0.83851986  0.68309134  0.34613658  1
  O2-  O572  1  0.83395952  0.66235650  0.68844599  1
  O2-  O573  1  0.83797302  0.90972969  0.02663693  1
  O2-  O574  1  0.86976564  0.92299010  0.36737403  1
  O2-  O575  1  0.84413812  0.92553102  0.65643736  1
