# generated using pymatgen
data_H2O
_symmetry_space_group_name_H-M   'P 1'
_cell_length_a   17.97789003
_cell_length_b   17.97801859
_cell_length_c   21.99159623
_cell_angle_alpha   90.00633761
_cell_angle_beta   89.99684342
_cell_angle_gamma   120.00559739
_symmetry_Int_Tables_number   1
_chemical_formula_structural   H2O
_chemical_formula_sum   'H384 O192'
_cell_volume   6155.21785058
_cell_formula_units_Z   192
loop_
 _symmetry_equiv_pos_site_id
 _symmetry_equiv_pos_as_xyz
  1  'x, y, z'
loop_
 _atom_type_symbol
 _atom_type_oxidation_number
  H+  1.0
  O2-  -2.0
loop_
 _atom_site_type_symbol
 _atom_site_label
 _atom_site_symmetry_multiplicity
 _atom_site_fract_x
 _atom_site_fract_y
 _atom_site_fract_z
 _atom_site_occupancy
  H+  H0  1  0.38791674  0.72329494  0.84969359  1
  H+  H1  1  0.37474000  0.59445979  0.31700110  1
  H+  H2  1  0.23590575  0.84098495  1.01310437  1
  H+  H3  1  0.25636694  0.15103888  0.15847211  1
  H+  H4  1  0.42053619  0.58182960  0.92848990  1
  H+  H5  1  0.85752988  0.23510445  0.85765384  1
  H+  H6  1  0.77582310  0.89117037  0.81312662  1
  H+  H7  1  0.88718021  0.01571589  1.01384709  1
  H+  H8  1  0.94089321  0.15007481  0.65311122  1
  H+  H9  1  0.14605143  0.11442309  0.66096311  1
  H+  H10  1  0.24036718  0.85521326  0.33286408  1
  H+  H11  1  0.87608307  0.92629496  0.82486628  1
  H+  H12  1  0.52570869  0.14476928  0.66805977  1
  H+  H13  1  0.73128443  0.37012849  0.49997626  1
  H+  H14  1  0.22516476  0.86953058  0.65814577  1
  H+  H15  1  0.55918873  0.88410434  0.77253434  1
  H+  H16  1  0.66242322  0.57062855  0.95350317  1
  H+  H17  1  0.26456376  0.97927436  0.77721322  1
  H+  H18  1  0.60441292  0.13911413  0.47369816  1
  H+  H19  1  0.92340190  0.59956959  0.59931777  1
  H+  H20  1  0.84473192  0.71850994  0.67302121  1
  H+  H21  1  0.35266085  0.61082623  0.81925777  1
  H+  H22  1  0.37933059  0.23990655  0.33534117  1
  H+  H23  1  0.37809984  0.50742155  0.33024414  1
  H+  H24  1  0.36243227  0.88805310  0.66921934  1
  H+  H25  1  0.63093738  0.62416250  0.33049847  1
  H+  H26  1  0.87710187  0.85764633  0.50448319  1
  H+  H27  1  0.76834963  0.62172065  0.02041738  1
  H+  H28  1  0.28380985  0.18658084  0.47127637  1
  H+  H29  1  0.60399028  0.09709365  0.64165594  1
  H+  H30  1  0.01516666  0.14280158  0.17115861  1
  H+  H31  1  0.85781095  0.14464362  0.46909116  1
  H+  H32  1  0.85361828  0.38919851  0.80620240  1
  H+  H33  1  0.63327155  0.60712199  0.00953838  1
  H+  H34  1  0.47943589  0.12368576  0.31397443  1
  H+  H35  1  0.25495435  0.37603395  0.82332611  1
  H+  H36  1  0.39697086  0.89979324  0.34292711  1
  H+  H37  1  0.89021803  0.31170088  0.65975787  1
  H+  H38  1  0.83139480  0.68568776  0.82064699  1
  H+  H39  1  0.57935587  0.17912869  0.38684369  1
  H+  H40  1  0.02799610  0.87782162  0.34919147  1
  H+  H41  1  0.63314964  0.76500204  0.01360270  1
  H+  H42  1  0.11399669  0.14385469  0.48500799  1
  H+  H43  1  0.61918194  0.39937084  0.65714333  1
  H+  H44  1  0.67578526  0.07416774  0.62872344  1
  H+  H45  1  0.57517628  0.66248259  0.40163425  1
  H+  H46  1  0.13349295  0.52699796  0.66517173  1
  H+  H47  1  0.34150440  0.39636910  0.00330279  1
  H+  H48  1  0.11591221  0.87525864  0.35602766  1
  H+  H49  1  0.40323982  0.15684615  0.14831176  1
  H+  H50  1  0.61037581  0.64482380  0.49840568  1
  H+  H51  1  0.91720170  0.14124270  0.62325484  1
  H+  H52  1  1.00828592  0.38979241  0.83690170  1
  H+  H53  1  0.02015066  0.40904105  0.66965832  1
  H+  H54  1  0.12206536  0.71675630  0.34719342  1
  H+  H55  1  0.86589436  0.41599499  0.66523983  1
  H+  H56  1  0.67064711  0.33391711  0.59418304  1
  H+  H57  1  0.73280813  0.35978426  0.99227157  1
  H+  H58  1  0.86247125  0.88269604  0.01724392  1
  H+  H59  1  0.72758964  0.37186851  0.65430704  1
  H+  H60  1  0.59286494  0.16989854  0.05886825  1
  H+  H61  1  0.09772974  0.08306029  0.18041987  1
  H+  H62  1  0.85564497  0.86556541  0.66177111  1
  H+  H63  1  0.22241048  0.86046548  0.50580355  1
  H+  H64  1  0.49982349  0.37274901  0.83487836  1
  H+  H65  1  0.61228204  0.47732805  0.33915612  1
  H+  H66  1  0.90827182  0.26907918  0.00790145  1
  H+  H67  1  0.56673153  0.64813730  0.72772797  1
  H+  H68  1  0.10660063  0.15479170  0.02147027  1
  H+  H69  1  0.88285498  0.28137611  0.50243670  1
  H+  H70  1  0.21455946  0.61003896  0.51531560  1
  H+  H71  1  0.49292551  0.81801437  0.84716488  1
  H+  H72  1  0.76891682  0.37912518  0.17434263  1
  H+  H73  1  0.51805086  0.63611968  0.49515002  1
  H+  H74  1  0.64146474  0.28136135  0.49697300  1
  H+  H75  1  0.89310635  0.36608589  0.18016939  1
  H+  H76  1  0.92231330  0.09896104  0.40824022  1
  H+  H77  1  0.11097465  0.46969009  0.50168293  1
  H+  H78  1  0.35390451  0.86520985  0.85482490  1
  H+  H79  1  0.63516874  0.11229102  0.99242062  1
  H+  H80  1  0.63522794  1.02213113  -0.00680371  1
  H+  H81  1  0.21771765  0.83872271  0.18264363  1
  H+  H82  1  -0.01988527  0.60791160  0.33157491  1
  H+  H83  1  0.36573614  0.38054102  0.34273299  1
  H+  H84  1  0.60473446  0.88665298  0.47230270  1
  H+  H85  1  0.64337928  0.82579739  0.26811014  1
  H+  H86  1  0.25641910  0.40439777  0.00783056  1
  H+  H87  1  0.62391223  0.22919655  0.00033200  1
  H+  H88  1  0.37263887  0.14568088  0.33384585  1
  H+  H89  1  0.33006300  0.66524103  0.57022602  1
  H+  H90  1  0.31822242  0.65819920  0.25483671  1
  H+  H91  1  0.39781354  0.27972274  0.65015214  1
  H+  H92  1  0.12443939  0.33242562  0.34635461  1
  H+  H93  1  0.87895858  0.52707279  0.50012775  1
  H+  H94  1  0.09764436  0.23075136  0.83433036  1
  H+  H95  1  0.76853768  0.63436356  0.51350569  1
  H+  H96  1  0.36461816  0.72000510  0.16592855  1
  H+  H97  1  0.35070303  0.71017382  0.31489247  1
  H+  H98  1  0.49361089  0.23492377  0.94380244  1
  H+  H99  1  0.11026903  0.29726915  1.00437864  1
  H+  H100  1  0.88514230  0.11229485  0.18762676  1
  H+  H101  1  0.09997449  0.14106883  0.83368790  1
  H+  H102  1  0.87116273  0.37792160  0.01742515  1
  H+  H103  1  0.61194419  0.88481875  1.01768834  1
  H+  H104  1  0.86521736  0.88330503  0.17906201  1
  H+  H105  1  0.62749406  0.11718576  0.32237171  1
  H+  H106  1  0.14100008  0.50206026  0.98653073  1
  H+  H107  1  0.38251591  0.51594471  0.50242923  1
  H+  H108  1  0.97172966  0.84851419  1.00668270  1
  H+  H109  1  0.63006369  0.77838799  0.49765891  1
  H+  H110  1  0.09397787  -0.04314592  0.17374802  1
  H+  H111  1  0.37874284  0.76802204  0.65682023  1
  H+  H112  1  0.38845925  0.60542546  0.17939730  1
  H+  H113  1  0.85647510  0.71025893  0.02011142  1
  H+  H114  1  0.87804759  0.03438983  0.82664667  1
  H+  H115  1  0.61925342  0.88645926  0.16674703  1
  H+  H116  1  0.87014744  0.23078534  0.16627628  1
  H+  H117  1  0.26757078  0.62084033  0.82621165  1
  H+  H118  1  0.47639989  0.86769518  0.50023951  1
  H+  H119  1  0.63818741  0.74304435  0.80017814  1
  H+  H120  1  -0.03609632  0.86652102  0.65649695  1
  H+  H121  1  0.51292966  0.62511454  0.34311243  1
  H+  H122  1  0.77485728  0.08871372  0.65050579  1
  H+  H123  1  0.35955613  0.47104769  0.16521840  1
  H+  H124  1  0.88317959  0.12803973  0.84318230  1
  H+  H125  1  0.36807790  0.59102669  0.65435956  1
  H+  H126  1  0.11067614  0.74326933  0.99764549  1
  H+  H127  1  0.88795561  0.60657523  0.17903331  1
  H+  H128  1  0.39011266  0.91014242  0.86074032  1
  H+  H129  1  0.94128469  0.10671144  0.28885370  1
  H+  H130  1  0.15291428  0.57726995  0.57120746  1
  H+  H131  1  0.51893643  0.14487116  0.48068517  1
  H+  H132  1  0.11751766  0.36105038  0.83855344  1
  H+  H133  1  0.10019107  0.63018950  0.50130898  1
  H+  H134  1  0.96580736  0.85485017  0.50645449  1
  H+  H135  1  0.24332307  0.11385880  0.13712759  1
  H+  H136  1  0.63596440  0.35928724  0.19148122  1
  H+  H137  1  0.46769939  0.59096755  0.81843068  1
  H+  H138  1  0.36385872  0.73222352  0.51782252  1
  H+  H139  1  -0.02923493  0.59471628  -0.00272281  1
  H+  H140  1  0.75715846  0.14487061  0.33341920  1
  H+  H141  1  0.63390622  0.27033767  0.82993142  1
  H+  H142  1  0.64220819  0.02280531  0.17598945  1
  H+  H143  1  0.41180254  0.03687981  1.03477361  1
  H+  H144  1  0.97686385  0.34742501  0.33478296  1
  H+  H145  1  0.50647402  0.86888689  0.67741460  1
  H+  H146  1  0.09016605  0.95411915  0.02524738  1
  H+  H147  1  0.10050902  0.47413789  0.83137029  1
  H+  H148  1  0.86041435  0.98032157  0.47590652  1
  H+  H149  1  0.36172219  0.87030506  0.17228608  1
  H+  H150  1  0.10708070  0.87151534  0.17185795  1
  H+  H151  1  0.37898265  0.97889373  0.34135000  1
  H+  H152  1  0.38256105  0.52759276  -0.01033899  1
  H+  H153  1  0.10660346  0.23117055  0.16964047  1
  H+  H154  1  0.87967805  0.76307271  0.18263497  1
  H+  H155  1  0.38201302  0.04513979  0.83209064  1
  H+  H156  1  0.41808444  0.57063574  0.23671980  1
  H+  H157  1  0.71704165  0.36445551  0.82693826  1
  H+  H158  1  0.27532535  0.15624312  0.00581521  1
  H+  H159  1  0.27561087  0.13525422  0.66486909  1
  H+  H160  1  0.58414415  0.42083468  0.39899962  1
  H+  H161  1  0.10409182  0.88579419  0.66892084  1
  H+  H162  1  0.12082075  0.85438053  0.84501990  1
  H+  H163  1  0.10083666  0.44961716  0.34961067  1
  H+  H164  1  0.11512355  1.00273286  0.50619944  1
  H+  H165  1  1.01405026  0.07907258  0.64082469  1
  H+  H166  1  0.84326275  0.60502454  0.83095714  1
  H+  H167  1  0.36084403  0.97839051  0.49220749  1
  H+  H168  1  0.66548206  0.58753609  0.23107654  1
  H+  H169  1  0.88342562  0.51764885  0.83968015  1
  H+  H170  1  0.11121043  0.83367929  1.00491071  1
  H+  H171  1  0.37557615  0.29395595  0.98995838  1
  H+  H172  1  0.86917195  0.39234992  0.34481370  1
  H+  H173  1  0.60576556  0.46678536  0.01749878  1
  H+  H174  1  0.35794207  0.71589019  0.01376822  1
  H+  H175  1  0.36810375  0.84875883  -0.00711390  1
  H+  H176  1  0.48167065  0.85958855  0.17655416  1
  H+  H177  1  0.41590546  0.28921631  0.16895164  1
  H+  H178  1  0.77505984  0.88433344  1.02427368  1
  H+  H179  1  0.75117912  0.86375932  0.66618106  1
  H+  H180  1  0.37111868  0.17444976  -0.00749625  1
  H+  H181  1  0.60471083  0.85046775  0.81851135  1
  H+  H182  1  0.19432025  0.03411092  0.97372057  1
  H+  H183  1  0.02183545  0.15408885  0.33443257  1
  H+  H184  1  0.53151805  0.39366846  0.17037689  1
  H+  H185  1  0.64222607  0.14598737  0.15338565  1
  H+  H186  1  0.86427726  0.46276664  0.01170870  1
  H+  H187  1  0.13313637  1.03513658  0.83317900  1
  H+  H188  1  0.88479621  0.51578087  0.17850309  1
  H+  H189  1  0.22377708  0.36199578  0.18533806  1
  H+  H190  1  0.32056738  0.41455783  0.10581015  1
  H+  H191  1  0.63747239  0.76989163  0.17298003  1
  H+  H192  1  0.88080776  0.10689732  0.01314301  1
  H+  H193  1  0.58913048  0.95822804  0.67798845  1
  H+  H194  1  0.27076088  0.36916881  0.34757511  1
  H+  H195  1  0.77610578  0.13216249  1.01440395  1
  H+  H196  1  0.11669616  0.38373931  0.50857895  1
  H+  H197  1  0.99905668  0.93446019  0.85353118  1
  H+  H198  1  0.49783012  0.16322225  0.98067367  1
  H+  H199  1  0.62869243  0.59175628  0.86351222  1
  H+  H200  1  0.56058830  0.90620239  0.41440181  1
  H+  H201  1  0.48535625  0.37072646  0.64911230  1
  H+  H202  1  0.77852558  0.14155385  0.16851130  1
  H+  H203  1  0.59697992  0.36769241  0.83184982  1
  H+  H204  1  0.87348172  0.79661834  0.79944898  1
  H+  H205  1  0.16528550  0.16471053  0.31906319  1
  H+  H206  1  1.00904218  0.35586832  0.99715889  1
  H+  H207  1  0.35255030  0.23397794  0.82299996  1
  H+  H208  1  0.61920287  0.39649535  0.48955089  1
  H+  H209  1  0.39037828  0.36395756  0.17287140  1
  H+  H210  1  0.97751421  0.36360213  0.50721537  1
  H+  H211  1  0.59389168  0.63145410  0.63687850  1
  H+  H212  1  0.36063606  0.15002968  0.82039364  1
  H+  H213  1  0.13850809  0.61038750  0.84272310  1
  H+  H214  1  0.88907843  0.02548079  0.19325478  1
  H+  H215  1  0.85211139  0.34067381  0.89023101  1
  H+  H216  1  0.86099977  0.24449400  0.33166737  1
  H+  H217  1  0.10603950  0.97601587  0.66961942  1
  H+  H218  1  0.09675598  0.87475974  0.50038005  1
  H+  H219  1  0.00635984  0.84233173  0.80332591  1
  H+  H220  1  0.19962800  0.57917262  0.31826269  1
  H+  H221  1  0.52322259  0.63498160  0.00906042  1
  H+  H222  1  0.90986147  0.57097299  0.90297366  1
  H+  H223  1  0.71314077  0.58456631  0.85069589  1
  H+  H224  1  0.63869175  0.27320806  0.18176064  1
  H+  H225  1  0.61267536  0.63265083  0.16106960  1
  H+  H226  1  0.52461227  0.88806116  0.01356800  1
  H+  H227  1  0.12854775  0.75166589  0.18238351  1
  H+  H228  1  0.42245578  1.02691501  0.00360861  1
  H+  H229  1  0.96976880  0.84959156  0.18011618  1
  H+  H230  1  0.43701790  0.84032739  0.24106370  1
  H+  H231  1  0.61891602  0.76499331  0.64672528  1
  H+  H232  1  0.72779693  0.85860981  0.18143623  1
  H+  H233  1  0.37580107  0.36455209  0.83242988  1
  H+  H234  1  0.39275047  0.03062824  0.65225321  1
  H+  H235  1  0.29961767  0.04233688  0.19797359  1
  H+  H236  1  0.13860235  0.61949005  0.66400365  1
  H+  H237  1  0.20139621  0.55966201  0.16580773  1
  H+  H238  1  0.88498358  0.79313444  0.83223273  1
  H+  H239  1  0.11259946  0.20296716  0.43010231  1
  H+  H240  1  0.57028784  0.86852269  0.32120315  1
  H+  H241  1  0.38342099  0.11828019  0.50064231  1
  H+  H242  1  0.16460019  0.32647958  0.24494802  1
  H+  H243  1  0.84011160  0.17730116  0.69358720  1
  H+  H244  1  0.73147582  0.12653144  0.84726751  1
  H+  H245  1  0.86754541  0.40249501  0.49106596  1
  H+  H246  1  0.62516104  0.02059654  0.47735493  1
  H+  H247  1  0.30254008  0.39352960  0.75883854  1
  H+  H248  1  0.59918201  0.46149993  0.84231240  1
  H+  H249  1  0.75421210  0.07242992  0.68167464  1
  H+  H250  1  1.14002618  0.23823689  0.67957213  1
  H+  H251  1  0.12968835  0.41363480  0.17825803  1
  H+  H252  1  0.14723671  0.28020934  0.52007517  1
  H+  H253  1  0.34885658  -0.00459153  0.17609787  1
  H+  H254  1  0.63875562  0.28078119  0.28635368  1
  H+  H255  1  1.01818044  0.61713487  0.16204600  1
  H+  H256  1  0.22270042  0.59640615  0.99449574  1
  H+  H257  1  0.61700115  0.48395496  0.64210189  1
  H+  H258  1  0.10581065  0.61342009  0.00726370  1
  H+  H259  1  0.32268058  0.44543952  0.66344857  1
  H+  H260  1  0.46579453  0.37810250  -0.00857162  1
  H+  H261  1  0.96981543  0.61866832  0.50248219  1
  H+  H262  1  0.65686900  0.84102554  0.55410424  1
  H+  H263  1  0.98745835  0.37765846  0.17864585  1
  H+  H264  1  0.49886248  0.61845154  0.64953810  1
  H+  H265  1  0.26549423  0.63174628  0.66991662  1
  H+  H266  1  0.39059833  0.11859307  0.65543940  1
  H+  H267  1  0.36686806  0.63329794  0.00558992  1
  H+  H268  1  0.92552851  0.33238552  0.26981581  1
  H+  H269  1  0.62518816  0.85571786  0.66019335  1
  H+  H270  1  0.10678210  0.72301369  0.49917197  1
  H+  H271  1  0.77311679  0.62999957  0.17103526  1
  H+  H272  1  0.63993426  0.52295156  0.17497394  1
  H+  H273  1  0.23537677  0.36799075  0.51582770  1
  H+  H274  1  0.13788155  0.77900511  0.66416342  1
  H+  H275  1  0.02883590  0.64844053  0.67534766  1
  H+  H276  1  0.40077857  0.28718298  0.49974282  1
  H+  H277  1  0.11800894  0.58393276  0.33935439  1
  H+  H278  1  0.90160707  0.99285372  0.34404947  1
  H+  H279  1  1.02250663  0.63341603  0.83239186  1
  H+  H280  1  0.63420004  0.12028809  0.83835671  1
  H+  H281  1  0.59775513  0.60258263  0.77252660  1
  H+  H282  1  0.37764394  0.50495430  0.82749989  1
  H+  H283  1  0.60877953  0.76869360  0.32785345  1
  H+  H284  1  0.44303250  0.90977757  0.95104953  1
  H+  H285  1  0.38197881  0.60602483  0.51165786  1
  H+  H286  1  0.86528985  0.50402466  0.66956146  1
  H+  H287  1  0.76469576  0.13825264  0.48127968  1
  H+  H288  1  0.07015444  0.90876116  0.75677480  1
  H+  H289  1  0.36777621  0.38904270  0.49628328  1
  H+  H290  1  0.66207790  0.08769714  0.90627421  1
  H+  H291  1  0.25236507  0.90815024  0.82336622  1
  H+  H292  1  0.94448839  0.91830711  0.91311330  1
  H+  H293  1  0.07094408  0.17523812  0.08336608  1
  H+  H294  1  0.98139131  0.11669247  1.01618034  1
  H+  H295  1  0.52761541  0.13797839  0.81573625  1
  H+  H296  1  0.07140405  0.90179972  0.43687450  1
  H+  H297  1  0.22162575  0.12311201  0.83507698  1
  H+  H298  1  0.33967916  0.91765664  0.43434897  1
  H+  H299  1  0.15208441  0.82637604  0.90521939  1
  H+  H300  1  0.33125472  0.92629914  0.72380125  1
  H+  H301  1  0.14599016  0.33837746  0.90053557  1
  H+  H302  1  0.40526219  0.34443111  0.89762629  1
  H+  H303  1  0.07356704  0.39310969  0.41035303  1
  H+  H304  1  0.06973262  0.89542331  0.08528786  1
  H+  H305  1  0.07708124  0.64101724  0.06883270  1
  H+  H306  1  0.82767418  0.43189472  0.75349167  1
  H+  H307  1  0.39639956  0.55875221  0.59487219  1
  H+  H308  1  0.17217926  0.82092427  0.27842196  1
  H+  H309  1  0.42476272  0.34069064  0.56294079  1
  H+  H310  1  0.41871941  0.09331291  0.55924343  1
  H+  H311  1  0.67516772  0.33606404  0.93131335  1
  H+  H312  1  0.69819497  0.23167447  0.11865178  1
  H+  H313  1  0.11050477  0.72292217  0.83358290  1
  H+  H314  1  0.13585862  0.06831565  0.24100919  1
  H+  H315  1  0.83859406  0.42835605  0.42848646  1
  H+  H316  1  0.33163283  0.41151757  0.43644106  1
  H+  H317  1  0.33115130  0.65936044  0.72554774  1
  H+  H318  1  0.93964831  0.03235471  0.59501410  1
  H+  H319  1  0.38641989  0.75060399  0.40541138  1
  H+  H320  1  0.82327042  0.40354422  0.11125015  1
  H+  H321  1  0.86384611  0.62988082  0.50289754  1
  H+  H322  1  0.92149113  0.57977764  0.27286442  1
  H+  H323  1  0.91336608  0.35365360  0.59276044  1
  H+  H324  1  0.61918321  0.22988438  0.66644918  1
  H+  H325  1  0.09063008  0.17241173  0.73306674  1
  H+  H326  1  0.16575201  0.83227645  0.56685375  1
  H+  H327  1  0.83219612  0.16034516  0.07721181  1
  H+  H328  1  0.20312160  0.34886283  0.61535046  1
  H+  H329  1  0.63790019  0.07060544  0.53882624  1
  H+  H330  1  0.08504190  0.67093260  0.73654421  1
  H+  H331  1  0.91559429  0.79557875  0.94870380  1
  H+  H332  1  0.84103266  0.91905544  0.12093738  1
  H+  H333  1  0.66835948  0.78045424  0.86482347  1
  H+  H334  1  0.60478628  0.37881037  0.00912104  1
  H+  H335  1  0.32222855  0.92924149  0.02229977  1
  H+  H336  1  0.09916855  0.60363336  0.16116119  1
  H+  H337  1  0.90624163  0.87076257  0.33267634  1
  H+  H338  1  0.93518643  0.23657854  0.71290986  1
  H+  H339  1  0.33243689  0.65604702  0.10934624  1
  H+  H340  1  0.87068683  0.48222845  0.34196112  1
  H+  H341  1  0.97808309  0.12755106  0.46696536  1
  H+  H342  1  0.58978890  0.91982159  0.10877700  1
  H+  H343  1  0.58723434  0.40992354  0.11118679  1
  H+  H344  1  0.33175840  0.17126053  0.72478332  1
  H+  H345  1  0.98053393  0.12536186  0.83483279  1
  H+  H346  1  0.81771650  0.17873414  0.39652126  1
  H+  H347  1  0.38514759  0.19967729  0.09184331  1
  H+  H348  1  0.82323085  0.90792953  0.72394806  1
  H+  H349  1  0.66525580  0.08530744  0.23360652  1
  H+  H350  1  0.91852372  0.32651749  0.93140782  1
  H+  H351  1  0.40347705  0.07636925  0.26445679  1
  H+  H352  1  0.08139649  0.65877488  0.40607950  1
  H+  H353  1  0.16745102  0.57517339  0.90042075  1
  H+  H354  1  0.24001856  0.14081654  0.31696034  1
  H+  H355  1  0.57629822  0.65941494  0.07336722  1
  H+  H356  1  0.21021277  0.07841201  0.50676422  1
  H+  H357  1  0.16059842  0.07497968  0.59973766  1
  H+  H358  1  0.61816066  0.02304964  0.32173869  1
  H+  H359  1  0.53349056  0.40076044  0.49055325  1
  H+  H360  1  0.42534271  0.34226103  0.27011013  1
  H+  H361  1  0.66832622  0.83215217  0.95928940  1
  H+  H362  1  0.89082608  0.62889781  0.65762020  1
  H+  H363  1  0.85823016  0.72618542  0.50250800  1
  H+  H364  1  0.80902274  0.64566041  0.72410170  1
  H+  H365  1  0.84248817  0.19576255  0.79048950  1
  H+  H366  1  0.90380285  0.83221380  0.59605090  1
  H+  H367  1  0.83321734  0.65549274  0.11274003  1
  H+  H368  1  0.43122984  0.11761942  0.88516966  1
  H+  H369  1  0.84356399  0.92014907  0.39037683  1
  H+  H370  1  0.48611346  0.37302641  0.33060089  1
  H+  H371  1  0.07013104  0.42447204  0.73250937  1
  H+  H372  1  0.59152554  0.16479948  0.75802441  1
  H+  H373  1  0.34336442  0.74794415  0.40285664  1
  H+  H374  1  0.16207872  0.08085752  0.93156221  1
  H+  H375  1  0.77060599  0.89341631  0.48777065  1
  H+  H376  1  0.52239017  0.63082873  0.16463085  1
  H+  H377  1  0.38865702  0.87005184  0.50679065  1
  H+  H378  1  0.88234469  0.59645191  0.00017399  1
  H+  H379  1  0.92626259  0.82652587  0.27908646  1
  H+  H380  1  0.42097447  0.79696682  0.90833551  1
  H+  H381  1  0.41715671  0.83505204  0.60029545  1
  H+  H382  1  0.31610479  0.87924713  0.11223715  1
  H+  H383  1  0.33918942  0.17598656  0.41966719  1
  O2-  O384  1  0.07337766  0.17272011  0.15091020  1
  O2-  O385  1  0.09515422  0.18510365  0.47395611  1
  O2-  O386  1  0.06666308  0.16864270  0.81927361  1
  O2-  O387  1  0.10259999  0.44306529  0.15631202  1
  O2-  O388  1  0.08269419  0.40786520  0.48962341  1
  O2-  O389  1  0.06426486  0.41337588  0.81640118  1
  O2-  O390  1  0.07907643  0.64260318  0.14632332  1
  O2-  O391  1  0.07159033  0.66181447  0.48544932  1
  O2-  O392  1  0.08287517  0.66320813  0.81746526  1
  O2-  O393  1  0.07586923  0.89858919  0.15324628  1
  O2-  O394  1  0.06448581  0.90228118  0.48461988  1
  O2-  O395  1  0.06058294  0.89695484  0.80282896  1
  O2-  O396  1  0.42210601  0.21224139  0.12786872  1
  O2-  O397  1  0.33114261  0.17525356  0.46636783  1
  O2-  O398  1  0.32284368  0.17343500  0.80813777  1
  O2-  O399  1  0.32580291  0.41014181  0.15035088  1
  O2-  O400  1  0.33289032  0.41597778  0.48195146  1
  O2-  O401  1  0.31270594  0.40050384  0.80411680  1
  O2-  O402  1  0.33281977  0.65787256  0.15452569  1
  O2-  O403  1  0.33048360  0.66856621  0.52590946  1
  O2-  O404  1  0.32855776  0.64955028  0.81034805  1
  O2-  O405  1  0.32366798  0.89224319  0.15618966  1
  O2-  O406  1  0.33251090  0.91686733  0.47980953  1
  O2-  O407  1  0.29635079  0.95541071  0.79730484  1
  O2-  O408  1  0.63846364  0.19270012  0.12997443  1
  O2-  O409  1  0.57760431  0.17418398  0.46228023  1
  O2-  O410  1  0.59001735  0.16447983  0.80440927  1
  O2-  O411  1  0.59258588  0.41811644  0.15579196  1
  O2-  O412  1  0.59192583  0.42803910  0.47270070  1
  O2-  O413  1  0.56566566  0.40168447  0.82380490  1
  O2-  O414  1  0.58124433  0.66239755  0.14605499  1
  O2-  O415  1  0.57826017  0.67037745  0.47937856  1
  O2-  O416  1  0.57475027  0.64155709  0.77379862  1
  O2-  O417  1  0.58972997  0.91922420  0.15376264  1
  O2-  O418  1  0.57185029  0.91517137  0.45915225  1
  O2-  O419  1  0.56434363  0.87311905  0.81680710  1
  O2-  O420  1  0.83832376  0.17007546  0.15141716  1
  O2-  O421  1  0.82485175  0.17634111  0.46657881  1
  O2-  O422  1  0.83076460  0.17743711  0.83418288  1
  O2-  O423  1  0.82793101  0.40571367  0.15625138  1
  O2-  O424  1  0.83690299  0.43182170  0.47589873  1
  O2-  O425  1  0.82306648  0.42074590  0.80001808  1
  O2-  O426  1  0.83482344  0.65841376  0.15779095  1
  O2-  O427  1  0.82674624  0.66174719  0.49291858  1
  O2-  O428  1  0.80172666  0.62315589  0.81462275  1
  O2-  O429  1  0.83705350  0.91736817  0.16561048  1
  O2-  O430  1  0.83218031  0.91677344  0.47719259  1
  O2-  O431  1  0.83434716  0.93495583  0.79963133  1
  O2-  O432  1  0.10539019  0.03961542  0.20199309  1
  O2-  O433  1  0.15278390  0.06487620  0.51981079  1
  O2-  O434  1  0.16106194  0.09222552  0.85194697  1
  O2-  O435  1  0.16343076  0.33640890  0.20060309  1
  O2-  O436  1  0.17866581  0.33919789  0.53783441  1
  O2-  O437  1  0.14720088  0.33082478  0.85570393  1
  O2-  O438  1  0.14288606  0.53006605  0.18318005  1
  O2-  O439  1  0.15246745  0.57625023  0.52546144  1
  O2-  O440  1  0.16734466  0.57733932  0.85451022  1
  O2-  O441  1  0.15729729  0.81185763  0.19741408  1
  O2-  O442  1  0.16233485  0.82835860  0.52159484  1
  O2-  O443  1  0.15798540  0.83206736  0.85995861  1
  O2-  O444  1  0.35733916  0.05175797  0.19126860  1
  O2-  O445  1  0.41556273  0.08979375  0.51383044  1
  O2-  O446  1  0.42586661  0.10626259  0.84059728  1
  O2-  O447  1  0.42810118  0.34354792  0.19029782  1
  O2-  O448  1  0.42483163  0.34568141  0.51630951  1
  O2-  O449  1  0.40883580  0.33888247  0.85201629  1
  O2-  O450  1  0.41905779  0.57409699  0.19096355  1
  O2-  O451  1  0.41417474  0.57581683  0.52083443  1
  O2-  O452  1  0.41313977  0.56615899  0.84138527  1
  O2-  O453  1  0.42349920  0.82816083  0.19563074  1
  O2-  O454  1  0.42046231  0.84125443  0.52273435  1
  O2-  O455  1  0.43869585  0.77043118  0.87554002  1
  O2-  O456  1  0.67242655  0.08512772  0.18840023  1
  O2-  O457  1  0.65376103  0.08025723  0.49518266  1
  O2-  O458  1  0.66749621  0.09370288  0.85911485  1
  O2-  O459  1  0.66399844  0.32656378  0.20614211  1
  O2-  O460  1  0.67193568  0.33804399  0.51745558  1
  O2-  O461  1  0.65848426  0.33051797  0.84572664  1
  O2-  O462  1  0.66734482  0.58546168  0.18600932  1
  O2-  O463  1  0.67331005  0.60915198  0.54415830  1
  O2-  O464  1  0.65421693  0.55586999  0.87158041  1
  O2-  O465  1  0.66447366  0.82975434  0.18886782  1
  O2-  O466  1  0.65907818  0.84070751  0.50919413  1
  O2-  O467  1  0.66782236  0.79911643  0.82326709  1
  O2-  O468  1  0.91925823  0.08760839  0.20456522  1
  O2-  O469  1  0.91680299  0.09680437  0.45351441  1
  O2-  O470  1  0.91248742  0.09208815  0.84771433  1
  O2-  O471  1  0.92756395  0.33890721  0.19291951  1
  O2-  O472  1  0.91571357  0.34060795  0.51901401  1
  O2-  O473  1  0.89694267  0.32577090  0.88444742  1
  O2-  O474  1  0.92098525  0.57713805  0.19006431  1
  O2-  O475  1  0.90805567  0.58874105  0.51710937  1
  O2-  O476  1  0.91097563  0.57660761  0.85743283  1
  O2-  O477  1  0.90993675  0.82466776  0.19541221  1
  O2-  O478  1  0.90405014  0.82526145  0.52231362  1
  O2-  O479  1  0.95895058  0.94868742  0.87407522  1
  O2-  O480  1  0.18271782  0.12472797  0.30081744  1
  O2-  O481  1  0.16919470  0.07795586  0.64486623  1
  O2-  O482  1  0.16750808  0.06976039  0.97557188  1
  O2-  O483  1  0.16071179  0.30943961  0.32874380  1
  O2-  O484  1  0.20158354  0.34974318  0.66124585  1
  O2-  O485  1  0.14000366  0.35195893  0.98146885  1
  O2-  O486  1  0.13759728  0.54382909  0.32497551  1
  O2-  O487  1  0.16684674  0.58790863  0.64768281  1
  O2-  O488  1  0.16428980  0.56545155  0.97658941  1
  O2-  O489  1  0.17804938  0.82272418  0.32343156  1
  O2-  O490  1  0.16316556  0.83827393  0.64652266  1
  O2-  O491  1  0.13997424  0.80547361  0.98431495  1
  O2-  O492  1  0.41648930  0.08544886  0.30868347  1
  O2-  O493  1  0.42405848  0.09181791  0.63904835  1
  O2-  O494  1  0.45834939  0.17439968  0.95467311  1
  O2-  O495  1  0.42311638  0.34022575  0.31534553  1
  O2-  O496  1  0.42513264  0.33834075  0.63339452  1
  O2-  O497  1  0.40743810  0.35416863  0.97330436  1
  O2-  O498  1  0.41094685  0.56734103  0.31309635  1
  O2-  O499  1  0.39298487  0.55524907  0.64079103  1
  O2-  O500  1  0.42103697  0.58726704  0.97334511  1
  O2-  O501  1  0.45379561  0.86052485  0.31440617  1
  O2-  O502  1  0.41133480  0.83036948  0.64583990  1
  O2-  O503  1  0.42018988  0.85389476  0.97101917  1
  O2-  O504  1  0.65694505  0.08435997  0.31048460  1
  O2-  O505  1  0.61468145  0.05300721  0.62144820  1
  O2-  O506  1  0.66575891  0.08203320  0.97620681  1
  O2-  O507  1  0.64157264  0.27213711  0.33090827  1
  O2-  O508  1  0.66809029  0.33240223  0.63999439  1
  O2-  O509  1  0.67246293  0.33235592  0.97626406  1
  O2-  O510  1  0.65989100  0.59220689  0.31164170  1
  O2-  O511  1  0.65726705  0.59668718  0.60308117  1
  O2-  O512  1  0.66326413  0.57448415  0.99839761  1
  O2-  O513  1  0.62475746  0.82564794  0.31059042  1
  O2-  O514  1  0.65640965  0.82857282  0.64127988  1
  O2-  O515  1  0.66638045  0.82947241  1.00353307  1
  O2-  O516  1  0.95827821  0.11141077  0.33201330  1
  O2-  O517  1  0.97929549  0.02380282  0.62010600  1
  O2-  O518  1  0.91651257  0.07863263  1.00021378  1
  O2-  O519  1  0.91795288  0.32458495  0.31513621  1
  O2-  O520  1  0.91633282  0.36663814  0.63782004  1
  O2-  O521  1  0.93874319  0.32850334  0.99206276  1
  O2-  O522  1  0.91944713  0.57774612  0.31776418  1
  O2-  O523  1  0.92717201  0.60315343  0.64440503  1
  O2-  O524  1  0.91012658  0.56579291  0.98152727  1
  O2-  O525  1  0.93323404  0.83499500  0.32342733  1
  O2-  O526  1  0.90260664  0.83316630  0.64257166  1
  O2-  O527  1  0.91358623  0.82474949  0.98561526  1
  O2-  O528  1  0.06733716  0.17390451  0.03554485  1
  O2-  O529  1  0.12398146  0.22112854  0.35410720  1
  O2-  O530  1  0.10411603  0.17576577  0.68949178  1
  O2-  O531  1  0.09704361  0.39934604  0.00396124  1
  O2-  O532  1  0.07166812  0.38765481  0.36513402  1
  O2-  O533  1  0.07784924  0.43142135  0.68802797  1
  O2-  O534  1  0.07470138  0.64261164  0.02301446  1
  O2-  O535  1  0.08639937  0.65594954  0.36119342  1
  O2-  O536  1  0.08901187  0.67575319  0.69135460  1
  O2-  O537  1  0.06488973  0.89391736  0.03774886  1
  O2-  O538  1  0.08589031  0.90494035  0.37080754  1
  O2-  O539  1  0.07224678  0.91462272  0.68446890  1
  O2-  O540  1  0.33668675  0.19446905  0.01549129  1
  O2-  O541  1  0.34526892  0.17821291  0.34994790  1
  O2-  O542  1  0.33623240  0.16670340  0.68024093  1
  O2-  O543  1  0.31702279  0.43015913  0.02142848  1
  O2-  O544  1  0.33200864  0.40754575  0.35920277  1
  O2-  O545  1  0.29182248  0.38585149  0.68073434  1
  O2-  O546  1  0.33212725  0.65596013  0.02599702  1
  O2-  O547  1  0.31913990  0.65144679  0.29892693  1
  O2-  O548  1  0.32915092  0.66046144  0.68046948  1
  O2-  O549  1  0.29719319  0.86727609  0.02873092  1
  O2-  O550  1  0.35559826  0.91974387  0.35734739  1
  O2-  O551  1  0.33438514  0.92270151  0.67917688  1
  O2-  O552  1  0.58679299  0.16772965  0.01342319  1
  O2-  O553  1  0.58499077  0.17980575  0.34061525  1
  O2-  O554  1  0.58668955  0.16897012  0.68238942  1
  O2-  O555  1  0.57048722  0.40364849  0.02506028  1
  O2-  O556  1  0.57867453  0.41769029  0.35314633  1
  O2-  O557  1  0.59216475  0.43358675  0.66915118  1
  O2-  O558  1  0.58221023  0.66393702  0.02705346  1
  O2-  O559  1  0.57415432  0.66150506  0.35610028  1
  O2-  O560  1  0.56199375  0.65605681  0.65903621  1
  O2-  O561  1  0.58529630  0.92090653  0.02651504  1
  O2-  O562  1  0.54546016  0.90707392  0.33490540  1
  O2-  O563  1  0.56653315  0.89991583  0.69506495  1
  O2-  O564  1  0.83486749  0.15595760  0.03118683  1
  O2-  O565  1  0.81778601  0.17883905  0.34967834  1
  O2-  O566  1  0.87752206  0.22863035  0.71806445  1
  O2-  O567  1  0.83322510  0.40191555  0.02675051  1
  O2-  O568  1  0.83989094  0.42208958  0.36033375  1
  O2-  O569  1  0.83332306  0.44227745  0.68379728  1
  O2-  O570  1  0.83055969  0.64945418  0.03196404  1
  O2-  O571  1  0.74702365  0.64353412  0.31650082  1
  O2-  O572  1  0.82320395  0.65712900  0.68085403  1
  O2-  O573  1  0.83783840  0.91685784  0.03378686  1
  O2-  O574  1  0.85998255  0.93088097  0.34723261  1
  O2-  O575  1  0.81403179  0.89128468  0.67997518  1
