# generated using pymatgen
data_H2O
_symmetry_space_group_name_H-M   'P 1'
_cell_length_a   17.97924494
_cell_length_b   17.98338414
_cell_length_c   21.99757683
_cell_angle_alpha   89.99071537
_cell_angle_beta   89.98586621
_cell_angle_gamma   119.98654151
_symmetry_Int_Tables_number   1
_chemical_formula_structural   H2O
_chemical_formula_sum   'H384 O192'
_cell_volume   6160.37557567
_cell_formula_units_Z   192
loop_
 _symmetry_equiv_pos_site_id
 _symmetry_equiv_pos_as_xyz
  1  'x, y, z'
loop_
 _atom_type_symbol
 _atom_type_oxidation_number
  H+  1.0
  O2-  -2.0
loop_
 _atom_site_type_symbol
 _atom_site_label
 _atom_site_symmetry_multiplicity
 _atom_site_fract_x
 _atom_site_fract_y
 _atom_site_fract_z
 _atom_site_occupancy
  H+  H0  1  0.16029449  0.09267901  0.56334950  1
  H+  H1  1  0.14873859  0.77862235  0.32925022  1
  H+  H2  1  0.17665691  0.33446428  0.60997966  1
  H+  H3  1  0.23045052  0.36059097  0.99598381  1
  H+  H4  1  0.86929516  0.23745734  0.67533050  1
  H+  H5  1  0.23848798  0.87264582  0.81824875  1
  H+  H6  1  0.61539327  0.14495049  0.35146220  1
  H+  H7  1  0.64860326  0.03294375  0.75466148  1
  H+  H8  1  0.86404227  0.38843535  0.33369000  1
  H+  H9  1  0.89519289  0.86523251  0.50327635  1
  H+  H10  1  0.62224169  0.75600625  0.32476921  1
  H+  H11  1  0.64093903  0.62300700  0.66795039  1
  H+  H12  1  0.54562303  0.43497978  0.17459782  1
  H+  H13  1  0.89202665  1.02656902  0.84159972  1
  H+  H14  1  0.80585754  0.16009765  0.63479574  1
  H+  H15  1  0.46395287  0.61037193  1.00477061  1
  H+  H16  1  0.39246944  0.91504268  0.82750020  1
  H+  H17  1  0.12180608  0.60905969  0.16095708  1
  H+  H18  1  0.15798332  0.28010085  0.51015035  1
  H+  H19  1  1.04295500  0.16163640  0.48707548  1
  H+  H20  1  0.76829151  0.62874156  0.49510175  1
  H+  H21  1  0.37720415  0.86904250  0.33775502  1
  H+  H22  1  0.60708426  0.87039886  0.33226507  1
  H+  H23  1  0.85305773  0.18365012  0.46981259  1
  H+  H24  1  0.14579981  0.12850587  0.50098853  1
  H+  H25  1  0.78450143  0.38624501  0.15954629  1
  H+  H26  1  0.38729943  0.11113776  0.50868559  1
  H+  H27  1  0.37096416  0.38897612  0.21755251  1
  H+  H28  1  0.88622892  0.76888864  0.16969961  1
  H+  H29  1  0.90532977  0.13700509  0.53085028  1
  H+  H30  1  1.03424174  0.90277058  0.49254571  1
  H+  H31  1  0.63009672  0.35063526  0.53006772  1
  H+  H32  1  0.72749334  0.10007725  0.71193675  1
  H+  H33  1  0.29127282  0.64607443  0.05048939  1
  H+  H34  1  0.14039138  0.36181126  0.84370653  1
  H+  H35  1  0.63686207  0.28285196  0.33355045  1
  H+  H36  1  0.07875326  0.67357555  0.43346359  1
  H+  H37  1  1.02274345  0.87068731  0.14819236  1
  H+  H38  1  0.38336599  0.60522565  0.50459263  1
  H+  H39  1  0.84076206  0.41656951  0.39769229  1
  H+  H40  1  0.85426360  0.73321002  0.01292966  1
  H+  H41  1  0.61217375  0.96418778  0.67351290  1
  H+  H42  1  0.38577358  0.76860653  0.32759354  1
  H+  H43  1  0.23800192  0.34926381  0.21488707  1
  H+  H44  1  0.84877735  0.95650232  0.46468124  1
  H+  H45  1  0.08770658  0.40928904  0.46968564  1
  H+  H46  1  0.24664660  0.12591330  0.17265624  1
  H+  H47  1  0.36790397  0.72778200  0.49162475  1
  H+  H48  1  0.62523251  0.61178969  0.99836034  1
  H+  H49  1  0.39125251  0.51930409  0.50407346  1
  H+  H50  1  0.97006579  0.36079266  0.16016124  1
  H+  H51  1  0.25646239  0.58034920  0.82564647  1
  H+  H52  1  0.23094163  0.86493210  0.99048991  1
  H+  H53  1  0.76513476  0.64486942  0.01428081  1
  H+  H54  1  0.86537256  0.47769247  0.49528088  1
  H+  H55  1  0.12085103  0.22396549  0.00481530  1
  H+  H56  1  0.65224735  0.14214649  0.85218664  1
  H+  H57  1  0.86578790  0.88312244  0.16186240  1
  H+  H58  1  0.76531077  0.63550330  0.34062190  1
  H+  H59  1  0.88626572  0.51828903  0.83846103  1
  H+  H60  1  0.37680172  0.01595925  0.17433946  1
  H+  H61  1  0.14469804  0.11852046  0.99193835  1
  H+  H62  1  1.03294999  0.12756165  0.15658553  1
  H+  H63  1  0.63655992  0.86367866  0.16599627  1
  H+  H64  1  0.60215924  0.71999552  1.01515632  1
  H+  H65  1  0.17148955  0.45030255  0.43001512  1
  H+  H66  1  0.18371690  0.57514959  0.91551535  1
  H+  H67  1  0.62844024  0.78152568  0.83411726  1
  H+  H68  1  0.78648508  0.14791078  0.00748232  1
  H+  H69  1  0.97754487  0.86530755  -0.00920857  1
  H+  H70  1  0.72710857  0.62570419  0.18091401  1
  H+  H71  1  0.18040366  0.09693735  0.23712766  1
  H+  H72  1  0.63470430  0.26891457  0.50703556  1
  H+  H73  1  0.60630736  0.39258378  0.32843268  1
  H+  H74  1  0.77145774  0.89458087  0.82910770  1
  H+  H75  1  0.52198194  0.13745102  0.49663762  1
  H+  H76  1  0.82283160  0.64726659  0.43354693  1
  H+  H77  1  0.66459099  0.59211464  0.93890319  1
  H+  H78  1  0.86887686  0.98046675  0.00989723  1
  H+  H79  1  0.89146481  1.02003133  0.16632571  1
  H+  H80  1  0.11711113  0.97055765  -0.00078784  1
  H+  H81  1  0.60800891  0.72899144  0.49191388  1
  H+  H82  1  0.61947108  0.43124832  0.46158201  1
  H+  H83  1  0.62324599  0.25235292  0.83938631  1
  H+  H84  1  0.97903705  0.34094595  0.47280581  1
  H+  H85  1  0.09805611  0.46352814  0.14500651  1
  H+  H86  1  0.85742239  0.22773797  0.29198744  1
  H+  H87  1  0.40034913  1.01933666  0.65850401  1
  H+  H88  1  0.11536919  0.62639785  0.68135884  1
  H+  H89  1  0.16273147  0.82149527  0.89885010  1
  H+  H90  1  0.36614388  0.13435703  0.34658170  1
  H+  H91  1  0.63563522  0.02358270  0.47982987  1
  H+  H92  1  0.88860928  0.52158558  0.16644102  1
  H+  H93  1  0.15363534  0.54067004  0.50693952  1
  H+  H94  1  0.73574465  0.62462821  0.84274868  1
  H+  H95  1  0.61688597  0.89218648  -0.00292678  1
  H+  H96  1  0.12819747  0.75149438  0.84487076  1
  H+  H97  1  0.36448372  0.13909690  1.00916139  1
  H+  H98  1  0.14548915  0.12198131  0.17175710  1
  H+  H99  1  0.13744597  0.85520524  0.98816425  1
  H+  H100  1  0.92224785  0.56612212  0.93888367  1
  H+  H101  1  0.12223065  0.39265690  0.68021975  1
  H+  H102  1  0.97708994  0.85980341  0.32491041  1
  H+  H103  1  0.72289192  0.85474472  0.49899870  1
  H+  H104  1  0.43626339  0.03526044  0.85660179  1
  H+  H105  1  0.39891556  0.27103004  0.50503724  1
  H+  H106  1  0.60967097  0.47869347  1.00846927  1
  H+  H107  1  0.14120328  0.52084991  0.66436946  1
  H+  H108  1  0.36108312  -0.01630703  1.01187560  1
  H+  H109  1  0.11981770  0.89992937  0.65970748  1
  H+  H110  1  0.82702384  0.16369158  0.23726144  1
  H+  H111  1  0.85971688  0.71793437  0.33986194  1
  H+  H112  1  0.47157578  0.35571203  0.84445302  1
  H+  H113  1  0.37649529  0.64183996  0.33103102  1
  H+  H114  1  0.27740158  0.87554566  0.33900324  1
  H+  H115  1  0.34908290  0.74715263  0.85749786  1
  H+  H116  1  -0.02781351  0.60702169  0.66353181  1
  H+  H117  1  0.88055506  0.36571282  0.15790988  1
  H+  H118  1  0.64621309  0.26642102  0.17695726  1
  H+  H119  1  0.36519443  0.72707728  0.65216083  1
  H+  H120  1  0.88485768  0.85354355  0.32059756  1
  H+  H121  1  0.75664758  0.86845616  0.32672259  1
  H+  H122  1  0.47785755  0.85993224  0.32731862  1
  H+  H123  1  0.86789374  0.72692062  0.83055686  1
  H+  H124  1  0.01589711  0.64273305  0.33830581  1
  H+  H125  1  0.56784287  0.44239318  0.76420169  1
  H+  H126  1  0.48046334  0.11922003  1.00026633  1
  H+  H127  1  0.91456985  0.05387647  0.52852683  1
  H+  H128  1  0.15560215  0.12760098  0.32860695  1
  H+  H129  1  0.91301214  0.27888939  1.00090543  1
  H+  H130  1  0.23463545  0.63071791  0.50890411  1
  H+  H131  1  0.67081819  0.60829295  0.24079984  1
  H+  H132  1  0.38443207  0.38847391  0.49605682  1
  H+  H133  1  0.14056108  1.02978714  0.32370926  1
  H+  H134  1  0.73034096  0.86126451  0.65955403  1
  H+  H135  1  0.88506387  0.86157393  0.84028110  1
  H+  H136  1  0.24282950  0.12467614  0.84547500  1
  H+  H137  1  0.88950755  0.77655958  0.66228074  1
  H+  H138  1  0.60389362  0.90068512  0.81313599  1
  H+  H139  1  0.47824325  0.61623800  0.66142170  1
  H+  H140  1  0.26950789  0.62713681  0.65185199  1
  H+  H141  1  0.60518716  -0.03413811  0.14486941  1
  H+  H142  1  0.88100663  0.61126078  0.32519251  1
  H+  H143  1  0.14280903  0.25090547  0.31656349  1
  H+  H144  1  0.49166669  0.93913861  0.82725438  1
  H+  H145  1  0.20475860  0.24123644  0.37032244  1
  H+  H146  1  0.63893744  0.54458596  0.84103049  1
  H+  H147  1  0.43017414  0.59530572  0.90753675  1
  H+  H148  1  0.89775199  0.11857059  0.84396430  1
  H+  H149  1  1.02313077  0.63642594  0.15176995  1
  H+  H150  1  0.40274676  0.88969515  0.99138912  1
  H+  H151  1  0.02753507  0.38653420  0.83100608  1
  H+  H152  1  0.23861442  0.12130487  -0.00596918  1
  H+  H153  1  0.35599005  0.35663793  0.33860132  1
  H+  H154  1  0.87147725  0.23325908  0.15720990  1
  H+  H155  1  0.53737905  0.13171839  0.68226237  1
  H+  H156  1  0.61102724  0.72781300  0.67497078  1
  H+  H157  1  0.77863201  0.64446374  0.67660119  1
  H+  H158  1  0.11059388  0.86844512  0.14198222  1
  H+  H159  1  0.27654307  0.37387006  0.83119445  1
  H+  H160  1  0.11849532  0.47161643  0.83853391  1
  H+  H161  1  0.37100942  0.97967390  0.49055172  1
  H+  H162  1  0.52124596  0.63784460  0.49217240  1
  H+  H163  1  0.11292976  0.98399170  0.67026637  1
  H+  H164  1  0.11548557  0.72340729  0.16291787  1
  H+  H165  1  0.47120784  0.85352150  0.66203708  1
  H+  H166  1  0.77858838  0.37964613  0.67783832  1
  H+  H167  1  0.02066915  0.61880423  0.84142873  1
  H+  H168  1  0.37159911  0.13034206  0.83408470  1
  H+  H169  1  0.49316179  0.63030665  0.32075572  1
  H+  H170  1  0.60761034  -0.03854402  0.33469593  1
  H+  H171  1  0.33501597  0.38417821  0.40560474  1
  H+  H172  1  0.96662960  0.11036935  0.32544315  1
  H+  H173  1  0.65252755  0.38615119  0.85755898  1
  H+  H174  1  0.38901365  0.86373491  0.50801265  1
  H+  H175  1  0.14108440  0.27868057  0.67130211  1
  H+  H176  1  0.86461322  0.88588696  0.67676498  1
  H+  H177  1  0.47692237  0.37180910  0.29884778  1
  H+  H178  1  0.41523609  0.11438214  0.66465528  1
  H+  H179  1  0.32485122  0.91829656  0.06824789  1
  H+  H180  1  0.86176646  0.63681432  0.15956704  1
  H+  H181  1  0.47929013  0.36249251  1.00019551  1
  H+  H182  1  0.11461222  0.65020342  0.49336957  1
  H+  H183  1  0.85065433  0.38198061  0.01254264  1
  H+  H184  1  0.46718891  0.85531701  0.16066821  1
  H+  H185  1  0.30395284  0.43671686  0.18130983  1
  H+  H186  1  0.34550824  0.87919701  0.15931479  1
  H+  H187  1  0.15193614  0.13001001  0.84724231  1
  H+  H188  1  0.25636596  0.87816078  0.16526379  1
  H+  H189  1  0.53235332  0.65139574  0.83427742  1
  H+  H190  1  0.11378402  0.70918364  0.70581790  1
  H+  H191  1  0.61847015  0.14476505  0.00851058  1
  H+  H192  1  0.61205861  0.13802279  0.48445692  1
  H+  H193  1  0.14365782  0.88050456  0.49079594  1
  H+  H194  1  0.83098462  0.41101281  0.77354208  1
  H+  H195  1  0.12229416  0.89354011  0.33741363  1
  H+  H196  1  0.16226192  0.58103017  0.60319767  1
  H+  H197  1  0.27940769  0.89348340  0.48632080  1
  H+  H198  1  0.91456813  0.83579777  0.93364145  1
  H+  H199  1  0.17011765  0.33213643  0.90391544  1
  H+  H200  1  0.13561530  0.35321266  -0.00545269  1
  H+  H201  1  0.62018569  0.12924461  0.70569747  1
  H+  H202  1  0.42218949  0.57881693  0.59878451  1
  H+  H203  1  0.65358388  0.26378237  0.66712336  1
  H+  H204  1  0.36819015  0.73181131  0.88135064  1
  H+  H205  1  0.63305787  0.53896347  0.32215147  1
  H+  H206  1  0.14132119  0.72665405  0.00363051  1
  H+  H207  1  0.12328496  0.99129226  0.48844122  1
  H+  H208  1  0.39356714  0.36131861  0.65935066  1
  H+  H209  1  0.57658171  0.66999249  0.38826082  1
  H+  H210  1  0.92253679  0.83057464  0.22753146  1
  H+  H211  1  0.28059285  0.14144073  0.49841193  1
  H+  H212  1  0.72786475  0.86691659  0.17148716  1
  H+  H213  1  0.37798784  0.34154613  0.84480733  1
  H+  H214  1  0.30942570  0.12551511  0.68265248  1
  H+  H215  1  0.73790524  0.86751675  1.00053830  1
  H+  H216  1  0.77556660  0.38744596  0.83613554  1
  H+  H217  1  0.04918080  0.44112717  -0.00508887  1
  H+  H218  1  0.12889344  0.39787055  0.32286046  1
  H+  H219  1  0.71855159  0.11347210  0.30228316  1
  H+  H220  1  0.13981334  0.78754863  0.49300074  1
  H+  H221  1  0.39067654  0.59384635  0.84159774  1
  H+  H222  1  0.51597488  0.12674461  0.15956316  1
  H+  H223  1  0.10300309  0.63903340  0.34300670  1
  H+  H224  1  0.61302873  0.87617897  0.65926381  1
  H+  H225  1  0.34342475  0.71743372  0.14284600  1
  H+  H226  1  0.52256198  0.39908898  0.48267385  1
  H+  H227  1  0.53357472  0.39956926  0.67550052  1
  H+  H228  1  0.84414539  0.22707716  0.53091516  1
  H+  H229  1  0.88159751  0.11066701  0.30490632  1
  H+  H230  1  0.74068222  0.37416266  1.00398911  1
  H+  H231  1  0.13646406  0.78772926  0.62908667  1
  H+  H232  1  0.09767975  0.86381446  0.82373821  1
  H+  H233  1  0.27615503  0.88885360  0.65577567  1
  H+  H234  1  0.25194878  0.63081108  0.14575549  1
  H+  H235  1  0.28378631  0.63824491  0.33813952  1
  H+  H236  1  0.60482826  0.12637777  0.15512082  1
  H+  H237  1  0.88936391  0.36612979  0.84583535  1
  H+  H238  1  0.37332016  0.22115215  0.83314854  1
  H+  H239  1  0.86269348  0.47508234  0.67918957  1
  H+  H240  1  0.84811655  0.34860878  0.53012785  1
  H+  H241  1  0.61943281  0.49087218  0.67921633  1
  H+  H242  1  0.65657997  0.82442964  0.26492945  1
  H+  H243  1  0.89654437  0.11721037  -0.00385981  1
  H+  H244  1  0.61509224  0.64013608  0.16306708  1
  H+  H245  1  -0.02711764  0.36240278  0.30166098  1
  H+  H246  1  0.72582644  0.37113801  0.33100608  1
  H+  H247  1  0.17608435  0.37636497  0.51399029  1
  H+  H248  1  0.52429899  0.88294128  0.49125613  1
  H+  H249  1  -0.01509249  0.37517947  0.49567415  1
  H+  H250  1  0.90976222  0.33898817  0.24512592  1
  H+  H251  1  0.89035254  0.61032689  0.83880592  1
  H+  H252  1  -0.02772587  0.61533833  0.50897942  1
  H+  H253  1  0.61170337  0.72658978  0.15801288  1
  H+  H254  1  0.28059527  0.38523285  0.67733800  1
  H+  H255  1  0.49500446  0.13408908  0.84969952  1
  H+  H256  1  0.14091856  0.59914589  0.85946734  1
  H+  H257  1  0.48099451  0.11540944  0.32878463  1
  H+  H258  1  0.35630153  0.37996859  0.00690454  1
  H+  H259  1  0.03353399  0.13812017  0.83721623  1
  H+  H260  1  0.40120263  0.54114172  0.30667331  1
  H+  H261  1  0.73277465  0.10832221  0.15696275  1
  H+  H262  1  0.12109181  0.23136129  0.83740287  1
  H+  H263  1  0.29402837  0.38401724  0.49981123  1
  H+  H264  1  0.64284023  0.28544421  0.99677917  1
  H+  H265  1  0.02215154  0.14446013  0.69103787  1
  H+  H266  1  0.35415951  0.46765939  0.00650390  1
  H+  H267  1  0.16762041  0.58827701  0.39275062  1
  H+  H268  1  0.41579384  0.83196849  0.56779504  1
  H+  H269  1  0.13287133  0.52118610  0.34023902  1
  H+  H270  1  0.24719024  0.37601960  0.33237696  1
  H+  H271  1  0.87845145  0.23889491  0.83617544  1
  H+  H272  1  0.21168992  0.13634249  0.65365590  1
  H+  H273  1  0.88968431  0.11640771  0.67208183  1
  H+  H274  1  0.65213601  0.03747360  0.99646363  1
  H+  H275  1  0.87853633  0.14283609  0.15857467  1
  H+  H276  1  0.35980511  0.13134369  0.16174895  1
  H+  H277  1  0.77385135  0.39252055  0.49062949  1
  H+  H278  1  0.72129875  0.11093431  0.49575727  1
  H+  H279  1  0.12026610  0.12090159  0.66674462  1
  H+  H280  1  -0.01531920  0.37006146  0.67610011  1
  H+  H281  1  0.63687641  0.63001514  0.51181433  1
  H+  H282  1  0.73838359  0.13666601  0.85002784  1
  H+  H283  1  0.27819234  0.13435373  0.34553094  1
  H+  H284  1  0.51523748  0.47337268  0.80530677  1
  H+  H285  1  -0.02642887  0.85876740  0.83732020  1
  H+  H286  1  0.34695189  0.58809398  0.15684743  1
  H+  H287  1  0.37996710  0.85385722  0.66644181  1
  H+  H288  1  0.66981027  0.59636627  0.60693413  1
  H+  H289  1  0.97776770  0.86657841  0.66163534  1
  H+  H290  1  0.56430532  0.90419614  0.75042569  1
  H+  H291  1  0.41867915  0.32630925  0.94108477  1
  H+  H292  1  0.59483452  0.05057594  0.58926476  1
  H+  H293  1  0.88103395  0.32722771  0.59341460  1
  H+  H294  1  0.36525691  0.22929038  0.01042156  1
  H+  H295  1  0.15068712  0.57216706  0.21733927  1
  H+  H296  1  0.42251312  0.08030704  0.56588774  1
  H+  H297  1  0.83679975  0.91425900  0.10276957  1
  H+  H298  1  0.61618301  0.39327419  1.01033501  1
  H+  H299  1  0.81669862  0.88752234  0.41454155  1
  H+  H300  1  0.92766052  0.34134795  0.90411909  1
  H+  H301  1  0.57808853  0.90268585  0.42922146  1
  H+  H302  1  0.91799344  0.58177495  0.22585558  1
  H+  H303  1  0.34220405  0.91055292  0.40190448  1
  H+  H304  1  0.31420251  0.91105835  0.72287798  1
  H+  H305  1  0.33763182  0.16315179  0.43754657  1
  H+  H306  1  0.92358480  0.08451757  0.93681082  1
  H+  H307  1  0.43176609  0.33230442  0.56447792  1
  H+  H308  1  0.89429028  0.37166755  0.68219889  1
  H+  H309  1  0.10793291  0.66837441  0.06419699  1
  H+  H310  1  0.90748143  0.21853113  0.39289397  1
  H+  H311  1  0.40004964  0.57834590  0.21003785  1
  H+  H312  1  0.62617773  0.65843458  0.83027405  1
  H+  H313  1  0.42273623  0.09008165  0.94072123  1
  H+  H314  1  0.57903210  0.17527906  0.40577305  1
  H+  H315  1  0.57587467  0.90515940  0.08816588  1
  H+  H316  1  0.30400280  0.97210549  0.80601525  1
  H+  H317  1  0.88859997  0.50860437  -0.00233961  1
  H+  H318  1  0.69054338  0.80957838  0.94483943  1
  H+  H319  1  0.83190944  0.41674671  0.09174579  1
  H+  H320  1  0.39595864  0.02355239  0.32811156  1
  H+  H321  1  0.41456228  0.07877229  0.23213110  1
  H+  H322  1  0.53318156  0.90480168  0.99434176  1
  H+  H323  1  0.05792435  0.39811211  0.09014400  1
  H+  H324  1  0.87860449  0.17027423  0.39427780  1
  H+  H325  1  0.41209134  0.82519556  0.22141127  1
  H+  H326  1  0.10638806  0.81449859  0.20920443  1
  H+  H327  1  0.56240084  0.42447887  0.37744295  1
  H+  H328  1  0.08248825  0.90607335  0.05615198  1
  H+  H329  1  0.84521537  0.17157036  0.06669505  1
  H+  H330  1  0.36994369  0.60069234  0.99520135  1
  H+  H331  1  0.33963262  0.66983636  0.43136021  1
  H+  H332  1  0.91461708  0.58094153  0.60282027  1
  H+  H333  1  0.86918370  0.89125453  0.00728876  1
  H+  H334  1  0.63840959  0.86343490  0.50460022  1
  H+  H335  1  0.68507911  0.31875553  0.60563613  1
  H+  H336  1  0.84802131  0.18072723  0.77713346  1
  H+  H337  1  0.17642355  0.85390283  0.57601844  1
  H+  H338  1  0.32974661  0.16323747  0.10331030  1
  H+  H339  1  0.83904208  0.66908274  0.77048732  1
  H+  H340  1  0.93460419  0.09633349  0.61822534  1
  H+  H341  1  0.84757863  0.95829258  0.32846859  1
  H+  H342  1  0.86460351  0.97514541  0.67959418  1
  H+  H343  1  0.36972290  0.47274535  0.67669580  1
  H+  H344  1  0.36002028  0.16756243  0.74284847  1
  H+  H345  1  1.03195028  0.13391895  1.00444800  1
  H+  H346  1  0.40401699  0.27787460  0.66198544  1
  H+  H347  1  0.09468252  0.15768175  0.09879545  1
  H+  H348  1  0.82811597  0.67015858  0.10350767  1
  H+  H349  1  0.63241405  0.62986061  0.32963523  1
  H+  H350  1  0.18388428  0.82872350  0.26534091  1
  H+  H351  1  0.68156031  0.10290486  0.94025968  1
  H+  H352  1  0.67757102  0.34949289  0.91771037  1
  H+  H353  1  0.87820218  0.60512060  0.50767792  1
  H+  H354  1  0.64186682  0.07007203  0.59640917  1
  H+  H355  1  0.37088476  0.62846999  0.64911027  1
  H+  H356  1  0.08188481  0.63686428  0.78528668  1
  H+  H357  1  0.86532396  0.63982432  0.67473307  1
  H+  H358  1  0.59336913  0.18890924  0.78022517  1
  H+  H359  1  0.05293633  0.37445203  0.36994875  1
  H+  H360  1  0.62795498  0.53965826  0.51047678  1
  H+  H361  1  0.32858709  0.64290901  0.78182167  1
  H+  H362  1  0.33709580  0.40019186  0.77277519  1
  H+  H363  1  0.10960025  0.19179989  0.42741427  1
  H+  H364  1  0.57532604  0.66085370  0.07510153  1
  H+  H365  1  0.67599566  0.32788502  0.23475925  1
  H+  H366  1  0.08984920  0.92346059  0.39504541  1
  H+  H367  1  0.92507196  0.07927169  0.22474800  1
  H+  H368  1  0.09486511  0.42444278  0.74032221  1
  H+  H369  1  0.63717505  0.84687650  0.88718502  1
  H+  H370  1  0.67734618  0.05532268  0.21185561  1
  H+  H371  1  0.08990508  0.17400543  0.74681169  1
  H+  H372  1  0.18334714  0.09884991  0.91738575  1
  H+  H373  1  0.88919911  0.52679829  0.32638868  1
  H+  H374  1  0.62504645  0.08585281  0.27630495  1
  H+  H375  1  0.92794258  0.84998921  0.56738167  1
  H+  H376  1  0.57092383  0.41484668  0.11181680  1
  H+  H377  1  0.07701288  0.90232055  0.76507466  1
  H+  H378  1  0.58239736  0.16978370  0.06640800  1
  H+  H379  1  0.58042788  0.67276473  0.73676491  1
  H+  H380  1  0.83103962  0.91732236  0.77077177  1
  H+  H381  1  0.17108401  0.62628405  1.00502971  1
  H+  H382  1  0.44310302  0.90028501  0.92616263  1
  H+  H383  1  0.67364249  0.83002604  0.59778104  1
  O2-  O384  1  0.09414785  0.15602904  0.14390676  1
  O2-  O385  1  0.10340468  0.18819526  0.47420634  1
  O2-  O386  1  0.09466875  0.16948827  0.82266799  1
  O2-  O387  1  0.06468050  0.40167268  0.13454648  1
  O2-  O388  1  0.15051385  0.44683992  0.47159449  1
  O2-  O389  1  0.08842408  0.41465508  0.81676251  1
  O2-  O390  1  0.08532781  0.66542078  0.14034918  1
  O2-  O391  1  0.08311978  0.67906836  0.47897715  1
  O2-  O392  1  0.08383336  0.64503439  0.82969136  1
  O2-  O393  1  0.08009777  0.89768109  0.12786825  1
  O2-  O394  1  0.09368378  0.93090498  0.47323799  1
  O2-  O395  1  0.07026701  0.89684903  0.80961558  1
  O2-  O396  1  0.32814887  0.16092164  0.14852331  1
  O2-  O397  1  0.34111353  0.16682652  0.48415605  1
  O2-  O398  1  0.34168581  0.15972528  0.81640579  1
  O2-  O399  1  0.28852075  0.37571975  0.18790678  1
  O2-  O400  1  0.35196426  0.41656797  0.48045578  1
  O2-  O401  1  0.33602707  0.39282256  0.81738485  1
  O2-  O402  1  0.30982436  0.65870893  0.12587281  1
  O2-  O403  1  0.33413544  0.66727512  0.47664264  1
  O2-  O404  1  0.30193759  0.58454030  0.79736408  1
  O2-  O405  1  0.31612760  0.91166880  0.14815879  1
  O2-  O406  1  0.34152561  0.91892666  0.47458712  1
  O2-  O407  1  0.29419320  0.91513360  0.79584699  1
  O2-  O408  1  0.57612833  0.15863218  0.14340914  1
  O2-  O409  1  0.58180881  0.17260052  0.48038491  1
  O2-  O410  1  0.59327596  0.19086031  0.82560553  1
  O2-  O411  1  0.56272495  0.39722296  0.15476358  1
  O2-  O412  1  0.57376076  0.44521683  0.46011880  1
  O2-  O413  1  0.55402779  0.45037814  0.80913589  1
  O2-  O414  1  0.58285412  0.66681202  0.14321189  1
  O2-  O415  1  0.58134381  0.66872361  0.47692488  1
  O2-  O416  1  0.59205579  0.68418640  0.81389258  1
  O2-  O417  1  0.57252769  0.90414476  0.13399387  1
  O2-  O418  1  0.58355641  0.91042101  0.47427940  1
  O2-  O419  1  0.57531839  0.92857861  0.79217332  1
  O2-  O420  1  0.84070967  0.16803719  0.14996489  1
  O2-  O421  1  0.83920038  0.17093629  0.51300682  1
  O2-  O422  1  0.84850131  0.17715935  0.82131287  1
  O2-  O423  1  0.84247288  0.42036600  0.14020396  1
  O2-  O424  1  0.83517094  0.41722693  0.47913819  1
  O2-  O425  1  0.83489691  0.41165945  0.81907051  1
  O2-  O426  1  0.83293122  0.67033256  0.14968082  1
  O2-  O427  1  0.82538390  0.64409841  0.47863758  1
  O2-  O428  1  0.83780449  0.66585960  0.81586315  1
  O2-  O429  1  0.83645614  0.91558894  0.14823503  1
  O2-  O430  1  0.82069261  0.89444919  0.46058569  1
  O2-  O431  1  0.83233598  0.92096938  0.81625948  1
  O2-  O432  1  0.18180018  0.09666481  0.19073581  1
  O2-  O433  1  0.17105803  0.09476271  0.51905446  1
  O2-  O434  1  0.18440593  0.10176606  0.86463850  1
  O2-  O435  1  0.15348846  0.30013713  0.27693502  1
  O2-  O436  1  0.19292466  0.33668390  0.53213774  1
  O2-  O437  1  0.16982942  0.33029367  0.85813711  1
  O2-  O438  1  0.15029767  0.57332180  0.17315642  1
  O2-  O439  1  0.17347220  0.59859811  0.52359614  1
  O2-  O440  1  0.17192048  0.56793358  0.87056608  1
  O2-  O441  1  0.15784405  0.81171841  0.19950458  1
  O2-  O442  1  0.17516385  0.84964936  0.50483693  1
  O2-  O443  1  0.15483746  0.81463090  0.85324134  1
  O2-  O444  1  0.41283928  0.07751451  0.18685259  1
  O2-  O445  1  0.41805828  0.07921253  0.52058273  1
  O2-  O446  1  0.43433121  0.08955148  0.86178418  1
  O2-  O447  1  0.43200201  0.41069475  0.23593139  1
  O2-  O448  1  0.43199846  0.33264094  0.51899640  1
  O2-  O449  1  0.41317722  0.31475567  0.86029137  1
  O2-  O450  1  0.36183071  0.54753868  0.17597940  1
  O2-  O451  1  0.41558581  0.57850764  0.52180170  1
  O2-  O452  1  0.44436847  0.60842214  0.86363073  1
  O2-  O453  1  0.40701860  0.82635423  0.17699849  1
  O2-  O454  1  0.41767601  0.83166936  0.52262305  1
  O2-  O455  1  0.44679519  0.94437859  0.85044732  1
  O2-  O456  1  0.67149346  0.07262393  0.17091252  1
  O2-  O457  1  0.66458199  0.08711238  0.47627823  1
  O2-  O458  1  0.67962265  0.10918741  0.86674736  1
  O2-  O459  1  0.69613571  0.31444623  0.19693294  1
  O2-  O460  1  0.66990876  0.32987072  0.52305863  1
  O2-  O461  1  0.67709448  0.35069463  0.86909580  1
  O2-  O462  1  0.66744845  0.60208628  0.19571735  1
  O2-  O463  1  0.66325272  0.59661940  0.52948054  1
  O2-  O464  1  0.67567808  0.60320589  0.85804688  1
  O2-  O465  1  0.66733863  0.83745435  0.18631838  1
  O2-  O466  1  0.66687018  0.83161980  0.52055067  1
  O2-  O467  1  0.65514512  0.84516561  0.84558430  1
  O2-  O468  1  0.92394268  0.08210001  0.17974014  1
  O2-  O469  1  0.94565176  0.11418494  0.54007841  1
  O2-  O470  1  0.92665867  0.08642970  0.85784259  1
  O2-  O471  1  0.90793717  0.33028545  0.17477639  1
  O2-  O472  1  0.84277642  0.30207695  0.55766569  1
  O2-  O473  1  0.92321446  0.33792970  0.85908640  1
  O2-  O474  1  0.91876283  0.58325001  0.18082367  1
  O2-  O475  1  0.91339249  0.57948560  0.52528445  1
  O2-  O476  1  0.92061935  0.57934521  0.85192190  1
  O2-  O477  1  0.92058804  0.83192039  0.18230223  1
  O2-  O478  1  0.94222400  0.86210438  0.52357971  1
  O2-  O479  1  0.91366543  0.83017492  0.85546177  1
  O2-  O480  1  0.17644938  0.08990923  0.30907616  1
  O2-  O481  1  0.15191597  0.09411331  0.64564052  1
  O2-  O482  1  0.17830603  0.09102998  0.97454947  1
  O2-  O483  1  0.20100871  0.38231561  0.30928260  1
  O2-  O484  1  0.17412670  0.33860649  0.65519863  1
  O2-  O485  1  0.16713462  0.32558204  0.97968752  1
  O2-  O486  1  0.16595978  0.58454503  0.34847129  1
  O2-  O487  1  0.16989207  0.58224114  0.64833388  1
  O2-  O488  1  0.19711275  0.58571931  0.99208214  1
  O2-  O489  1  0.18941980  0.83731038  0.31347163  1
  O2-  O490  1  0.17414009  0.84909033  0.62254410  1
  O2-  O491  1  0.17158056  0.82864839  0.97357057  1
  O2-  O492  1  0.42127405  0.08232118  0.31206040  1
  O2-  O493  1  0.43770637  0.07998392  0.64465614  1
  O2-  O494  1  0.41879165  0.08954299  0.98598681  1
  O2-  O495  1  0.41625401  0.34730632  0.28320877  1
  O2-  O496  1  0.42710463  0.33488181  0.64282172  1
  O2-  O497  1  0.41714648  0.32845299  0.98618599  1
  O2-  O498  1  0.42824564  0.60329456  0.30296268  1
  O2-  O499  1  0.41793053  0.58341899  0.64423086  1
  O2-  O500  1  0.40664939  0.57624875  0.98442958  1
  O2-  O501  1  0.41433825  0.83204839  0.31492668  1
  O2-  O502  1  0.40866398  0.82214322  0.65023684  1
  O2-  O503  1  0.44199654  0.87732405  0.96724121  1
  O2-  O504  1  0.65495009  0.07708457  0.31008391  1
  O2-  O505  1  0.66455796  0.06513148  0.71562295  1
  O2-  O506  1  0.68321382  0.09992483  0.98633495  1
  O2-  O507  1  0.66460317  0.34272777  0.31811118  1
  O2-  O508  1  0.68744377  0.32278425  0.65027484  1
  O2-  O509  1  0.67511559  0.34624580  0.98368029  1
  O2-  O510  1  0.66934988  0.60194046  0.31816392  1
  O2-  O511  1  0.67379685  0.59574970  0.65243672  1
  O2-  O512  1  0.65948940  0.58528027  0.98378831  1
  O2-  O513  1  0.65665055  0.82417175  0.31034807  1
  O2-  O514  1  0.67024276  0.82965633  0.64331599  1
  O2-  O515  1  0.67884186  0.83331402  0.98106925  1
  O2-  O516  1  0.91096427  0.07597053  0.30573658  1
  O2-  O517  1  0.92303298  0.08706494  0.66273760  1
  O2-  O518  1  0.92515430  0.08464845  0.98229505  1
  O2-  O519  1  0.91118436  0.33495589  0.29177735  1
  O2-  O520  1  0.92191289  0.33777631  0.66674155  1
  O2-  O521  1  0.94084301  0.33943630  0.98419955  1
  O2-  O522  1  0.91775498  0.58692039  0.31079951  1
  O2-  O523  1  0.91247704  0.58015425  0.64859753  1
  O2-  O524  1  0.93710330  0.56351936  0.98137071  1
  O2-  O525  1  0.91785315  0.82495270  0.30860174  1
  O2-  O526  1  0.91681451  0.83760865  0.64781348  1
  O2-  O527  1  0.91580338  0.84040609  0.97902257  1
  O2-  O528  1  0.09345937  0.16193444  0.01760197  1
  O2-  O529  1  0.14359104  0.20368910  0.36001665  1
  O2-  O530  1  0.08505108  0.17522341  0.70115520  1
  O2-  O531  1  0.03095002  0.38136997  0.00566876  1
  O2-  O532  1  0.08253078  0.41287968  0.33604951  1
  O2-  O533  1  0.09360224  0.42512411  0.69442951  1
  O2-  O534  1  0.12979626  0.67148958  0.02213524  1
  O2-  O535  1  0.07643101  0.67318757  0.35563963  1
  O2-  O536  1  0.07848525  0.64733955  0.70065115  1
  O2-  O537  1  0.08404171  0.90920084  0.00982155  1
  O2-  O538  1  0.08841678  0.92072359  0.34951117  1
  O2-  O539  1  0.08714803  0.92265392  0.68151958  1
  O2-  O540  1  0.33044125  0.16656723  0.02277546  1
  O2-  O541  1  0.33488661  0.16011129  0.36620689  1
  O2-  O542  1  0.36606483  0.16883905  0.69679099  1
  O2-  O543  1  0.32077560  0.40594764  0.01803599  1
  O2-  O544  1  0.31093203  0.35655639  0.36564145  1
  O2-  O545  1  0.34227311  0.41202903  0.68983484  1
  O2-  O546  1  0.28988661  0.63983747  0.00480396  1
  O2-  O547  1  0.34502682  0.67188858  0.34971061  1
  O2-  O548  1  0.33499328  0.66077895  0.64653712  1
  O2-  O549  1  0.33035820  0.92149992  0.02302224  1
  O2-  O550  1  0.34164413  0.90497802  0.35548973  1
  O2-  O551  1  0.33085927  0.91204765  0.67903145  1
  O2-  O552  1  0.58365460  0.17144461  0.02087196  1
  O2-  O553  1  0.58235684  0.17406328  0.35992801  1
  O2-  O554  1  0.59300182  0.16589729  0.70391614  1
  O2-  O555  1  0.57933507  0.41785756  0.02265151  1
  O2-  O556  1  0.57114424  0.42139702  0.33342588  1
  O2-  O557  1  0.58712657  0.43339691  0.69904011  1
  O2-  O558  1  0.56958620  0.65950087  0.02778311  1
  O2-  O559  1  0.57874438  0.67120133  0.34354618  1
  O2-  O560  1  0.57732389  0.66793634  0.69111819  1
  O2-  O561  1  0.59222084  0.92590375  0.01386011  1
  O2-  O562  1  0.57525386  0.90114557  0.34857448  1
  O2-  O563  1  0.57554481  0.90091975  0.67085609  1
  O2-  O564  1  0.84825364  0.17480769  0.02167374  1
  O2-  O565  1  0.82425797  0.16406849  0.28217064  1
  O2-  O566  1  0.83300337  0.17159688  0.67484338  1
  O2-  O567  1  0.82045641  0.41046980  0.02783476  1
  O2-  O568  1  0.83701033  0.41946166  0.35256324  1
  O2-  O569  1  0.83822528  0.41640654  0.69691586  1
  O2-  O570  1  0.82377155  0.67573742  0.03178855  1
  O2-  O571  1  0.82699925  0.65744557  0.35417324  1
  O2-  O572  1  0.83975435  0.67395974  0.69091799  1
  O2-  O573  1  0.83732216  0.91968326  0.02460138  1
  O2-  O574  1  0.81929738  0.89746895  0.34109119  1
  O2-  O575  1  0.83160571  0.91384794  0.69217768  1
