# generated using pymatgen
data_H2O
_symmetry_space_group_name_H-M   'P 1'
_cell_length_a   17.95593005
_cell_length_b   17.96789095
_cell_length_c   21.98542816
_cell_angle_alpha   90.02943292
_cell_angle_beta   90.02215061
_cell_angle_gamma   119.98115072
_symmetry_Int_Tables_number   1
_chemical_formula_structural   H2O
_chemical_formula_sum   'H384 O192'
_cell_volume   6144.02321315
_cell_formula_units_Z   192
loop_
 _symmetry_equiv_pos_site_id
 _symmetry_equiv_pos_as_xyz
  1  'x, y, z'
loop_
 _atom_type_symbol
 _atom_type_oxidation_number
  H+  1.0
  O2-  -2.0
loop_
 _atom_site_type_symbol
 _atom_site_label
 _atom_site_symmetry_multiplicity
 _atom_site_fract_x
 _atom_site_fract_y
 _atom_site_fract_z
 _atom_site_occupancy
  H+  H0  1  0.38436700  0.61387372  1.03590623  1
  H+  H1  1  0.22558610  0.47636947  0.24073804  1
  H+  H2  1  0.11274017  0.73020712  0.16992683  1
  H+  H3  1  0.68832792  0.83788412  0.31034764  1
  H+  H4  1  0.26393413  0.84712508  0.73762656  1
  H+  H5  1  0.11357830  0.88255839  0.48038699  1
  H+  H6  1  0.38084821  0.53235944  0.85678898  1
  H+  H7  1  0.13547471  0.11581679  0.65156434  1
  H+  H8  1  0.37998615  0.76108838  0.67190285  1
  H+  H9  1  0.26838189  0.87841466  0.15434449  1
  H+  H10  1  0.12966055  0.03904879  0.97957011  1
  H+  H11  1  0.88893506  0.26793008  0.99753761  1
  H+  H12  1  0.75256096  0.97130390  0.83108726  1
  H+  H13  1  0.07289986  0.89654579  0.82528829  1
  H+  H14  1  0.17693784  0.88207902  -0.07353897  1
  H+  H15  1  0.37086130  0.47712877  0.49776460  1
  H+  H16  1  0.47580528  0.86186594  0.00922261  1
  H+  H17  1  0.78024949  0.65096061  0.48925755  1
  H+  H18  1  0.39245776  0.26332762  0.48001935  1
  H+  H19  1  0.11403964  0.18967150  0.15592482  1
  H+  H20  1  0.30923401  0.88371802  0.04610793  1
  H+  H21  1  0.41216997  -0.01175194  0.86468331  1
  H+  H22  1  0.78747200  0.38050547  0.67951815  1
  H+  H23  1  0.74432928  0.88161919  0.01963320  1
  H+  H24  1  0.22624014  0.83844375  -0.04876067  1
  H+  H25  1  0.82911041  0.31848954  0.27693572  1
  H+  H26  1  0.10830660  0.21946536  0.68983149  1
  H+  H27  1  0.34856577  0.85212606  -0.00465349  1
  H+  H28  1  0.29270691  0.24499884  0.23768627  1
  H+  H29  1  0.63673927  0.02890095  0.33977478  1
  H+  H30  1  0.13023271  0.40016227  0.17004123  1
  H+  H31  1  0.16424259  0.58021661  0.56859097  1
  H+  H32  1  0.13454465  0.52442180  0.16665114  1
  H+  H33  1  0.28308127  0.89100622  0.33570561  1
  H+  H34  1  0.60300410  0.22175428  0.81935160  1
  H+  H35  1  0.86742615  0.49219264  0.50439410  1
  H+  H36  1  0.72905201  1.00938126  0.22908374  1
  H+  H37  1  0.75440399  0.96160230  0.79804016  1
  H+  H38  1  0.66989808  0.34336341  0.75838562  1
  H+  H39  1  0.88188966  0.39751830  0.99530773  1
  H+  H40  1  0.41795854  0.34107256  0.91841750  1
  H+  H41  1  0.60446979  0.66125672  0.47255536  1
  H+  H42  1  0.89390089  0.62912383  0.51556718  1
  H+  H43  1  0.86893566  0.47485767  0.17736377  1
  H+  H44  1  0.36287686  0.37046630  0.02039437  1
  H+  H45  1  0.35923875  0.96352796  0.14753548  1
  H+  H46  1  0.86140305  0.02273257  0.31502705  1
  H+  H47  1  0.59918416  0.86310469  0.50942125  1
  H+  H48  1  0.79227564  0.65780121  0.34297237  1
  H+  H49  1  0.73388112  0.04255081  0.53111910  1
  H+  H50  1  -0.00732614  0.89695760  0.00842448  1
  H+  H51  1  0.38049296  0.04276027  0.65841372  1
  H+  H52  1  0.13172819  0.65445478  0.02730400  1
  H+  H53  1  0.76738996  0.12737146  0.66955078  1
  H+  H54  1  0.52984630  0.15691985  0.49343546  1
  H+  H55  1  1.02052398  0.37876268  0.67085461  1
  H+  H56  1  0.92211595  0.58784993  0.24515228  1
  H+  H57  1  0.49082285  0.86708735  0.49236944  1
  H+  H58  1  0.15841752  0.85878526  0.79488234  1
  H+  H59  1  0.95903956  0.87808620  0.86923344  1
  H+  H60  1  0.56678996  0.69388507  0.30756986  1
  H+  H61  1  0.90050732  0.61826904  1.00583628  1
  H+  H62  1  0.36489904  0.72704096  0.33542144  1
  H+  H63  1  0.13722090  0.77301004  0.50393224  1
  H+  H64  1  0.36768968  0.47017747  0.68242245  1
  H+  H65  1  0.60915532  0.75797039  0.84393038  1
  H+  H66  1  0.39162731  0.10982045  0.31921629  1
  H+  H67  1  -0.01195999  0.35855001  0.16538132  1
  H+  H68  1  0.84709195  0.84848771  0.00402188  1
  H+  H69  1  0.60743000  0.63980782  0.83121511  1
  H+  H70  1  0.86560031  0.14385632  0.32426444  1
  H+  H71  1  0.14084652  0.88545850  0.65208124  1
  H+  H72  1  0.17146396  0.32964236  0.78447750  1
  H+  H73  1  0.13376392  0.60993903  0.66861156  1
  H+  H74  1  0.89228917  0.10570082  0.16129435  1
  H+  H75  1  0.11059665  0.09949272  0.14993745  1
  H+  H76  1  -0.01556302  0.61963606  0.33710891  1
  H+  H77  1  0.46945566  0.60424197  0.66399409  1
  H+  H78  1  0.36182217  0.96743820  0.49410510  1
  H+  H79  1  0.63966831  0.13004984  0.99338386  1
  H+  H80  1  0.04542451  0.24203156  0.22204569  1
  H+  H81  1  0.40106261  0.29448977  0.85249008  1
  H+  H82  1  0.11183976  0.63480804  0.49759830  1
  H+  H83  1  0.73456272  0.63609520  0.84994843  1
  H+  H84  1  0.81313423  0.93992994  0.41668171  1
  H+  H85  1  0.65104192  0.68973040  0.31983953  1
  H+  H86  1  0.39458416  0.86543218  0.31978271  1
  H+  H87  1  0.49478285  0.37715771  0.33990595  1
  H+  H88  1  0.11150497  0.26274293  0.32584629  1
  H+  H89  1  0.61886969  0.39524325  0.83123342  1
  H+  H90  1  0.86072563  0.26247457  0.31526903  1
  H+  H91  1  0.56676453  0.91097253  0.43895251  1
  H+  H92  1  0.89171732  0.85504846  0.17478400  1
  H+  H93  1  0.63932663  0.36995444  0.99649120  1
  H+  H94  1  0.15751641  0.33709364  0.37393975  1
  H+  H95  1  0.63625023  0.11260098  0.84001552  1
  H+  H96  1  0.90638904  0.96678675  0.83840744  1
  H+  H97  1  0.31570877  0.42963885  0.34208386  1
  H+  H98  1  0.04856738  0.25657734  0.18969790  1
  H+  H99  1  0.11525855  -0.02604343  0.33208278  1
  H+  H100  1  0.73054663  0.60298182  1.00300922  1
  H+  H101  1  0.14850836  -0.00245719  0.82236320  1
  H+  H102  1  0.65659919  0.54901409  0.33540613  1
  H+  H103  1  0.47727990  0.04747155  0.53445878  1
  H+  H104  1  0.62344146  0.10642926  0.67127789  1
  H+  H105  1  0.23350396  0.36794246  0.46095866  1
  H+  H106  1  0.13851816  0.36300074  0.69550051  1
  H+  H107  1  0.89132183  0.35858566  0.65922327  1
  H+  H108  1  0.26612583  0.62373437  0.67416648  1
  H+  H109  1  0.27648555  0.40294221  0.18148500  1
  H+  H110  1  0.85329972  0.38971610  0.82704445  1
  H+  H111  1  0.89085035  0.25053745  0.48202875  1
  H+  H112  1  0.87040924  0.22004602  0.15557527  1
  H+  H113  1  0.87940367  0.65291441  0.34571226  1
  H+  H114  1  0.63397413  0.85202606  0.16556740  1
  H+  H115  1  0.53248076  0.13526341  0.15595174  1
  H+  H116  1  0.76733513  0.62088029  0.69376913  1
  H+  H117  1  0.13356080  0.52154529  0.50788606  1
  H+  H118  1  0.84849742  0.75112165  0.80007186  1
  H+  H119  1  0.54027218  0.38350649  0.16582629  1
  H+  H120  1  0.39885283  0.76804348  0.02752551  1
  H+  H121  1  0.02168395  0.63909627  0.17231291  1
  H+  H122  1  0.18479758  0.38223771  0.26859588  1
  H+  H123  1  0.87006253  0.38731408  0.16465244  1
  H+  H124  1  0.11287964  0.97068829  0.48057596  1
  H+  H125  1  0.60980664  0.70807607  0.01090737  1
  H+  H126  1  0.37912329  0.26611573  1.00464246  1
  H+  H127  1  0.85213538  0.71609934  0.01923125  1
  H+  H128  1  0.33769462  0.36292812  0.17726704  1
  H+  H129  1  0.76867804  0.87336727  0.16044589  1
  H+  H130  1  0.46426065  0.85354474  0.67223243  1
  H+  H131  1  0.22520883  0.10523570  0.31389837  1
  H+  H132  1  0.63645685  0.07026024  0.61014648  1
  H+  H133  1  0.53407306  0.39679032  0.48932975  1
  H+  H134  1  0.52165829  0.12827088  0.83931569  1
  H+  H135  1  0.12851124  0.52564597  0.32203559  1
  H+  H136  1  0.57817766  0.00073785  0.51750715  1
  H+  H137  1  -0.00724050  0.39114309  0.32909328  1
  H+  H138  1  0.21811813  0.07866968  0.15754315  1
  H+  H139  1  0.83288802  0.42824657  0.41547677  1
  H+  H140  1  0.53087327  0.62680959  0.15959970  1
  H+  H141  1  0.61582371  0.50773774  0.69167519  1
  H+  H142  1  0.63774668  0.26092251  0.67403539  1
  H+  H143  1  0.51831487  0.88204792  0.15944811  1
  H+  H144  1  0.10879588  0.62558655  0.78457669  1
  H+  H145  1  0.90076293  0.77580698  0.32394985  1
  H+  H146  1  0.64375862  0.60817211  0.17852902  1
  H+  H147  1  0.53555984  0.40060603  0.85684062  1
  H+  H148  1  0.10594281  0.14645244  -0.00812309  1
  H+  H149  1  0.84393296  0.87372129  0.50129388  1
  H+  H150  1  0.50863952  0.13419960  0.67200574  1
  H+  H151  1  0.71746475  0.85315007  0.64524076  1
  H+  H152  1  0.61754132  0.62162885  0.00901030  1
  H+  H153  1  0.88328761  1.08758296  0.83674879  1
  H+  H154  1  0.85948693  0.96260577  0.15797906  1
  H+  H155  1  0.02446264  0.63937007  0.49749939  1
  H+  H156  1  0.28172362  0.38973053  0.83417364  1
  H+  H157  1  0.76810923  0.07457923  0.51029867  1
  H+  H158  1  0.58560828  0.93618117  0.07474846  1
  H+  H159  1  1.01025971  0.12250027  0.32377097  1
  H+  H160  1  0.62579433  0.40143930  0.34480815  1
  H+  H161  1  0.23238728  0.11895840  0.83511601  1
  H+  H162  1  0.61573815  0.96222169  0.17133109  1
  H+  H163  1  0.17857218  0.57208787  0.01308237  1
  H+  H164  1  0.08088651  0.67119727  0.08648282  1
  H+  H165  1  0.72816313  0.37178768  0.33827081  1
  H+  H166  1  0.37810272  0.60075585  0.50862866  1
  H+  H167  1  0.12380050  0.12109375  0.82944863  1
  H+  H168  1  0.98081511  0.37654455  0.50639586  1
  H+  H169  1  0.92495765  0.14269341  0.49405531  1
  H+  H170  1  0.85798735  0.39466553  0.35507854  1
  H+  H171  1  0.85479616  0.46635347  0.86097254  1
  H+  H172  1  0.37878048  0.61411382  0.11706575  1
  H+  H173  1  0.87060928  0.00155003  0.47130459  1
  H+  H174  1  0.12710395  -0.01247987  0.15801204  1
  H+  H175  1  0.60701379  0.97792015  0.83067707  1
  H+  H176  1  0.87430981  0.47071334  0.67240747  1
  H+  H177  1  0.38641069  0.76978375  0.14754784  1
  H+  H178  1  0.37053773  0.75603684  0.49656182  1
  H+  H179  1  0.47151455  0.35838716  1.01017245  1
  H+  H180  1  0.46642042  0.62098688  0.85119087  1
  H+  H181  1  0.48312210  0.61198092  1.00168257  1
  H+  H182  1  0.63933297  0.76603822  0.17015273  1
  H+  H183  1  0.10237007  0.12587601  0.31853249  1
  H+  H184  1  0.36793576  0.84504504  0.49627647  1
  H+  H185  1  0.34694132  0.85820430  0.69839595  1
  H+  H186  1  0.11904441  0.39296033  0.82410508  1
  H+  H187  1  0.85070977  0.13032183  1.00459776  1
  H+  H188  1  0.59518998  0.88271223  0.83303458  1
  H+  H189  1  0.28038810  0.39771673  0.00654097  1
  H+  H190  1  0.60981371  0.47149345  0.01146433  1
  H+  H191  1  0.14610046  0.27539666  0.45776522  1
  H+  H192  1  0.73526174  0.36427904  0.18261036  1
  H+  H193  1  0.27137739  0.12015233  0.49319566  1
  H+  H194  1  0.36099000  0.11767383  0.49451754  1
  H+  H195  1  0.18229816  0.81388300  0.84600800  1
  H+  H196  1  0.37565967  0.40260566  0.84643161  1
  H+  H197  1  0.11956980  0.64177912  0.34052831  1
  H+  H198  1  0.47995543  0.12862994  1.00707825  1
  H+  H199  1  0.14199228  0.25905653  0.83326789  1
  H+  H200  1  0.41118163  0.38802884  0.34100390  1
  H+  H201  1  0.62909926  0.38346105  0.16692341  1
  H+  H202  1  0.50163573  0.37604749  0.70825538  1
  H+  H203  1  0.88557471  1.01335019  0.63763575  1
  H+  H204  1  1.02641160  0.63870090  1.01851471  1
  H+  H205  1  0.37726116  0.59804652  0.66458918  1
  H+  H206  1  0.60696554  0.63046326  0.68144386  1
  H+  H207  1  0.42497568  0.32720406  0.42508058  1
  H+  H208  1  0.88437825  0.77756069  0.70467131  1
  H+  H209  1  0.42665952  0.56122911  0.31473012  1
  H+  H210  1  0.99720083  0.86815255  0.32075248  1
  H+  H211  1  0.34845439  0.63794619  0.83611559  1
  H+  H212  1  0.11838152  0.72590647  0.77514375  1
  H+  H213  1  0.04250535  0.14519369  0.48154715  1
  H+  H214  1  0.37309800  0.25490449  0.66743007  1
  H+  H215  1  0.51183978  0.64377082  0.49251252  1
  H+  H216  1  0.38906640  0.10121840  0.16160448  1
  H+  H217  1  0.72384249  0.36373431  0.81997097  1
  H+  H218  1  0.08630786  0.15641253  0.41600189  1
  H+  H219  1  0.65019491  0.54123084  0.85053798  1
  H+  H220  1  0.88655712  0.26613517  0.65570386  1
  H+  H221  1  0.89553270  0.73799880  0.85283796  1
  H+  H222  1  0.11837134  0.52502563  0.81989061  1
  H+  H223  1  0.36062912  0.13910091  0.00486493  1
  H+  H224  1  -0.03870738  0.10135112  -0.00447939  1
  H+  H225  1  0.26542980  0.62202208  0.48976883  1
  H+  H226  1  0.86747909  0.40224606  0.50290057  1
  H+  H227  1  0.20748711  0.61461489  0.82087222  1
  H+  H228  1  0.26877919  0.13958089  -0.00295287  1
  H+  H229  1  0.15919860  0.37144632  -0.01123492  1
  H+  H230  1  0.14451292  0.86620773  0.32790302  1
  H+  H231  1  0.37065398  0.38755747  0.48143680  1
  H+  H232  1  0.76781512  0.12039112  0.82196711  1
  H+  H233  1  0.22974477  0.36331726  0.69955772  1
  H+  H234  1  0.10300426  -0.01903244  0.66843313  1
  H+  H235  1  0.13017248  0.85765825  0.17681890  1
  H+  H236  1  0.64774921  0.52092414  0.18093361  1
  H+  H237  1  0.59324262  0.17561714  0.07019845  1
  H+  H238  1  0.62529564  0.40558287  0.50594541  1
  H+  H239  1  0.85326578  0.69087625  0.44047812  1
  H+  H240  1  0.86871321  1.01417734  -0.00130244  1
  H+  H241  1  0.85530768  0.12367787  0.66387770  1
  H+  H242  1  0.34515419  0.20244680  0.15957482  1
  H+  H243  1  0.39351787  0.51604119  0.16690344  1
  H+  H244  1  0.34619385  0.72433839  0.82423603  1
  H+  H245  1  0.89061341  0.60765144  0.66991288  1
  H+  H246  1  0.11333417  0.38925244  0.46913048  1
  H+  H247  1  1.03205451  0.12226790  0.83328321  1
  H+  H248  1  0.61806592  0.14478302  0.34091047  1
  H+  H249  1  0.37896394  0.85224068  0.15967623  1
  H+  H250  1  0.32561166  0.64911307  0.42937539  1
  H+  H251  1  0.88995028  0.61236169  0.18392008  1
  H+  H252  1  0.02366532  0.36888572  0.82990872  1
  H+  H253  1  0.77812284  0.63320699  0.16915318  1
  H+  H254  1  0.98669008  0.85497342  0.16693172  1
  H+  H255  1  0.47047821  0.87143922  0.83008484  1
  H+  H256  1  0.64077181  0.29327722  0.51684521  1
  H+  H257  1  0.63700336  0.54135358  0.49802411  1
  H+  H258  1  0.02103133  0.32186981  0.01315847  1
  H+  H259  1  0.36915168  0.33675521  0.69657420  1
  H+  H260  1  0.97578746  0.09368179  0.16285793  1
  H+  H261  1  0.61242475  0.91058219  1.01308902  1
  H+  H262  1  0.14545967  0.11337212  0.48948396  1
  H+  H263  1  0.40702155  0.63663028  0.30972009  1
  H+  H264  1  0.36437756  0.22120324  0.34545365  1
  H+  H265  1  0.05984477  0.84645923  0.10771443  1
  H+  H266  1  0.60500554  0.76910010  0.50432389  1
  H+  H267  1  0.92458071  0.61454737  0.84496544  1
  H+  H268  1  0.75200508  0.08823271  0.18587266  1
  H+  H269  1  0.97019663  0.86929793  0.70463876  1
  H+  H270  1  0.26773174  0.88363699  0.48652321  1
  H+  H271  1  0.89123782  0.53346140  0.34136486  1
  H+  H272  1  0.63935612  0.28116235  0.33359473  1
  H+  H273  1  0.07278354  0.41496003  0.73338582  1
  H+  H274  1  0.39575443  0.02348892  0.32147201  1
  H+  H275  1  0.25247497  0.65874743  1.04331477  1
  H+  H276  1  0.63607805  0.03981035  0.99719989  1
  H+  H277  1  0.83628947  0.87582608  0.59939746  1
  H+  H278  1  0.79439154  0.39956705  -0.00363114  1
  H+  H279  1  0.90447821  0.53004787  -0.00100073  1
  H+  H280  1  0.36925739  0.24198014  0.76324955  1
  H+  H281  1  0.55105169  0.78657812  0.99275974  1
  H+  H282  1  0.14584414  0.77774610  0.33070359  1
  H+  H283  1  0.39584078  0.18328193  0.79936810  1
  H+  H284  1  0.37422377  0.04905558  0.85918563  1
  H+  H285  1  0.15935897  0.07858510  0.55328232  1
  H+  H286  1  0.61042022  0.97359600  0.67677414  1
  H+  H287  1  0.60600843  0.10118935  0.51481375  1
  H+  H288  1  0.56078916  0.15097917  0.73622619  1
  H+  H289  1  0.66724028  0.33709395  0.62690537  1
  H+  H290  1  0.63189843  0.91011409  0.34693072  1
  H+  H291  1  0.98084726  0.24640259  0.87563820  1
  H+  H292  1  0.93135122  0.83265647  0.25502796  1
  H+  H293  1  0.60611527  0.71976024  0.67394743  1
  H+  H294  1  0.69364004  0.84808073  0.85584079  1
  H+  H295  1  0.63157616  0.85901827  0.66258317  1
  H+  H296  1  0.58771224  0.41314021  0.07134550  1
  H+  H297  1  0.89773983  0.22767925  0.84049428  1
  H+  H298  1  0.17032274  0.84485213  0.55734852  1
  H+  H299  1  0.59344813  0.65360921  0.10349863  1
  H+  H300  1  0.58855285  0.18588053  0.43418254  1
  H+  H301  1  0.16413023  0.58392939  0.26251189  1
  H+  H302  1  0.38719257  0.30744326  0.25710893  1
  H+  H303  1  0.34160935  0.91965113  0.39499836  1
  H+  H304  1  0.65885293  0.55246789  0.62951558  1
  H+  H305  1  0.68640969  0.59675270  0.27239072  1
  H+  H306  1  0.07546334  0.14890938  0.05885577  1
  H+  H307  1  0.09046690  0.66916778  0.40243618  1
  H+  H308  1  1.01862397  0.86412137  0.91889165  1
  H+  H309  1  0.98246460  0.61135530  0.67045587  1
  H+  H310  1  0.83039854  0.15822401  0.09791243  1
  H+  H311  1  0.20713764  0.37170539  0.92745958  1
  H+  H312  1  0.41413522  0.60022915  0.94761350  1
  H+  H313  1  0.85452647  0.79246447  0.51980800  1
  H+  H314  1  0.06758638  0.42468476  0.42731722  1
  H+  H315  1  0.61970610  0.23710251  1.01081341  1
  H+  H316  1  0.17006223  0.83518658  0.23585038  1
  H+  H317  1  0.16695702  0.06549056  0.25314856  1
  H+  H318  1  0.09144810  0.38106156  0.10246617  1
  H+  H319  1  0.07829271  0.14587632  0.73658891  1
  H+  H320  1  0.23094609  0.88870036  0.65489271  1
  H+  H321  1  0.52832843  0.14250406  0.33643068  1
  H+  H322  1  0.09964777  0.93352285  0.73146607  1
  H+  H323  1  0.58234289  0.91368239  0.73522256  1
  H+  H324  1  0.08554801  0.91491549  0.39463792  1
  H+  H325  1  0.13182194  0.51938561  0.66255970  1
  H+  H326  1  0.41827421  0.82878222  0.26110597  1
  H+  H327  1  0.93472591  0.58925936  0.91234605  1
  H+  H328  1  0.66473479  0.62229907  0.54158900  1
  H+  H329  1  0.06982565  0.93051354  0.05329176  1
  H+  H330  1  0.42430105  0.07789628  0.57654629  1
  H+  H331  1  0.34812711  0.42634446  0.74872330  1
  H+  H332  1  0.22275109  0.11480084  0.63438582  1
  H+  H333  1  0.92311604  0.32762819  0.22196100  1
  H+  H334  1  0.63576859  0.82738908  0.57131812  1
  H+  H335  1  0.61927512  0.81031624  0.94037226  1
  H+  H336  1  0.93712390  0.31693466  0.93845812  1
  H+  H337  1  0.81343734  0.90628139  0.07395783  1
  H+  H338  1  0.60269216  0.43555655  0.40527490  1
  H+  H339  1  0.76602423  0.14028357  0.00543063  1
  H+  H340  1  0.67520279  0.07749105  0.27796612  1
  H+  H341  1  0.83459613  0.65019806  0.74759174  1
  H+  H342  1  0.32859812  0.14994107  0.39640236  1
  H+  H343  1  0.53341562  0.88915876  0.33832234  1
  H+  H344  1  0.97141341  0.10132304  0.65548351  1
  H+  H345  1  0.41166793  0.57604087  0.57000461  1
  H+  H346  1  0.66713120  0.08669992  0.90042460  1
  H+  H347  1  0.07264038  0.37599161  0.33498675  1
  H+  H348  1  0.86940534  0.19324408  0.42079014  1
  H+  H349  1  0.36006750  0.89021796  0.78848639  1
  H+  H350  1  0.37014918  0.13929081  0.62994441  1
  H+  H351  1  0.06380549  0.26334283  0.02922062  1
  H+  H352  1  0.17070849  0.09191349  0.91772318  1
  H+  H353  1  0.18658719  0.38933504  0.58043953  1
  H+  H354  1  0.31811952  0.39672002  0.08066616  1
  H+  H355  1  0.83297721  0.65555201  0.07698249  1
  H+  H356  1  0.57277594  0.66352866  0.77044929  1
  H+  H357  1  0.32686853  0.15857246  0.09293655  1
  H+  H358  1  0.41970113  0.07458284  0.22149267  1
  H+  H359  1  0.72971501  0.37981344  0.52256921  1
  H+  H360  1  0.67071968  0.33636176  0.23962392  1
  H+  H361  1  0.32260040  0.65055746  0.73501466  1
  H+  H362  1  0.67530677  0.58468232  0.94096021  1
  H+  H363  1  0.61853723  0.22542459  0.16296077  1
  H+  H364  1  0.77444145  0.13868465  0.33921326  1
  H+  H365  1  0.13516811  0.61253820  0.17327107  1
  H+  H366  1  0.92383590  0.59524691  0.57399626  1
  H+  H367  1  0.27711484  0.63681353  0.33137746  1
  H+  H368  1  0.90154930  0.89731600  0.79028762  1
  H+  H369  1  0.88261876  0.81636460  0.94907491  1
  H+  H370  1  0.91951044  0.33773952  0.56482077  1
  H+  H371  1  0.37010258  0.45544711  0.40176691  1
  H+  H372  1  0.56591884  0.42470565  0.76390323  1
  H+  H373  1  0.66735682  0.34059524  0.93691149  1
  H+  H374  1  0.82654830  0.14587558  0.76088556  1
  H+  H375  1  0.42313744  0.59204450  0.21612702  1
  H+  H376  1  0.41507467  0.07113895  0.95622120  1
  H+  H377  1  0.14752447  0.34550490  0.57700210  1
  H+  H378  1  0.34441234  0.19103215  0.57934462  1
  H+  H379  1  0.94002180  0.09792390  0.55293025  1
  H+  H380  1  0.85275595  0.87860450  0.67030545  1
  H+  H381  1  0.90943680  0.06827350  0.90203458  1
  H+  H382  1  0.86819796  0.72296627  0.16709559  1
  H+  H383  1  0.91117185  0.08140837  0.25579823  1
  O2-  O384  1  0.08190553  0.13354017  0.13656346  1
  O2-  O385  1  0.10053013  0.16937747  0.46000129  1
  O2-  O386  1  0.09054536  0.15340654  0.81572870  1
  O2-  O387  1  0.09215653  0.40861399  0.14191446  1
  O2-  O388  1  0.08123546  0.42132127  0.47064115  1
  O2-  O389  1  0.07959364  0.41434165  0.81312178  1
  O2-  O390  1  0.08124598  0.66911010  0.15395176  1
  O2-  O391  1  0.08397171  0.66625992  0.48010980  1
  O2-  O392  1  0.08030010  0.66024937  0.76328663  1
  O2-  O393  1  0.06526910  0.88684795  0.13930899  1
  O2-  O394  1  0.08433424  0.91235278  0.46237498  1
  O2-  O395  1  0.12537251  0.93478767  0.80234395  1
  O2-  O396  1  0.32490146  0.14761207  0.13814417  1
  O2-  O397  1  0.33467624  0.15131481  0.48061121  1
  O2-  O398  1  0.36098403  0.21050387  0.80331917  1
  O2-  O399  1  0.32286362  0.40289863  0.15638983  1
  O2-  O400  1  0.34416951  0.42334258  0.47191967  1
  O2-  O401  1  0.34454963  0.43083315  0.82849859  1
  O2-  O402  1  0.34894910  0.61627428  0.07850849  1
  O2-  O403  1  0.32593749  0.64743023  0.47467106  1
  O2-  O404  1  0.31720875  0.66223426  0.81365521  1
  O2-  O405  1  0.32565385  0.90232142  0.13448945  1
  O2-  O406  1  0.32927598  0.91152050  0.47204399  1
  O2-  O407  1  0.37082366  0.88980423  0.83417232  1
  O2-  O408  1  0.59335918  0.16878737  0.14261714  1
  O2-  O409  1  0.59021437  0.19188953  0.47937917  1
  O2-  O410  1  0.57640739  0.15826162  0.81608585  1
  O2-  O411  1  0.59861076  0.41511477  0.14994262  1
  O2-  O412  1  0.59703262  0.43556169  0.48522322  1
  O2-  O413  1  0.59494785  0.43400270  0.83972025  1
  O2-  O414  1  0.59313706  0.65576274  0.14889398  1
  O2-  O415  1  0.56700355  0.68673263  0.47289164  1
  O2-  O416  1  0.57192981  0.66464252  0.81618442  1
  O2-  O417  1  0.57991103  0.91074550  0.14587863  1
  O2-  O418  1  0.55725555  0.90575288  0.48392870  1
  O2-  O419  1  0.57273187  0.91777105  0.81410866  1
  O2-  O420  1  0.83934602  0.15812673  0.14307020  1
  O2-  O421  1  0.88569497  0.19753993  0.46409230  1
  O2-  O422  1  0.82753169  0.14217279  0.80648828  1
  O2-  O423  1  0.83312800  0.41349585  0.16585047  1
  O2-  O424  1  0.83440276  0.43103032  0.48965204  1
  O2-  O425  1  0.81841202  0.40265661  0.85417504  1
  O2-  O426  1  0.83850598  0.66142534  0.15297294  1
  O2-  O427  1  0.84369459  0.68394312  0.48513626  1
  O2-  O428  1  0.84577355  0.70491638  0.82541823  1
  O2-  O429  1  0.82978993  0.90173203  0.14353288  1
  O2-  O430  1  0.82560224  0.94242205  0.46092317  1
  O2-  O431  1  0.89877995  0.90816062  0.83390829  1
  O2-  O432  1  0.15803561  0.04890161  0.17373863  1
  O2-  O433  1  0.17041642  0.07973574  0.50840736  1
  O2-  O434  1  0.17345647  0.08024069  0.84872065  1
  O2-  O435  1  0.20923099  0.41734573  0.23025337  1
  O2-  O436  1  0.17220534  0.33862113  0.44778204  1
  O2-  O437  1  0.17132595  0.32403220  0.83040450  1
  O2-  O438  1  0.16304456  0.58002816  0.18797565  1
  O2-  O439  1  0.16519326  0.58197555  0.52296958  1
  O2-  O440  1  0.14357062  0.58829976  0.82270264  1
  O2-  O441  1  0.16566514  0.83127577  0.19036532  1
  O2-  O442  1  0.16788625  0.83614390  0.51202870  1
  O2-  O443  1  0.17400621  0.81290471  0.80044289  1
  O2-  O444  1  0.42004737  0.07181684  0.17630981  1
  O2-  O445  1  0.43328293  0.06522656  0.52962650  1
  O2-  O446  1  0.42475870  0.04817332  0.87433129  1
  O2-  O447  1  0.34935699  0.28404969  0.22063297  1
  O2-  O448  1  0.42232141  0.32586872  0.46988541  1
  O2-  O449  1  0.42768216  0.35158781  0.87379727  1
  O2-  O450  1  0.42098877  0.57941968  0.17114997  1
  O2-  O451  1  0.41312755  0.57536669  0.52436221  1
  O2-  O452  1  0.40848405  0.59391753  0.87025846  1
  O2-  O453  1  0.41024930  0.82181958  0.17378763  1
  O2-  O454  1  0.40072046  0.81689438  0.51014538  1
  O2-  O455  1  0.40795397  0.83476826  0.84231893  1
  O2-  O456  1  0.70516653  0.04332582  0.21194302  1
  O2-  O457  1  0.58254711  0.05019653  0.54140104  1
  O2-  O458  1  0.66556563  0.08109950  0.85483831  1
  O2-  O459  1  0.67172768  0.33469387  0.19429720  1
  O2-  O460  1  0.66869824  0.35106625  0.53661549  1
  O2-  O461  1  0.66346391  0.33673522  0.80301073  1
  O2-  O462  1  0.67694394  0.58133354  0.19565631  1
  O2-  O463  1  0.66587493  0.60598133  0.49953133  1
  O2-  O464  1  0.67378268  0.60259364  0.86347649  1
  O2-  O465  1  0.67022379  0.82829291  0.17974775  1
  O2-  O466  1  0.63069964  0.82994451  0.52512568  1
  O2-  O467  1  0.63229126  0.81618957  0.86497375  1
  O2-  O468  1  0.91601315  0.06976362  0.17802246  1
  O2-  O469  1  0.94901957  0.10536607  0.50823541  1
  O2-  O470  1  0.91972328  0.06801326  0.85737423  1
  O2-  O471  1  0.92572683  0.32649708  0.17713885  1
  O2-  O472  1  0.91967003  0.34800808  0.51984893  1
  O2-  O473  1  0.94784696  0.27416362  0.86472974  1
  O2-  O474  1  0.92325611  0.58522923  0.19971854  1
  O2-  O475  1  0.92270396  0.59622218  0.52825625  1
  O2-  O476  1  0.92811415  0.57103444  0.86889808  1
  O2-  O477  1  0.92351451  0.82678420  0.19035484  1
  O2-  O478  1  0.85519990  0.84389291  0.53552767  1
  O2-  O479  1  0.98162342  0.83922373  0.88317277  1
  O2-  O480  1  0.16557630  0.07566535  0.29776937  1
  O2-  O481  1  0.15866571  0.08203797  0.63086072  1
  O2-  O482  1  0.16700240  0.09861887  0.96484145  1
  O2-  O483  1  0.13770507  0.32669618  0.33004001  1
  O2-  O484  1  0.16686581  0.32994714  0.70928879  1
  O2-  O485  1  0.21661542  0.39893334  0.96745087  1
  O2-  O486  1  0.16722442  0.58565070  0.30860975  1
  O2-  O487  1  0.16345076  0.58039451  0.64844090  1
  O2-  O488  1  0.19902926  0.63337756  1.01612945  1
  O2-  O489  1  0.17688031  0.83733989  0.31365797  1
  O2-  O490  1  0.17814381  0.86710989  0.63111100  1
  O2-  O491  1  0.17968103  0.82955482  0.92177660  1
  O2-  O492  1  0.42521505  0.08344555  0.30427499  1
  O2-  O493  1  0.41715763  0.09735098  0.63810933  1
  O2-  O494  1  0.41778850  0.09768276  0.99591336  1
  O2-  O495  1  0.42976512  0.34423319  0.33515146  1
  O2-  O496  1  0.39460729  0.29887477  0.70144333  1
  O2-  O497  1  0.41000069  0.33129776  0.99622967  1
  O2-  O498  1  0.44226458  0.61378195  0.29090840  1
  O2-  O499  1  0.40952706  0.56954692  0.64833596  1
  O2-  O500  1  0.42238703  0.59705135  0.99263697  1
  O2-  O501  1  0.42333870  0.83283695  0.30603666  1
  O2-  O502  1  0.40164234  0.82313545  0.66506050  1
  O2-  O503  1  0.42679329  0.80886130  0.99278379  1
  O2-  O504  1  0.66863410  0.08816546  0.32164268  1
  O2-  O505  1  0.65499046  0.07820624  0.65370583  1
  O2-  O506  1  0.66875391  0.09797366  0.97759739  1
  O2-  O507  1  0.66968266  0.34256298  0.31939895  1
  O2-  O508  1  0.67644339  0.32443877  0.66905715  1
  O2-  O509  1  0.67346790  0.34346898  0.98102677  1
  O2-  O510  1  0.69032547  0.60715389  0.31736268  1
  O2-  O511  1  0.65630621  0.56748999  0.67167006  1
  O2-  O512  1  0.67035446  0.57496035  0.98598093  1
  O2-  O513  1  0.71202787  0.90200595  0.31083559  1
  O2-  O514  1  0.65278220  0.82281584  0.64192552  1
  O2-  O515  1  0.61244001  0.80705232  0.98596648  1
  O2-  O516  1  0.90729719  0.08496411  0.30088373  1
  O2-  O517  1  0.91555959  0.07733470  0.63361011  1
  O2-  O518  1  0.90044620  0.07272253  0.98047614  1
  O2-  O519  1  0.87869901  0.32346335  0.29889367  1
  O2-  O520  1  0.92026989  0.32663562  0.64147623  1
  O2-  O521  1  0.93454211  0.32588808  0.98265696  1
  O2-  O522  1  0.92273113  0.59246935  0.32367033  1
  O2-  O523  1  0.92303599  0.58241776  0.65087123  1
  O2-  O524  1  0.93742078  0.59512802  0.99077461  1
  O2-  O525  1  0.93459268  0.83558588  0.30368613  1
  O2-  O526  1  0.90786840  0.83797233  0.71778888  1
  O2-  O527  1  0.88029273  0.81863827  0.99345205  1
  O2-  O528  1  0.06839813  0.16231475  0.01603268  1
  O2-  O529  1  0.07261579  0.15478835  0.33631355  1
  O2-  O530  1  0.07823804  0.15553596  0.69157994  1
  O2-  O531  1  0.07255963  0.32232944  0.03189116  1
  O2-  O532  1  0.05161768  0.41636118  0.34515755  1
  O2-  O533  1  0.08007501  0.41346628  0.68858173  1
  O2-  O534  1  0.08632968  0.67301966  0.03921389  1
  O2-  O535  1  0.08987496  0.67211917  0.35680966  1
  O2-  O536  1  0.08086159  0.65368637  0.69650096  1
  O2-  O537  1  0.05639285  0.93067803  0.00981701  1
  O2-  O538  1  0.08581392  0.91347516  0.34697199  1
  O2-  O539  1  0.07695308  0.92341555  0.68824534  1
  O2-  O540  1  0.32667435  0.16878866  0.01758094  1
  O2-  O541  1  0.33100039  0.15844336  0.35155480  1
  O2-  O542  1  0.33454694  0.17315041  0.62182730  1
  O2-  O543  1  0.32984342  0.40195506  0.03556764  1
  O2-  O544  1  0.37544593  0.45874003  0.35559120  1
  O2-  O545  1  0.33880374  0.41356715  0.70421835  1
  O2-  O546  1  0.34090383  0.69442659  0.08121883  1
  O2-  O547  1  0.33711514  0.66517344  0.34749872  1
  O2-  O548  1  0.32660790  0.64860853  0.68982731  1
  O2-  O549  1  0.30839147  0.87390711  0.00196233  1
  O2-  O550  1  0.34460111  0.92125726  0.34929199  1
  O2-  O551  1  0.32078377  0.88906268  0.72146486  1
  O2-  O552  1  0.58907800  0.17607894  0.02387002  1
  O2-  O553  1  0.58743124  0.17573116  0.35422211  1
  O2-  O554  1  0.56785987  0.15632063  0.69137981  1
  O2-  O555  1  0.57855285  0.41055426  0.02634292  1
  O2-  O556  1  0.59756304  0.43420040  0.35995477  1
  O2-  O557  1  0.56147918  0.42106795  0.71884456  1
  O2-  O558  1  0.58357619  0.64816791  0.02570095  1
  O2-  O559  1  0.62758367  0.72888949  0.31929169  1
  O2-  O560  1  0.57543129  0.66112791  0.69270300  1
  O2-  O561  1  0.58622058  0.94331201  0.02900467  1
  O2-  O562  1  0.58735774  0.92415957  0.36179362  1
  O2-  O563  1  0.58432211  0.91201789  0.68999606  1
  O2-  O564  1  0.82667589  0.16536734  0.02178487  1
  O2-  O565  1  0.83851312  0.17652690  0.34248582  1
  O2-  O566  1  0.82860913  0.15512711  0.68323512  1
  O2-  O567  1  0.85521846  0.43104903  0.00895183  1
  O2-  O568  1  0.83157474  0.42816741  0.36919254  1
  O2-  O569  1  0.85042843  0.41103038  0.68767635  1
  O2-  O570  1  0.83165201  0.65534367  0.03109375  1
  O2-  O571  1  0.85383515  0.68946719  0.35743981  1
  O2-  O572  1  0.83005682  0.65346244  0.70319038  1
  O2-  O573  1  0.80604485  0.90816617  0.02758786  1
  O2-  O574  1  0.79713271  0.93438683  0.33786129  1
  O2-  O575  1  0.82610919  0.89821933  0.63929028  1
