# generated using pymatgen
data_H2O
_symmetry_space_group_name_H-M   'P 1'
_cell_length_a   17.97895326
_cell_length_b   17.97766445
_cell_length_c   21.99342699
_cell_angle_alpha   90.02637778
_cell_angle_beta   90.01498334
_cell_angle_gamma   119.98630803
_symmetry_Int_Tables_number   1
_chemical_formula_structural   H2O
_chemical_formula_sum   'H384 O192'
_cell_volume   6157.16791971
_cell_formula_units_Z   192
loop_
 _symmetry_equiv_pos_site_id
 _symmetry_equiv_pos_as_xyz
  1  'x, y, z'
loop_
 _atom_type_symbol
 _atom_type_oxidation_number
  H+  1.0
  O2-  -2.0
loop_
 _atom_site_type_symbol
 _atom_site_label
 _atom_site_symmetry_multiplicity
 _atom_site_fract_x
 _atom_site_fract_y
 _atom_site_fract_z
 _atom_site_occupancy
  H+  H0  1  0.61761902  0.15662627  0.01054623  1
  H+  H1  1  0.90147316  0.11804410  0.97932843  1
  H+  H2  1  0.74220699  0.84201697  0.65592992  1
  H+  H3  1  0.25635922  0.60363954  0.83284852  1
  H+  H4  1  0.16600102  0.07377260  0.57775814  1
  H+  H5  1  0.91829055  0.28233177  0.81842142  1
  H+  H6  1  0.38673017  0.22903559  0.29821637  1
  H+  H7  1  0.63644215  0.61863609  0.46894098  1
  H+  H8  1  0.11460802  0.45606896  0.67901391  1
  H+  H9  1  0.50287928  0.34724236  0.27957238  1
  H+  H10  1  0.15651664  0.27627341  0.81170211  1
  H+  H11  1  0.11629824  0.49207495  0.84096596  1
  H+  H12  1  0.02462523  0.63107111  0.68101733  1
  H+  H13  1  0.23318506  0.63027074  0.33865720  1
  H+  H14  1  0.11461405  0.98338283  0.49615736  1
  H+  H15  1  0.08525650  0.68003547  0.40922826  1
  H+  H16  1  0.39061555  0.54871816  0.30784946  1
  H+  H17  1  0.47497986  0.34829749  1.01036446  1
  H+  H18  1  1.00622202  0.89526418  0.99389961  1
  H+  H19  1  0.21472239  0.87241143  0.84539708  1
  H+  H20  1  0.89479859  0.62028181  0.15260042  1
  H+  H21  1  0.47290455  0.85379154  0.51452936  1
  H+  H22  1  0.75045688  0.62292169  0.00174489  1
  H+  H23  1  0.87607580  0.34310415  0.34124791  1
  H+  H24  1  0.11944583  -0.02014894  0.34055460  1
  H+  H25  1  0.37994869  0.25993410  1.01816418  1
  H+  H26  1  0.38816701  0.11500997  0.32380456  1
  H+  H27  1  0.85796988  0.14040588  0.15577116  1
  H+  H28  1  0.59354082  0.86980451  0.83589709  1
  H+  H29  1  0.66768932  0.32393090  0.39038182  1
  H+  H30  1  0.13947437  0.86433760  0.32382454  1
  H+  H31  1  0.93772040  0.57036827  1.00436782  1
  H+  H32  1  0.24712735  0.36201693  -0.02887356  1
  H+  H33  1  0.36705622  0.96857155  0.49869006  1
  H+  H34  1  0.65529000  0.28982295  -0.00563438  1
  H+  H35  1  0.45617841  0.81873909  0.87762922  1
  H+  H36  1  0.13414131  0.12593292  0.99848167  1
  H+  H37  1  0.29012692  0.47942522  0.36092416  1
  H+  H38  1  0.86361071  0.88688842  0.49407151  1
  H+  H39  1  0.88569776  0.26616241  0.51476456  1
  H+  H40  1  0.61622209  0.64853145  0.32641749  1
  H+  H41  1  0.36544625  0.88470783  0.16943546  1
  H+  H42  1  0.13324759  1.01898324  0.82056217  1
  H+  H43  1  0.14048111  0.85639680  1.00179051  1
  H+  H44  1  0.36901094  0.73355903  0.86676348  1
  H+  H45  1  0.22782037  0.60307671  0.50543323  1
  H+  H46  1  0.39470175  0.13950481  0.84580068  1
  H+  H47  1  0.16694086  0.10592754  0.39245745  1
  H+  H48  1  0.89295373  0.77254944  0.66245464  1
  H+  H49  1  0.86915505  0.47201089  0.48611915  1
  H+  H50  1  0.36562463  0.72321494  0.49508168  1
  H+  H51  1  0.66497364  0.57796266  0.90525194  1
  H+  H52  1  0.63338746  0.09903854  0.51941827  1
  H+  H53  1  0.38327810  1.01778061  0.66475480  1
  H+  H54  1  0.39252661  0.26832938  0.51531526  1
  H+  H55  1  0.77495287  0.04378106  0.01830238  1
  H+  H56  1  0.23772003  0.62527046  0.13484070  1
  H+  H57  1  0.16919813  0.26535603  -0.02656381  1
  H+  H58  1  0.47335461  0.60288411  0.49559406  1
  H+  H59  1  0.87169510  0.64505268  0.32622965  1
  H+  H60  1  0.58079470  0.49518494  0.70412730  1
  H+  H61  1  0.86418543  0.89004205  0.16630284  1
  H+  H62  1  0.37519150  0.12998785  0.50974784  1
  H+  H63  1  0.20811519  0.33621102  0.32936594  1
  H+  H64  1  0.13182902  0.26097053  0.67485587  1
  H+  H65  1  0.11985743  0.13559735  0.78525580  1
  H+  H66  1  0.86131913  0.86653893  0.00705874  1
  H+  H67  1  0.22459200  0.10927313  0.18088620  1
  H+  H68  1  0.63347781  0.27256467  0.16112787  1
  H+  H69  1  0.14062408  0.75981508  0.67255131  1
  H+  H70  1  0.63107821  0.06861570  0.89759510  1
  H+  H71  1  0.01988011  0.64502335  0.48446859  1
  H+  H72  1  -0.01510117  0.86000558  0.66282831  1
  H+  H73  1  0.86784022  0.39321108  0.67205203  1
  H+  H74  1  0.87074508  0.02609523  0.17405126  1
  H+  H75  1  0.39012531  0.86069283  0.66868207  1
  H+  H76  1  0.39733904  0.77721213  0.15639598  1
  H+  H77  1  0.53096829  0.15501590  0.15835609  1
  H+  H78  1  0.63386338  0.78025471  0.31857036  1
  H+  H79  1  0.12786485  0.15160479  0.15381609  1
  H+  H80  1  0.60020901  0.09100835  0.83707401  1
  H+  H81  1  0.37056802  0.65362242  0.33413214  1
  H+  H82  1  0.59658287  0.48925057  0.32477886  1
  H+  H83  1  0.59970901  0.41645893  0.70170609  1
  H+  H84  1  0.29178247  0.87015530  0.01312840  1
  H+  H85  1  0.67001445  0.81596891  0.55990965  1
  H+  H86  1  0.60664683  0.47704441  0.47296211  1
  H+  H87  1  0.76899770  0.12556469  0.51434612  1
  H+  H88  1  0.88657848  0.38386501  0.99280007  1
  H+  H89  1  0.18373006  0.31988902  0.87994032  1
  H+  H90  1  0.89328407  0.77761128  0.50483378  1
  H+  H91  1  0.14651656  0.37266756  0.16637100  1
  H+  H92  1  0.88832358  0.78457185  0.17592484  1
  H+  H93  1  0.19941110  0.62616011  0.98527004  1
  H+  H94  1  0.64182994  0.31751758  0.73315801  1
  H+  H95  1  0.72644592  0.60865477  0.31610234  1
  H+  H96  1  0.15281007  0.28644870  0.16604485  1
  H+  H97  1  0.82990467  0.60799202  0.01340606  1
  H+  H98  1  0.39076077  0.37276350  0.14850870  1
  H+  H99  1  -0.00909518  0.11918505  0.81036612  1
  H+  H100  1  0.88404362  0.60972436  0.84029467  1
  H+  H101  1  0.08535275  0.91912720  0.39684768  1
  H+  H102  1  0.60591409  0.72610417  0.14285840  1
  H+  H103  1  0.52699250  0.64949430  0.32291015  1
  H+  H104  1  0.62174593  0.71972915  0.82703777  1
  H+  H105  1  1.02242653  0.89532695  0.49062333  1
  H+  H106  1  0.86930788  0.28943046  -0.00399609  1
  H+  H107  1  0.13010197  0.87680627  0.49216414  1
  H+  H108  1  0.53206447  0.39536221  0.14149356  1
  H+  H109  1  0.26779200  0.38183433  0.81942774  1
  H+  H110  1  0.36893388  0.47984991  0.82532508  1
  H+  H111  1  0.63912326  0.37353803  0.16053957  1
  H+  H112  1  0.48065365  0.13457018  0.83909308  1
  H+  H113  1  0.12847001  0.27106500  0.51218502  1
  H+  H114  1  0.62351708  0.63593884  0.67497018  1
  H+  H115  1  0.61253032  0.21681142  0.48607346  1
  H+  H116  1  0.35190186  0.61638499  0.82726299  1
  H+  H117  1  0.63422502  0.36387405  0.47212176  1
  H+  H118  1  0.90974242  0.03765583  0.97034167  1
  H+  H119  1  0.62380977  0.09407314  0.33246064  1
  H+  H120  1  0.47604787  0.36209531  0.50897679  1
  H+  H121  1  0.38444353  0.85485896  0.51241347  1
  H+  H122  1  0.92761024  0.34320922  0.21460088  1
  H+  H123  1  0.62989659  0.51295626  0.84885167  1
  H+  H124  1  0.67836950  0.59194994  0.41753703  1
  H+  H125  1  0.61337093  0.87613481  0.49728850  1
  H+  H126  1  0.94277493  0.28222125  0.29836557  1
  H+  H127  1  0.08508004  0.71391037  0.99755150  1
  H+  H128  1  0.12786571  -0.02071244  1.01055876  1
  H+  H129  1  0.00765557  0.37803549  0.31659924  1
  H+  H130  1  0.27661167  0.88570742  0.30865729  1
  H+  H131  1  0.63672342  0.86816217  0.16870009  1
  H+  H132  1  0.47476838  0.10308408  0.66469097  1
  H+  H133  1  0.85478525  -0.01338964  0.34237076  1
  H+  H134  1  0.61150102  0.03141376  0.99634799  1
  H+  H135  1  -0.02852747  0.36345799  0.66384557  1
  H+  H136  1  0.60920344  0.97643414  0.67425219  1
  H+  H137  1  0.03539444  0.39682004  0.14746211  1
  H+  H138  1  0.12881658  0.87614546  0.84240684  1
  H+  H139  1  0.10567832  0.74127334  0.48397094  1
  H+  H140  1  0.27351506  0.88376344  0.17146029  1
  H+  H141  1  -0.00950733  0.11176252  0.67380609  1
  H+  H142  1  0.26428320  0.38503691  0.67911539  1
  H+  H143  1  0.39935032  0.03678583  0.17457060  1
  H+  H144  1  0.23035273  0.59633768  0.66967751  1
  H+  H145  1  0.59156213  0.18625791  0.09688509  1
  H+  H146  1  0.86913771  0.22814907  0.67052151  1
  H+  H147  1  0.61112179  0.72471685  0.48531792  1
  H+  H148  1  0.86443851  0.11729084  0.33606816  1
  H+  H149  1  0.63341981  0.01060995  0.51516891  1
  H+  H150  1  0.38367049  0.02291495  0.31211308  1
  H+  H151  1  0.72451999  0.87012286  0.83531400  1
  H+  H152  1  0.38457723  0.25605311  0.66385068  1
  H+  H153  1  0.77209996  0.89444018  0.33960959  1
  H+  H154  1  0.14394447  0.02494969  0.67266595  1
  H+  H155  1  0.36652458  0.63423619  0.48838295  1
  H+  H156  1  0.85342543  0.18434775  0.75972279  1
  H+  H157  1  0.48108475  0.10692062  0.51386698  1
  H+  H158  1  0.13470096  0.36229111  0.51561302  1
  H+  H159  1  0.27998833  0.88259610  0.68136394  1
  H+  H160  1  0.09126265  0.23195479  0.33071121  1
  H+  H161  1  0.27819853  0.15232178  0.82487238  1
  H+  H162  1  0.26310435  0.12076220  0.00977204  1
  H+  H163  1  0.01931190  0.14341376  0.49562948  1
  H+  H164  1  -0.00569427  0.63480819  0.84122118  1
  H+  H165  1  0.78379626  0.41714304  0.00299181  1
  H+  H166  1  0.43966693  0.32737458  0.86167697  1
  H+  H167  1  0.64200042  0.32482252  0.66257583  1
  H+  H168  1  0.50681749  0.84757554  0.68464950  1
  H+  H169  1  0.01689758  0.38842310  0.00196047  1
  H+  H170  1  0.13831102  0.76985335  0.16568031  1
  H+  H171  1  0.46880303  0.36461696  0.67104197  1
  H+  H172  1  0.15397356  0.31839116  0.61283415  1
  H+  H173  1  0.02516250  0.38420529  0.49413161  1
  H+  H174  1  0.40418452  0.43740084  0.29606702  1
  H+  H175  1  0.61573358  -0.01254668  0.16435756  1
  H+  H176  1  0.12057255  0.88772616  0.67812641  1
  H+  H177  1  0.12400934  0.64120387  0.13959525  1
  H+  H178  1  0.89976695  0.82959031  0.90897055  1
  H+  H179  1  0.62157936  0.61003043  0.16296988  1
  H+  H180  1  0.88882654  0.61191560  0.50299021  1
  H+  H181  1  0.12625941  0.73824308  0.33967400  1
  H+  H182  1  0.38230641  0.51321748  0.50047102  1
  H+  H183  1  0.95443123  0.12066442  0.32749234  1
  H+  H184  1  0.83579602  0.43478672  0.09933882  1
  H+  H185  1  0.80222390  0.77237234  0.89303803  1
  H+  H186  1  0.52733285  0.89510739  0.16160758  1
  H+  H187  1  0.39737553  0.86855875  0.31065527  1
  H+  H188  1  0.12592322  0.40047823  0.34055931  1
  H+  H189  1  0.88607880  0.35538113  0.51047988  1
  H+  H190  1  0.62311407  0.62782821  0.74481861  1
  H+  H191  1  0.33923685  0.92006010  0.25248672  1
  H+  H192  1  0.23274456  0.13659252  0.33890145  1
  H+  H193  1  0.72555499  0.36458324  0.47619885  1
  H+  H194  1  0.11322007  0.63198727  0.69732484  1
  H+  H195  1  0.27789708  0.39787199  0.15630887  1
  H+  H196  1  0.14561141  0.56363242  0.89204503  1
  H+  H197  1  0.83586705  0.91105208  0.72959737  1
  H+  H198  1  0.10224738  0.74374015  0.83829783  1
  H+  H199  1  1.05349249  0.14275164  0.99486907  1
  H+  H200  1  0.11391699  0.97194147  0.16473569  1
  H+  H201  1  0.71609275  0.10174136  0.33917507  1
  H+  H202  1  0.02422692  0.88516634  0.16519388  1
  H+  H203  1  0.30868314  0.50503326  0.38953170  1
  H+  H204  1  0.60636952  0.20079442  0.35021347  1
  H+  H205  1  0.62249528  0.63141455  0.83624536  1
  H+  H206  1  0.32061977  0.72675010  0.68863381  1
  H+  H207  1  0.61455908  0.18448532  0.65665584  1
  H+  H208  1  0.89433176  0.53042778  0.65905351  1
  H+  H209  1  0.15108962  0.53423309  0.14326604  1
  H+  H210  1  0.72742401  0.85759430  0.50103244  1
  H+  H211  1  0.35584991  0.01276971  0.82703329  1
  H+  H212  1  0.85930308  0.48691035  0.31806952  1
  H+  H213  1  0.61992231  0.48466190  0.15120581  1
  H+  H214  1  0.97641642  0.87235780  0.32540052  1
  H+  H215  1  0.48867390  0.60837848  0.83610373  1
  H+  H216  1  0.59847543  0.41980332  0.05329190  1
  H+  H217  1  0.59621670  0.09230512  0.67827997  1
  H+  H218  1  0.99605972  0.66168220  0.31044827  1
  H+  H219  1  0.76702231  0.61783751  0.83069015  1
  H+  H220  1  0.63981916  0.12618673  0.17637534  1
  H+  H221  1  0.90868214  0.40909124  0.81849400  1
  H+  H222  1  0.09144187  0.14445785  0.33886384  1
  H+  H223  1  0.89046631  0.87772062  0.32592951  1
  H+  H224  1  0.89292350  0.61793351  0.65802594  1
  H+  H225  1  0.92357741  0.58440053  0.56059199  1
  H+  H226  1  0.77879198  0.32263051  0.35321882  1
  H+  H227  1  0.27610134  0.13777068  0.67553370  1
  H+  H228  1  0.33346366  0.35526660  0.35391738  1
  H+  H229  1  0.57579946  0.94827784  0.83450222  1
  H+  H230  1  0.14315956  0.11460968  0.67733370  1
  H+  H231  1  0.75156344  0.26739428  0.87476246  1
  H+  H232  1  0.23273885  0.10222271  0.52391080  1
  H+  H233  1  0.88742141  0.02150189  0.51570784  1
  H+  H234  1  0.10216038  0.47728188  -0.00016075  1
  H+  H235  1  0.12714748  0.64337357  0.34593799  1
  H+  H236  1  0.03304635  0.63881722  0.15058832  1
  H+  H237  1  0.03657948  0.90588411  0.82011783  1
  H+  H238  1  0.51706763  0.88190499  0.33116418  1
  H+  H239  1  0.80385518  0.56280050  0.36142082  1
  H+  H240  1  0.26071026  0.37508208  0.50811874  1
  H+  H241  1  0.78474231  0.73843672  0.11879401  1
  H+  H242  1  0.44424526  0.88815904  1.02171502  1
  H+  H243  1  0.37643137  0.65058134  0.13547373  1
  H+  H244  1  0.09578928  0.36181418  0.68200525  1
  H+  H245  1  0.61423561  0.88049939  0.32798112  1
  H+  H246  1  0.81688672  0.22153314  0.37471594  1
  H+  H247  1  0.85006839  0.70943122  0.83399303  1
  H+  H248  1  0.27727180  0.88513642  0.48985313  1
  H+  H249  1  0.08923027  0.41813720  0.08645589  1
  H+  H250  1  0.92459894  0.08148380  0.57551508  1
  H+  H251  1  0.61365350  0.60641382  -0.01173584  1
  H+  H252  1  0.88678517  0.15840568  0.81839457  1
  H+  H253  1  0.35168592  0.47539495  0.67033378  1
  H+  H254  1  0.78175146  0.64342829  0.48095214  1
  H+  H255  1  0.35530249  0.22326316  0.15422601  1
  H+  H256  1  0.73101638  0.88993496  -0.00283611  1
  H+  H257  1  0.87416148  0.88456731  0.67241476  1
  H+  H258  1  0.39554762  0.41353196  0.26621875  1
  H+  H259  1  0.14450927  0.53902142  0.34058050  1
  H+  H260  1  0.47686013  0.62004927  0.15883484  1
  H+  H261  1  0.77334732  0.14667669  0.15332323  1
  H+  H262  1  0.34522686  0.67769478  0.39963436  1
  H+  H263  1  0.70778692  0.10533960  0.99003214  1
  H+  H264  1  0.36453478  0.13983400  0.16612628  1
  H+  H265  1  0.77705090  0.35345358  0.84108637  1
  H+  H266  1  0.51337581  0.11716433  0.34349116  1
  H+  H267  1  0.25160167  0.53019734  0.63873224  1
  H+  H268  1  0.86245746  0.39283679  0.15417264  1
  H+  H269  1  0.87868484  0.14441678  0.67457568  1
  H+  H270  1  0.45486214  0.63991279  0.99082538  1
  H+  H271  1  0.37548490  0.39302927  1.01488300  1
  H+  H272  1  0.89127237  0.49855334  0.34351516  1
  H+  H273  1  0.08522761  0.91296167  0.06941116  1
  H+  H274  1  0.85258736  0.88618991  0.82844603  1
  H+  H275  1  0.60481698  0.80718406  0.68187815  1
  H+  H276  1  0.72274240  0.86184007  0.17077825  1
  H+  H277  1  0.41972102  0.33105840  0.09655749  1
  H+  H278  1  0.39794710  0.72455886  -0.04280018  1
  H+  H279  1  0.90230742  0.52785686  0.83907759  1
  H+  H280  1  0.65206210  0.90726000  0.99288094  1
  H+  H281  1  0.53287962  0.16587999  0.00953747  1
  H+  H282  1  0.16873856  0.33930747  0.26281619  1
  H+  H283  1  0.10485617  0.61051659  -0.01500569  1
  H+  H284  1  0.39525303  0.77895277  0.32782219  1
  H+  H285  1  0.78393672  0.40257090  0.68801889  1
  H+  H286  1  0.76596833  0.64369375  0.68438553  1
  H+  H287  1  0.87066555  -0.01748220  0.81778903  1
  H+  H288  1  0.66838452  0.09153632  0.23434263  1
  H+  H289  1  0.63892157  0.57720727  0.58181649  1
  H+  H290  1  0.86017848  0.12842635  0.51021272  1
  H+  H291  1  0.01219032  0.51716249  0.25193998  1
  H+  H292  1  0.49931884  0.44114134  0.34079308  1
  H+  H293  1  0.43090753  0.09898325  0.23134850  1
  H+  H294  1  0.40828447  0.82060351  0.60913269  1
  H+  H295  1  0.83095072  0.66246010  0.73674913  1
  H+  H296  1  0.44361594  0.58062091  0.89956412  1
  H+  H297  1  0.66606959  0.59075924  0.25650596  1
  H+  H298  1  0.81447637  0.12756889  0.06154427  1
  H+  H299  1  0.27188383  0.98480718  0.78985848  1
  H+  H300  1  0.71432057  0.62189133  0.16153289  1
  H+  H301  1  0.29157324  0.66832004  0.74815512  1
  H+  H302  1  0.39639742  0.48925105  0.00617353  1
  H+  H303  1  0.88974094  0.08369602  0.23330541  1
  H+  H304  1  0.06702868  0.18193480  0.43304309  1
  H+  H305  1  0.33592318  0.42685628  0.75682426  1
  H+  H306  1  0.92198401  0.83413252  0.56591818  1
  H+  H307  1  0.33248235  0.62883753  -0.02360983  1
  H+  H308  1  0.33154247  0.14880226  0.45377669  1
  H+  H309  1  0.80989239  0.67710843  0.08391884  1
  H+  H310  1  0.35053362  0.37449964  0.50739771  1
  H+  H311  1  0.38587884  0.53246459  0.16295333  1
  H+  H312  1  0.63595945  0.22909395  0.82056188  1
  H+  H313  1  0.04520346  0.52731513  0.22775159  1
  H+  H314  1  0.57737796  0.67360907  0.42200697  1
  H+  H315  1  0.64334628  0.04123366  0.61653055  1
  H+  H316  1  0.36787193  0.69117902  0.07301316  1
  H+  H317  1  0.82482670  0.89918492  0.10405119  1
  H+  H318  1  0.88771972  0.28163211  0.15677481  1
  H+  H319  1  0.15905583  0.82607422  0.26295650  1
  H+  H320  1  0.89932809  0.02414362  0.66635069  1
  H+  H321  1  0.94723993  0.10126413  0.87701234  1
  H+  H322  1  0.13554936  0.85817291  0.17104156  1
  H+  H323  1  0.39863588  0.13140426  -0.00038470  1
  H+  H324  1  0.19724643  0.79696167  0.61484704  1
  H+  H325  1  0.43392557  0.62530145  0.65390401  1
  H+  H326  1  0.61511568  -0.02278003  0.33496953  1
  H+  H327  1  0.15683012  0.08319950  0.23487634  1
  H+  H328  1  0.58764738  0.16982207  0.76056943  1
  H+  H329  1  0.54162349  0.41161252  0.78833874  1
  H+  H330  1  0.84581207  0.39564591  0.43614525  1
  H+  H331  1  0.57036673  0.66062355  0.08371852  1
  H+  H332  1  0.62345363  0.51858327  0.98692366  1
  H+  H333  1  0.67788532  0.85588492  0.89827284  1
  H+  H334  1  0.11572746  0.18513962  0.09013795  1
  H+  H335  1  0.43659559  0.11338271  0.93937561  1
  H+  H336  1  0.33654197  0.93170672  0.73857337  1
  H+  H337  1  0.83416501  0.92047346  0.43590567  1
  H+  H338  1  0.36824797  0.22652311  0.36754206  1
  H+  H339  1  0.66210329  0.83968211  0.25822526  1
  H+  H340  1  0.69727631  0.33618680  0.93152081  1
  H+  H341  1  0.14534318  0.09639496  0.86861727  1
  H+  H342  1  0.91565050  0.33673600  0.60251356  1
  H+  H343  1  0.94208221  0.63919696  0.24914697  1
  H+  H344  1  0.11606656  0.47353111  0.49547473  1
  H+  H345  1  0.07756186  0.67632480  0.78111282  1
  H+  H346  1  0.57481564  0.14069112  0.43985396  1
  H+  H347  1  0.73156842  0.37104603  0.16259482  1
  H+  H348  1  0.76898769  0.78815297  0.02135118  1
  H+  H349  1  0.32147354  0.15048752  0.07123638  1
  H+  H350  1  0.55933979  0.87632107  0.74700154  1
  H+  H351  1  0.15529128  0.84850650  0.55268600  1
  H+  H352  1  0.88676542  0.53069654  0.16826420  1
  H+  H353  1  0.34113672  0.91497577  0.07268811  1
  H+  H354  1  0.84804170  0.66805799  0.42937734  1
  H+  H355  1  0.18234766  0.56214534  0.56789078  1
  H+  H356  1  0.42137695  0.60445084  0.24759347  1
  H+  H357  1  0.16476246  0.83086701  0.93998475  1
  H+  H358  1  0.62541525  0.27179300  0.58813154  1
  H+  H359  1  0.42232946  0.32719510  0.60135752  1
  H+  H360  1  0.40755881  0.57750182  0.59004056  1
  H+  H361  1  0.04425594  0.38668430  0.76814304  1
  H+  H362  1  0.66000960  0.62542639  0.58174142  1
  H+  H363  1  0.91864461  0.84219988  0.23789691  1
  H+  H364  1  0.42204448  0.82191892  0.22347874  1
  H+  H365  1  0.06488543  0.65951226  0.05724498  1
  H+  H366  1  0.45087443  0.31378379  0.21774063  1
  H+  H367  1  0.29213393  0.35205783  0.41743995  1
  H+  H368  1  0.55751133  0.41070085  0.42197013  1
  H+  H369  1  0.98165294  0.95204638  0.95292924  1
  H+  H370  1  0.81279711  0.15318725  0.42136916  1
  H+  H371  1  0.57692081  0.93007386  0.07485055  1
  H+  H372  1  0.86335217  0.43470516  0.76608413  1
  H+  H373  1  0.58215367  0.90665186  0.43979062  1
  H+  H374  1  0.09175863  0.91920760  0.73879081  1
  H+  H375  1  0.34499875  0.18539629  0.77206850  1
  H+  H376  1  0.62224743  0.39048375  -0.00867090  1
  H+  H377  1  0.66731967  0.27145377  0.59184548  1
  H+  H378  1  0.33641303  0.43093650  0.09490968  1
  H+  H379  1  0.18591093  0.05807444  0.94435240  1
  H+  H380  1  0.66159004  0.34470943  0.31955121  1
  H+  H381  1  0.08909553  0.42122363  0.40152399  1
  H+  H382  1  0.36626465  0.13545783  0.67327561  1
  H+  H383  1  0.41988509  0.07630311  0.57363403  1
  O2-  O384  1  0.11424859  0.19285747  0.13480006  1
  O2-  O385  1  0.07671388  0.18037096  0.47705420  1
  O2-  O386  1  0.09150884  0.16880337  0.77143610  1
  O2-  O387  1  0.09512969  0.42189452  0.13297255  1
  O2-  O388  1  0.08470096  0.41301714  0.47764114  1
  O2-  O389  1  0.04220226  0.38440253  0.81394661  1
  O2-  O390  1  0.09028499  0.67248542  0.13159241  1
  O2-  O391  1  0.07863943  0.68176932  0.46659868  1
  O2-  O392  1  0.07097633  0.68068788  0.82564412  1
  O2-  O393  1  0.08454781  0.91159170  0.14962847  1
  O2-  O394  1  0.08208737  0.92628033  0.47350173  1
  O2-  O395  1  0.09648062  0.93122370  0.80795668  1
  O2-  O396  1  0.32410231  0.15960805  0.15276524  1
  O2-  O397  1  0.34386291  0.16210818  0.49675483  1
  O2-  O398  1  0.34102999  0.18612613  0.81679563  1
  O2-  O399  1  0.33896316  0.42980567  0.14067064  1
  O2-  O400  1  0.31949534  0.40083609  0.48808237  1
  O2-  O401  1  0.33591579  0.42227771  0.80461365  1
  O2-  O402  1  0.35420770  0.68649650  0.11705007  1
  O2-  O403  1  0.33806630  0.66634546  0.47349103  1
  O2-  O404  1  0.31741103  0.64392226  0.81875167  1
  O2-  O405  1  0.33788466  0.92134649  0.17135549  1
  O2-  O406  1  0.33926166  0.90881608  0.48324252  1
  O2-  O407  1  0.30816756  0.96218456  0.80413816  1
  O2-  O408  1  0.59246337  0.18760819  0.14405441  1
  O2-  O409  1  0.58175984  0.15312500  0.48451903  1
  O2-  O410  1  0.58098568  0.18253594  0.80365456  1
  O2-  O411  1  0.59587286  0.42420879  0.13555129  1
  O2-  O412  1  0.57073309  0.41365555  0.46599962  1
  O2-  O413  1  0.55373944  0.40572051  0.83183991  1
  O2-  O414  1  0.57569352  0.66483549  0.13028437  1
  O2-  O415  1  0.57891848  0.66543014  0.46670375  1
  O2-  O416  1  0.59469473  0.65928165  0.81312309  1
  O2-  O417  1  0.58898587  0.92763784  0.14796330  1
  O2-  O418  1  0.58186942  0.90679653  0.48439000  1
  O2-  O419  1  0.55080231  0.88627805  0.82292893  1
  O2-  O420  1  0.83097135  0.17164446  0.13431197  1
  O2-  O421  1  0.82769470  0.15747741  0.49585253  1
  O2-  O422  1  0.86249197  0.19457965  0.80564356  1
  O2-  O423  1  0.82989886  0.42400989  0.14425165  1
  O2-  O424  1  0.83520955  0.40914693  0.47810382  1
  O2-  O425  1  0.86894135  0.43328049  0.81142689  1
  O2-  O426  1  0.80389289  0.69731778  0.12717858  1
  O2-  O427  1  0.84488338  0.67208354  0.47430545  1
  O2-  O428  1  0.82830099  0.65195623  0.81524276  1
  O2-  O429  1  0.82677810  0.91120174  0.14805422  1
  O2-  O430  1  0.83148073  0.91631714  0.48128736  1
  O2-  O431  1  0.83197061  0.92056708  0.80677547  1
  O2-  O432  1  0.16169394  0.07782389  0.19124006  1
  O2-  O433  1  0.17082088  0.06985695  0.53301328  1
  O2-  O434  1  0.16285136  0.08836991  0.82833298  1
  O2-  O435  1  0.17836420  0.34582834  0.18515931  1
  O2-  O436  1  0.16141076  0.32962477  0.53273328  1
  O2-  O437  1  0.18618567  0.33107687  0.83415540  1
  O2-  O438  1  0.17879836  0.59710778  0.15138169  1
  O2-  O439  1  0.17077990  0.56817629  0.52453285  1
  O2-  O440  1  0.15558144  0.55360205  0.84937160  1
  O2-  O441  1  0.16609218  0.82773796  0.18626424  1
  O2-  O442  1  0.15874131  0.84384816  0.50867077  1
  O2-  O443  1  0.15494145  0.84113047  0.86040499  1
  O2-  O444  1  0.43036459  0.09876131  0.18576834  1
  O2-  O445  1  0.41979103  0.07784717  0.52794203  1
  O2-  O446  1  0.42275181  0.10539479  0.85824246  1
  O2-  O447  1  0.42161650  0.33913875  0.14317131  1
  O2-  O448  1  0.41950471  0.32910000  0.53016540  1
  O2-  O449  1  0.47468816  0.39036381  0.86298213  1
  O2-  O450  1  0.41689908  0.59490166  0.17561950  1
  O2-  O451  1  0.41415965  0.57504522  0.51274753  1
  O2-  O452  1  0.43046160  0.57774593  0.85564457  1
  O2-  O453  1  0.42319991  0.83355957  0.17942324  1
  O2-  O454  1  0.41255418  0.82255710  0.52912171  1
  O2-  O455  1  0.40203313  0.77795647  0.89820582  1
  O2-  O456  1  0.66795218  0.09320977  0.18920656  1
  O2-  O457  1  0.66221065  0.06810030  0.53520755  1
  O2-  O458  1  0.62198587  0.05487834  0.85374918  1
  O2-  O459  1  0.66808564  0.33990386  0.17568159  1
  O2-  O460  1  0.66358715  0.33036084  0.46391074  1
  O2-  O461  1  0.72732279  0.30281107  0.86171147  1
  O2-  O462  1  0.65579025  0.58429730  0.17974674  1
  O2-  O463  1  0.66969017  0.58731726  0.46147205  1
  O2-  O464  1  0.66937761  0.57468673  0.85896336  1
  O2-  O465  1  0.66080775  0.83193805  0.18371094  1
  O2-  O466  1  0.66580160  0.82377731  0.51501584  1
  O2-  O467  1  0.66823682  0.83456812  0.85585619  1
  O2-  O468  1  0.89324587  0.08553149  0.18836116  1
  O2-  O469  1  0.91722398  0.08199637  0.53026356  1
  O2-  O470  1  0.93523976  0.09034872  0.83298760  1
  O2-  O471  1  0.91701142  0.34311678  0.17031253  1
  O2-  O472  1  0.91921806  0.32853990  0.52582232  1
  O2-  O473  1  0.95217328  0.34996088  0.83019546  1
  O2-  O474  1  0.92141865  0.59391933  0.17620555  1
  O2-  O475  1  0.92102193  0.58226342  0.51529439  1
  O2-  O476  1  0.92302941  0.58805987  0.85558673  1
  O2-  O477  1  0.92136178  0.84401528  0.19122965  1
  O2-  O478  1  0.92095550  0.83754049  0.52048978  1
  O2-  O479  1  0.85903984  0.80059497  0.87429642  1
  O2-  O480  1  0.17031806  0.10163656  0.34830194  1
  O2-  O481  1  0.17499189  0.08627601  0.65916865  1
  O2-  O482  1  0.17412354  0.06547347  0.98639694  1
  O2-  O483  1  0.15781630  0.33347142  0.30802023  1
  O2-  O484  1  0.15651437  0.32149106  0.65817682  1
  O2-  O485  1  0.19479190  0.31983931  0.94984672  1
  O2-  O486  1  0.17063597  0.60092446  0.32923196  1
  O2-  O487  1  0.20402335  0.54154305  0.64385587  1
  O2-  O488  1  0.14196514  0.58615502  0.97055460  1
  O2-  O489  1  0.16716422  0.83136079  0.30851273  1
  O2-  O490  1  0.17701289  0.81523362  0.64983846  1
  O2-  O491  1  0.16472966  0.82153048  0.98457620  1
  O2-  O492  1  0.42059603  0.08723368  0.30934853  1
  O2-  O493  1  0.41409684  0.07902143  0.64996979  1
  O2-  O494  1  0.44297796  0.11812569  0.98421822  1
  O2-  O495  1  0.46654551  0.29505891  0.25541488  1
  O2-  O496  1  0.41584754  0.32115600  0.64768933  1
  O2-  O497  1  0.41507813  0.32444543  1.02550622  1
  O2-  O498  1  0.42504154  0.60813485  0.29419220  1
  O2-  O499  1  0.39022020  0.57348659  0.63373089  1
  O2-  O500  1  0.47753751  0.59964264  0.98398657  1
  O2-  O501  1  0.43092957  0.83760107  0.30782555  1
  O2-  O502  1  0.40706412  0.81863980  0.65458900  1
  O2-  O503  1  0.48173218  0.86169490  1.01900758  1
  O2-  O504  1  0.65960053  0.06895727  0.31664994  1
  O2-  O505  1  0.62993899  0.03641217  0.66043300  1
  O2-  O506  1  0.64816043  0.09036814  0.97955645  1
  O2-  O507  1  0.67403355  0.30949275  0.34658303  1
  O2-  O508  1  0.66271269  0.35928451  0.69982069  1
  O2-  O509  1  0.68802308  0.34806509  0.97418713  1
  O2-  O510  1  0.66640514  0.59008495  0.30238784  1
  O2-  O511  1  0.63601588  0.60576875  0.70678473  1
  O2-  O512  1  0.65285220  0.58039809  0.97482009  1
  O2-  O513  1  0.66067637  0.84167552  0.30449025  1
  O2-  O514  1  0.69150620  0.79884849  0.63079956  1
  O2-  O515  1  0.70735743  0.92037854  0.97409356  1
  O2-  O516  1  0.89210350  0.08807741  0.31579020  1
  O2-  O517  1  0.93266336  0.08494720  0.65291754  1
  O2-  O518  1  0.93979276  0.09882218  0.96104518  1
  O2-  O519  1  0.95134414  0.33999307  0.29421765  1
  O2-  O520  1  0.91135046  0.33903846  0.64786793  1
  O2-  O521  1  0.90619612  0.34505366  0.97736339  1
  O2-  O522  1  0.95360484  0.67061491  0.28830976  1
  O2-  O523  1  0.92671680  0.59133761  0.64381372  1
  O2-  O524  1  0.87392454  0.53818427  0.99770952  1
  O2-  O525  1  0.91728246  0.84549395  0.30909959  1
  O2-  O526  1  0.92535778  0.83174561  0.64550715  1
  O2-  O527  1  0.95502484  0.89400385  0.96953222  1
  O2-  O528  1  0.11254591  0.16706417  0.01012909  1
  O2-  O529  1  0.05799442  0.17265733  0.34855221  1
  O2-  O530  1  0.09133847  0.16286653  0.70329858  1
  O2-  O531  1  0.07741656  0.41829294  0.01585132  1
  O2-  O532  1  0.09502742  0.43011321  0.35595188  1
  O2-  O533  1  0.06967064  0.39822558  0.69363624  1
  O2-  O534  1  0.05063617  0.65313779  0.01257958  1
  O2-  O535  1  0.09324928  0.67764499  0.35717343  1
  O2-  O536  1  0.08130195  0.66244479  0.70305595  1
  O2-  O537  1  0.08859265  0.91369450  0.02418555  1
  O2-  O538  1  0.08930574  0.91835461  0.35131931  1
  O2-  O539  1  0.08873795  0.91584933  0.69139786  1
  O2-  O540  1  0.32610378  0.15791127  0.02650564  1
  O2-  O541  1  0.34753556  0.18968907  0.33170623  1
  O2-  O542  1  0.34009481  0.17106874  0.68609905  1
  O2-  O543  1  0.35046832  0.43146499  0.01867234  1
  O2-  O544  1  0.28027311  0.32292174  0.37668500  1
  O2-  O545  1  0.32612054  0.41893153  0.69114928  1
  O2-  O546  1  0.38468966  0.67929200  -0.00940888  1
  O2-  O547  1  0.34324134  0.68379356  0.35381738  1
  O2-  O548  1  0.26974242  0.67946823  0.70941302  1
  O2-  O549  1  0.34908532  0.89783403  0.03214772  1
  O2-  O550  1  0.33941217  0.91805269  0.29793362  1
  O2-  O551  1  0.34061378  0.91906301  0.69466793  1
  O2-  O552  1  0.59513826  0.19376807  0.02698565  1
  O2-  O553  1  0.57234017  0.13868057  0.36114393  1
  O2-  O554  1  0.57839231  0.13944835  0.68538378  1
  O2-  O555  1  0.58699897  0.41400995  0.00892602  1
  O2-  O556  1  0.54865915  0.43222179  0.33998454  1
  O2-  O557  1  0.55405987  0.43099906  0.70878379  1
  O2-  O558  1  0.56581730  0.64740355  0.01006311  1
  O2-  O559  1  0.58573042  0.67840649  0.34168725  1
  O2-  O560  1  0.61784185  0.75976651  0.67157552  1
  O2-  O561  1  0.56973036  0.93122654  0.02905878  1
  O2-  O562  1  0.58194888  0.91177826  0.34717238  1
  O2-  O563  1  0.56589686  0.87119603  0.70182651  1
  O2-  O564  1  0.80521863  0.10698106  0.01808619  1
  O2-  O565  1  0.80741177  0.16193676  0.37640079  1
  O2-  O566  1  0.84487886  0.17062777  0.68925257  1
  O2-  O567  1  0.84339920  0.45152004  0.02216600  1
  O2-  O568  1  0.83049693  0.32682220  0.37274697  1
  O2-  O569  1  0.84705658  0.43191188  0.69027415  1
  O2-  O570  1  0.81074665  0.65041282  0.01871606  1
  O2-  O571  1  0.81718612  0.62152972  0.35301471  1
  O2-  O572  1  0.82747866  0.66489662  0.69141073  1
  O2-  O573  1  0.80493426  0.85002272  0.02715901  1
  O2-  O574  1  0.83070748  0.92574063  0.35668225  1
  O2-  O575  1  0.83797566  0.91029103  0.68414887  1
