# generated using pymatgen
data_H2O
_symmetry_space_group_name_H-M   'P 1'
_cell_length_a   17.99677365
_cell_length_b   17.99516438
_cell_length_c   22.00979606
_cell_angle_alpha   90.00420233
_cell_angle_beta   89.99286163
_cell_angle_gamma   120.00318019
_symmetry_Int_Tables_number   1
_chemical_formula_structural   H2O
_chemical_formula_sum   'H384 O192'
_cell_volume   6172.81414497
_cell_formula_units_Z   192
loop_
 _symmetry_equiv_pos_site_id
 _symmetry_equiv_pos_as_xyz
  1  'x, y, z'
loop_
 _atom_type_symbol
 _atom_type_oxidation_number
  H+  1.0
  O2-  -2.0
loop_
 _atom_site_type_symbol
 _atom_site_label
 _atom_site_symmetry_multiplicity
 _atom_site_fract_x
 _atom_site_fract_y
 _atom_site_fract_z
 _atom_site_occupancy
  H+  H0  1  0.62732131  0.34498031  0.99605916  1
  H+  H1  1  0.52394817  0.63801437  1.02934809  1
  H+  H2  1  0.27803022  0.63836481  0.50084919  1
  H+  H3  1  0.65341694  0.57098530  0.22435894  1
  H+  H4  1  0.35443909  0.11681979  0.49165392  1
  H+  H5  1  0.10481491  0.88800555  0.67389578  1
  H+  H6  1  0.64883304  0.82460217  0.60105614  1
  H+  H7  1  0.63308529  0.52028716  0.85563615  1
  H+  H8  1  0.14567185  0.66165742  0.68884580  1
  H+  H9  1  0.13073652  1.02329388  0.66077140  1
  H+  H10  1  0.10491114  0.36534660  0.16251887  1
  H+  H11  1  0.27620543  0.63603814  0.00273576  1
  H+  H12  1  1.02772914  0.14309665  1.00651625  1
  H+  H13  1  0.21324899  0.37558888  0.31363016  1
  H+  H14  1  0.72311748  0.36434115  0.17163284  1
  H+  H15  1  0.86508356  0.47495790  0.32978070  1
  H+  H16  1  0.85314550  0.72329691  0.68277517  1
  H+  H17  1  0.91361513  0.84844054  0.97760052  1
  H+  H18  1  0.86241380  0.76899724  0.17928009  1
  H+  H19  1  0.85924771  0.63062313  0.82441352  1
  H+  H20  1  0.83562441  0.89666396  0.01886890  1
  H+  H21  1  0.66781304  0.32916981  0.89103048  1
  H+  H22  1  0.86979777  0.72363948  0.48854848  1
  H+  H23  1  0.11730097  -0.02278863  0.48635646  1
  H+  H24  1  0.93753118  0.98818287  0.13333850  1
  H+  H25  1  0.52682149  0.88715476  0.67973233  1
  H+  H26  1  0.72222160  0.60658182  0.85418851  1
  H+  H27  1  0.10680769  0.46810319  0.34478884  1
  H+  H28  1  0.63482644  0.36130838  0.83582673  1
  H+  H29  1  0.13779073  0.27417605  0.99515476  1
  H+  H30  1  0.77668727  0.38956978  0.82018287  1
  H+  H31  1  0.37922170  0.48515788  0.48756409  1
  H+  H32  1  0.26387889  0.88164998  0.31993092  1
  H+  H33  1  0.34961541  0.12924141  0.82536523  1
  H+  H34  1  0.22384527  0.09464537  0.18522733  1
  H+  H35  1  0.12151196  0.97401171  0.82965319  1
  H+  H36  1  0.29437929  0.90267775  0.00268305  1
  H+  H37  1  -0.02480792  0.85707193  0.32429539  1
  H+  H38  1  0.97743879  0.86129106  0.67730378  1
  H+  H39  1  0.38496817  1.01164538  0.52393193  1
  H+  H40  1  0.85383118  0.88381427  0.33569626  1
  H+  H41  1  0.35688440  0.21485789  0.00835719  1
  H+  H42  1  0.13561175  0.74684034  0.69052096  1
  H+  H43  1  0.08705722  0.92260928  0.73585840  1
  H+  H44  1  0.13199013  0.10991065  0.50471759  1
  H+  H45  1  0.66524523  0.81058890  0.24761624  1
  H+  H46  1  0.53145747  0.38953195  0.34340727  1
  H+  H47  1  0.37900016  0.35580547  0.86551371  1
  H+  H48  1  0.63083955  0.86496567  0.84580050  1
  H+  H49  1  0.10721674  0.38738337  0.00732520  1
  H+  H50  1  0.14387497  0.52647088  0.50843225  1
  H+  H51  1  0.86614444  0.51511532  0.98643438  1
  H+  H52  1  0.02011861  0.40035739  0.68610711  1
  H+  H53  1  0.13792138  0.61234543  0.50879479  1
  H+  H54  1  0.73737650  0.09294089  0.18069429  1
  H+  H55  1  0.72469637  0.87477221  0.50018550  1
  H+  H56  1  0.34494229  0.98457331  0.67818512  1
  H+  H57  1  0.63124699  0.12580882  0.17048441  1
  H+  H58  1  0.83805488  0.42173796  0.76254819  1
  H+  H59  1  0.62639282  0.77215535  0.00975056  1
  H+  H60  1  0.63412276  0.10048617  0.00337826  1
  H+  H61  1  0.60545812  0.85835474  0.31132690  1
  H+  H62  1  0.63400574  0.85345014  0.16147145  1
  H+  H63  1  0.38375749  0.77126860  0.99294808  1
  H+  H64  1  0.39455952  0.76979785  0.51355070  1
  H+  H65  1  0.91961709  0.09089608  0.60061604  1
  H+  H66  1  0.72155942  0.84729894  0.15699155  1
  H+  H67  1  0.13989715  0.88407175  0.15576927  1
  H+  H68  1  0.36143784  0.71416769  0.34626212  1
  H+  H69  1  0.86853519  0.15187635  0.00642156  1
  H+  H70  1  0.26612305  0.11631275  0.48807493  1
  H+  H71  1  0.32816296  0.37152359  0.63162484  1
  H+  H72  1  0.17396306  0.58411328  0.26354613  1
  H+  H73  1  0.65130721  0.31487697  0.60658481  1
  H+  H74  1  0.86086048  0.23979089  0.48923362  1
  H+  H75  1  0.60450309  0.36329633  0.15955713  1
  H+  H76  1  0.88391806  0.03807319  1.00027893  1
  H+  H77  1  0.58071857  0.42149295  0.77504077  1
  H+  H78  1  0.35925934  0.46749570  0.86410450  1
  H+  H79  1  0.35548086  0.22096177  0.83101211  1
  H+  H80  1  0.11591270  0.74366522  0.15630758  1
  H+  H81  1  0.89598911  0.85829389  0.83679298  1
  H+  H82  1  0.86828147  0.91870398  0.47114129  1
  H+  H83  1  0.17359982  0.33619133  0.78029586  1
  H+  H84  1  0.63315439  0.25910754  0.00173240  1
  H+  H85  1  0.72718090  0.36111685  0.32267011  1
  H+  H86  1  0.72521765  0.60738181  0.31768879  1
  H+  H87  1  0.52860603  0.11872633  1.03050517  1
  H+  H88  1  0.87336311  0.98178216  0.68344806  1
  H+  H89  1  0.10981954  0.63972714  0.33981452  1
  H+  H90  1  0.74868434  0.43771018  0.46151974  1
  H+  H91  1  0.76086110  0.63549054  0.15799866  1
  H+  H92  1  0.87020043  0.15561450  0.49816178  1
  H+  H93  1  0.67182793  0.60420115  0.57299726  1
  H+  H94  1  0.36267713  0.39528161  1.00648101  1
  H+  H95  1  0.21681111  0.10307570  1.00001274  1
  H+  H96  1  0.48094167  0.86371136  0.51325218  1
  H+  H97  1  0.50612374  0.87935778  0.99516719  1
  H+  H98  1  0.10368501  0.90772988  0.09775713  1
  H+  H99  1  0.71769867  0.11442039  0.84656589  1
  H+  H100  1  0.62648676  0.85778974  0.66211725  1
  H+  H101  1  0.38845942  0.11841420  0.99276877  1
  H+  H102  1  0.59595840  0.67135593  0.42850539  1
  H+  H103  1  0.22058131  0.84907510  0.52202687  1
  H+  H104  1  0.02192791  0.13680257  0.67626380  1
  H+  H105  1  0.10628977  0.38169499  0.82792826  1
  H+  H106  1  0.87457801  0.52374860  0.49311139  1
  H+  H107  1  0.13230810  0.26475702  0.82952699  1
  H+  H108  1  0.13825291  0.53339854  0.66714339  1
  H+  H109  1  0.73645723  0.62797942  0.50900076  1
  H+  H110  1  0.62233202  0.59307146  0.16182724  1
  H+  H111  1  1.14122245  1.00493392  0.16825024  1
  H+  H112  1  0.86972442  1.00602064  0.16439969  1
  H+  H113  1  0.88352658  0.10837029  0.66281236  1
  H+  H114  1  0.38388125  0.12249178  0.66401123  1
  H+  H115  1  0.21338649  0.87425232  0.66398654  1
  H+  H116  1  0.38836913  0.98600314  0.00631753  1
  H+  H117  1  0.16062209  0.37490206  0.51480146  1
  H+  H118  1  0.94684743  0.91320751  0.54661273  1
  H+  H119  1  0.16798012  0.81990599  0.25635171  1
  H+  H120  1  0.52220936  0.40556470  0.50966082  1
  H+  H121  1  -0.03046871  0.60743858  0.50406253  1
  H+  H122  1  0.95395895  0.60754806  0.98460831  1
  H+  H123  1  1.02347582  0.63205920  0.83119276  1
  H+  H124  1  0.10548335  0.71915003  0.49802898  1
  H+  H125  1  0.70976170  0.33177609  0.51323085  1
  H+  H126  1  0.64105776  1.00312752  0.32147396  1
  H+  H127  1  0.39659232  0.53160885  -0.00195112  1
  H+  H128  1  1.01712139  0.38661462  1.00841304  1
  H+  H129  1  0.60549039  0.21909512  0.67953616  1
  H+  H130  1  0.51676227  0.88736266  0.83137385  1
  H+  H131  1  0.59668095  0.72663276  0.67324701  1
  H+  H132  1  0.62849852  0.39728856  0.67810134  1
  H+  H133  1  0.61956746  0.38841614  0.33531654  1
  H+  H134  1  0.27431253  0.39514632  0.00479114  1
  H+  H135  1  0.34172755  0.38088748  0.16460425  1
  H+  H136  1  0.63462927  0.02047012  0.66876203  1
  H+  H137  1  0.21529052  0.36136483  0.67720433  1
  H+  H138  1  0.62632142  0.11232757  0.84430386  1
  H+  H139  1  0.26490693  0.62256056  0.15456943  1
  H+  H140  1  -0.01267842  0.13356179  0.50356559  1
  H+  H141  1  0.03559194  0.88439103  0.48123893  1
  H+  H142  1  0.37222404  0.28067223  0.65153596  1
  H+  H143  1  0.39687720  0.62012488  0.99747296  1
  H+  H144  1  0.12617683  0.48963857  0.17504784  1
  H+  H145  1  0.87988018  0.86987808  0.18541920  1
  H+  H146  1  0.38773237  0.77512973  0.15968548  1
  H+  H147  1  0.51978792  0.14176281  0.34598730  1
  H+  H148  1  0.44793025  0.83077718  0.29937680  1
  H+  H149  1  0.28324145  0.89401451  0.16141931  1
  H+  H150  1  0.13081966  0.10854682  0.99749485  1
  H+  H151  1  0.82959409  0.58943649  0.64939519  1
  H+  H152  1  0.88825602  0.11474606  0.32810303  1
  H+  H153  1  0.88346574  0.27916334  -0.00341241  1
  H+  H154  1  0.38557448  0.52614855  0.16811116  1
  H+  H155  1  0.86563573  0.38488972  0.33615885  1
  H+  H156  1  0.84121307  0.26849511  0.60829469  1
  H+  H157  1  0.91745145  0.08892716  0.93783938  1
  H+  H158  1  0.10911175  0.22467058  0.69257510  1
  H+  H159  1  0.84987417  0.48618647  0.15747061  1
  H+  H160  1  0.41368517  0.16583474  0.15694743  1
  H+  H161  1  0.76406143  0.37832148  1.00381677  1
  H+  H162  1  0.11352777  0.37982823  0.33380574  1
  H+  H163  1  0.36083635  0.25964001  0.18210428  1
  H+  H164  1  0.91249288  0.37274928  0.54188086  1
  H+  H165  1  0.63755369  0.51790128  0.32201117  1
  H+  H166  1  0.66612042  0.08271487  0.60977270  1
  H+  H167  1  0.64495722  0.26587260  0.17563963  1
  H+  H168  1  0.25896072  0.30783081  0.36844914  1
  H+  H169  1  0.22035497  0.10942355  0.84352324  1
  H+  H170  1  0.12737446  0.23515994  0.50280257  1
  H+  H171  1  0.16922087  0.58866054  0.60556162  1
  H+  H172  1  0.03770632  0.06071637  0.29003050  1
  H+  H173  1  -0.01218134  0.63067612  0.65677614  1
  H+  H174  1  0.10468677  0.12561251  0.83375843  1
  H+  H175  1  0.37322624  0.22045108  0.34142323  1
  H+  H176  1  0.97467671  0.61412724  0.32447875  1
  H+  H177  1  0.46967988  0.11442656  0.66784573  1
  H+  H178  1  -0.02670605  0.35662975  0.33453461  1
  H+  H179  1  0.36732312  0.85138033  0.83929941  1
  H+  H180  1  0.23066460  0.67441831  0.29221293  1
  H+  H181  1  0.86210533  0.40022220  0.66502496  1
  H+  H182  1  0.64544085  0.63764226  0.50441995  1
  H+  H183  1  0.29613769  0.39314280  0.49273997  1
  H+  H184  1  0.03879610  0.86865442  0.00127238  1
  H+  H185  1  0.03631350  0.39464586  0.48969954  1
  H+  H186  1  0.46300470  0.60201970  0.66029062  1
  H+  H187  1  0.13250285  0.11267705  0.65988665  1
  H+  H188  1  0.35860448  0.71989919  0.82917061  1
  H+  H189  1  0.91464465  0.31978199  0.27416892  1
  H+  H190  1  0.62852519  0.37699244  0.49001917  1
  H+  H191  1  0.53357473  0.87883654  0.15847472  1
  H+  H192  1  0.39789675  0.03527614  0.17012175  1
  H+  H193  1  0.63453745  0.86929336  0.50287581  1
  H+  H194  1  0.51502981  0.11973136  0.50035526  1
  H+  H195  1  0.97512385  0.60337477  0.68485847  1
  H+  H196  1  0.93626526  0.29052522  0.61038226  1
  H+  H197  1  0.48142980  0.36135917  1.01100255  1
  H+  H198  1  0.13905701  0.26160160  0.34127896  1
  H+  H199  1  0.51658314  0.38238054  0.83252263  1
  H+  H200  1  0.85464304  0.83447191  0.54150405  1
  H+  H201  1  0.88419732  0.36143299  0.83798971  1
  H+  H202  1  0.89154547  0.75247346  -0.01217566  1
  H+  H203  1  0.97056309  0.10840432  0.84522097  1
  H+  H204  1  0.62090953  0.24231932  0.51327290  1
  H+  H205  1  0.89110028  0.52593615  0.83376312  1
  H+  H206  1  0.61890887  0.63256454  0.33660083  1
  H+  H207  1  0.08741674  0.97162786  0.32732695  1
  H+  H208  1  0.60174675  0.63975756  0.67820814  1
  H+  H209  1  -0.02962733  0.63116424  0.16771441  1
  H+  H210  1  0.88008758  0.27000105  0.84405819  1
  H+  H211  1  0.59200275  0.21517888  0.82564781  1
  H+  H212  1  0.36832937  0.84175223  0.31576139  1
  H+  H213  1  0.10846634  0.72683010  0.33850885  1
  H+  H214  1  0.42330114  0.34645224  0.59751086  1
  H+  H215  1  0.81114036  0.42291531  0.41722464  1
  H+  H216  1  0.21215473  0.35546227  0.17614713  1
  H+  H217  1  0.63379840  0.11220731  0.51245972  1
  H+  H218  1  0.32896143  0.46090023  0.63419069  1
  H+  H219  1  0.85760800  0.38845936  0.00642426  1
  H+  H220  1  -0.03036686  0.33609426  0.18403930  1
  H+  H221  1  0.13302772  0.85822794  0.31193991  1
  H+  H222  1  0.70828177  0.86611796  0.00636170  1
  H+  H223  1  0.32989237  -0.03954850  0.83301523  1
  H+  H224  1  0.87855706  0.38027839  0.47876629  1
  H+  H225  1  0.39539743  0.61933407  0.50490465  1
  H+  H226  1  0.47204675  0.61354840  0.15433840  1
  H+  H227  1  0.11337326  0.96696752  0.00502493  1
  H+  H228  1  0.72708386  0.11945771  0.51374875  1
  H+  H229  1  0.60727581  0.23016979  0.35022729  1
  H+  H230  1  0.86562832  0.63462966  0.33516304  1
  H+  H231  1  0.61191448  0.46860174  0.01159618  1
  H+  H232  1  0.87712325  1.02256672  0.31787701  1
  H+  H233  1  0.86894979  0.89156785  0.68779490  1
  H+  H234  1  0.85231426  0.20956440  0.68854095  1
  H+  H235  1  0.85140420  0.62704064  0.00625435  1
  H+  H236  1  0.28243207  0.62100740  0.34983593  1
  H+  H237  1  0.51225366  0.64222096  0.82885859  1
  H+  H238  1  0.22077055  0.78275975  0.19680112  1
  H+  H239  1  0.36413345  0.87070163  0.52123562  1
  H+  H240  1  0.71500609  0.34949924  0.66340730  1
  H+  H241  1  0.60589431  0.73915185  0.82705013  1
  H+  H242  1  0.32475686  0.17099576  0.73049980  1
  H+  H243  1  0.89423495  0.04943659  0.49766151  1
  H+  H244  1  0.60555692  -0.02333450  0.83587023  1
  H+  H245  1  0.63358443  0.60695378  0.00864880  1
  H+  H246  1  0.88289533  0.01857940  0.84831328  1
  H+  H247  1  0.30586310  0.91806744  0.73373010  1
  H+  H248  1  0.27090371  0.38021257  0.85449183  1
  H+  H249  1  0.16671939  0.87779173  0.98655932  1
  H+  H250  1  0.42809115  0.39078592  0.50259909  1
  H+  H251  1  0.18043532  0.88300852  0.82660020  1
  H+  H252  1  0.39811867  0.86811651  0.16268078  1
  H+  H253  1  0.39029736  1.02771189  0.30964006  1
  H+  H254  1  0.61111359  0.72275384  0.12817664  1
  H+  H255  1  0.38797152  0.11571796  0.32037296  1
  H+  H256  1  0.11641355  0.12908471  0.15324041  1
  H+  H257  1  0.45379634  0.09451581  0.83504141  1
  H+  H258  1  0.27663226  0.63855729  0.67823107  1
  H+  H259  1  0.13049018  0.36485829  0.69617087  1
  H+  H260  1  0.10878932  0.21350299  0.15945702  1
  H+  H261  1  0.91476469  0.33949360  0.93777855  1
  H+  H262  1  0.12703260  0.52286932  1.01090342  1
  H+  H263  1  0.38741063  0.86426620  0.99529086  1
  H+  H264  1  0.09019916  0.65215628  0.12690294  1
  H+  H265  1  0.76315290  0.12224681  0.68307946  1
  H+  H266  1  0.61837700  -0.01000526  0.50401464  1
  H+  H267  1  0.39911566  0.77202720  0.67170915  1
  H+  H268  1  0.77638048  0.14212913  1.00667228  1
  H+  H269  1  0.11281231  0.56965370  0.18163974  1
  H+  H270  1  0.63687751  0.53515569  0.65535152  1
  H+  H271  1  0.38796495  0.61435332  0.84656661  1
  H+  H272  1  0.83004029  0.46914041  0.66233420  1
  H+  H273  1  0.86112247  0.22331398  0.34257992  1
  H+  H274  1  0.26750338  0.13776346  0.67055812  1
  H+  H275  1  0.38602837  0.34902071  0.33918969  1
  H+  H276  1  0.87988279  0.62534201  0.17478316  1
  H+  H277  1  0.36063233  0.63022597  0.67467859  1
  H+  H278  1  0.85459463  0.13052180  0.84000320  1
  H+  H279  1  0.40144792  0.32551060  1.05356977  1
  H+  H280  1  0.08758731  0.64124798  -0.00171715  1
  H+  H281  1  0.13294468  0.52216692  0.84263667  1
  H+  H282  1  0.64075612  0.75893695  0.31241568  1
  H+  H283  1  0.62168826  0.73644557  0.48644485  1
  H+  H284  1  0.53318395  0.63956289  0.33565712  1
  H+  H285  1  0.71967487  0.62606907  0.66133191  1
  H+  H286  1  0.29210093  0.26440666  0.22516638  1
  H+  H287  1  0.21893062  0.36347322  0.56614760  1
  H+  H288  1  0.57341554  0.15750225  0.43864257  1
  H+  H289  1  0.72623890  0.09513192  0.32749636  1
  H+  H290  1  0.10263116  0.67813745  0.77523774  1
  H+  H291  1  0.65846746  0.07755098  0.93747206  1
  H+  H292  1  0.60011865  0.87775343  0.00231434  1
  H+  H293  1  0.82063178  0.42576595  0.09884757  1
  H+  H294  1  0.60674521  -0.02274364  0.99693381  1
  H+  H295  1  0.33237866  0.14935726  0.39307605  1
  H+  H296  1  0.88965435  0.09438050  0.23624411  1
  H+  H297  1  0.86266229  0.63179275  0.49180376  1
  H+  H298  1  0.35766932  0.63125388  0.15385305  1
  H+  H299  1  0.32919848  0.89498706  0.46446391  1
  H+  H300  1  0.07580804  0.42664452  0.74674793  1
  H+  H301  1  0.62533201  0.96522508  0.16644914  1
  H+  H302  1  0.77764916  0.88277109  0.83491856  1
  H+  H303  1  0.58180590  0.40262247  0.06863540  1
  H+  H304  1  0.92808516  0.81782303  0.88814365  1
  H+  H305  1  0.91019178  0.58134896  0.89456420  1
  H+  H306  1  0.81452114  0.65583517  0.73770348  1
  H+  H307  1  0.16424331  0.60203163  1.05361006  1
  H+  H308  1  0.05783852  0.68642205  0.04593468  1
  H+  H309  1  0.43476690  0.59962374  0.26174942  1
  H+  H310  1  0.86123846  0.56075091  0.58977219  1
  H+  H311  1  0.14020060  0.86023775  0.50532810  1
  H+  H312  1  0.85988741  0.71943544  0.82301721  1
  H+  H313  1  0.66180700  0.57917805  0.94614388  1
  H+  H314  1  0.32661679  0.41852550  0.10209856  1
  H+  H315  1  0.68948163  0.47959920  0.71374271  1
  H+  H316  1  0.35948976  0.43772038  0.75143453  1
  H+  H317  1  0.07448981  0.40092296  0.10450518  1
  H+  H318  1  0.57184893  0.67581585  0.76091029  1
  H+  H319  1  0.66362165  0.32741826  0.26596658  1
  H+  H320  1  0.01656165  0.38217863  0.83561823  1
  H+  H321  1  0.41541742  0.08298617  0.57521001  1
  H+  H322  1  0.42039479  0.31609627  0.90766303  1
  H+  H323  1  0.07314917  0.15083102  0.77301141  1
  H+  H324  1  0.83197366  0.66204541  0.39448369  1
  H+  H325  1  0.84016348  0.91997264  0.77722559  1
  H+  H326  1  0.67223480  0.06753442  0.23690791  1
  H+  H327  1  0.40394265  0.61782485  0.32534433  1
  H+  H328  1  0.82337453  0.15440029  0.77950879  1
  H+  H329  1  0.58803858  0.92051786  0.73844709  1
  H+  H330  1  0.10740012  0.19113108  0.43839605  1
  H+  H331  1  0.91867811  0.82558589  0.61891015  1
  H+  H332  1  0.07886801  0.66335554  0.43689478  1
  H+  H333  1  0.08826171  0.16860863  0.06545140  1
  H+  H334  1  0.09762941  0.41810712  0.43388944  1
  H+  H335  1  0.08375642  0.91821010  0.38686170  1
  H+  H336  1  0.20992201  0.86262842  0.92718065  1
  H+  H337  1  0.60715581  0.13032168  0.67897869  1
  H+  H338  1  0.33240578  0.92701198  0.37197860  1
  H+  H339  1  0.62189615  0.42384172  0.42937465  1
  H+  H340  1  0.46038011  0.26379773  0.13518255  1
  H+  H341  1  0.88349426  0.76251418  0.32764813  1
  H+  H342  1  0.76363885  0.87822595  0.32371196  1
  H+  H343  1  0.47832711  0.15421035  0.96034114  1
  H+  H344  1  0.76759076  0.63559671  0.01097613  1
  H+  H345  1  0.65571682  0.82688467  0.90307072  1
  H+  H346  1  0.11722496  0.62649849  0.83657255  1
  H+  H347  1  0.32796343  0.39301059  0.40144340  1
  H+  H348  1  0.41726355  0.58591081  0.59586329  1
  H+  H349  1  0.54851807  0.85172517  0.36661351  1
  H+  H350  1  0.83091435  0.16445847  0.40153590  1
  H+  H351  1  0.89141912  0.24078459  0.19213774  1
  H+  H352  1  0.48603265  0.62153204  0.50264103  1
  H+  H353  1  0.22282019  0.61064366  0.83935213  1
  H+  H354  1  0.82145306  0.93497368  0.41824753  1
  H+  H355  1  0.82757662  0.93974086  0.07740923  1
  H+  H356  1  0.56333775  0.15206741  0.76913347  1
  H+  H357  1  0.90167019  0.82412163  0.25466403  1
  H+  H358  1  0.41768103  0.32985362  0.27781205  1
  H+  H359  1  0.43119471  0.59688977  0.90576766  1
  H+  H360  1  0.54224803  0.12987923  0.16962876  1
  H+  H361  1  0.15657501  0.07491761  0.56388907  1
  H+  H362  1  0.16781660  0.33516479  0.93715231  1
  H+  H363  1  0.16126512  0.07586442  0.90377438  1
  H+  H364  1  0.59728744  0.15428815  0.08478529  1
  H+  H365  1  0.33347719  0.65799769  0.77161541  1
  H+  H366  1  0.34265196  0.92883411  0.10138395  1
  H+  H367  1  0.33329995  0.66421641  0.06164251  1
  H+  H368  1  0.58570413  0.94189538  0.44142223  1
  H+  H369  1  0.39381376  0.42601914  0.75553679  1
  H+  H370  1  0.58793351  0.44237978  0.15956665  1
  H+  H371  1  0.03944521  0.88064306  0.82446343  1
  H+  H372  1  0.40475748  0.82934892  0.89764250  1
  H+  H373  1  0.39704791  0.06862003  0.89486409  1
  H+  H374  1  0.82710875  0.67423811  0.10217796  1
  H+  H375  1  0.33757109  0.66510432  0.44087536  1
  H+  H376  1  0.42871273  0.82901994  0.61211543  1
  H+  H377  1  0.34759451  0.16483410  0.06769822  1
  H+  H378  1  0.13836274  0.17070916  0.34296054  1
  H+  H379  1  0.15072589  0.32664785  0.23696092  1
  H+  H380  1  0.14941395  0.82966395  0.60686136  1
  H+  H381  1  0.91684956  0.58988592  0.26344815  1
  H+  H382  1  0.42968773  0.09567502  0.23002821  1
  H+  H383  1  0.11883626  0.06802908  0.25573158  1
  O2-  O384  1  0.08476521  0.15703544  0.13829343  1
  O2-  O385  1  0.09218058  0.17814491  0.48285358  1
  O2-  O386  1  0.07407933  0.15563002  0.81849117  1
  O2-  O387  1  0.07661210  0.40003143  0.14976122  1
  O2-  O388  1  0.09770593  0.42209303  0.47999933  1
  O2-  O389  1  0.07695337  0.41538649  0.81953110  1
  O2-  O390  1  0.06759915  0.69089691  0.13119179  1
  O2-  O391  1  0.07648519  0.65883867  0.48216613  1
  O2-  O392  1  0.08715377  0.66193380  0.82201917  1
  O2-  O393  1  0.10780937  0.91217912  0.14293519  1
  O2-  O394  1  0.09478073  0.91817750  0.46731737  1
  O2-  O395  1  0.10045992  0.91574847  0.81138101  1
  O2-  O396  1  0.40328597  0.21176900  0.13753279  1
  O2-  O397  1  0.32305369  0.14005840  0.46907330  1
  O2-  O398  1  0.32145507  0.16250309  0.81291006  1
  O2-  O399  1  0.32427863  0.42090539  0.14726560  1
  O2-  O400  1  0.35453275  0.42435553  0.47446387  1
  O2-  O401  1  0.32727339  0.40632395  0.87568920  1
  O2-  O402  1  0.32324462  0.65688489  0.13742453  1
  O2-  O403  1  0.33904827  0.66885156  0.48652519  1
  O2-  O404  1  0.33196703  0.65825729  0.81740701  1
  O2-  O405  1  0.34368026  0.93149179  0.14666992  1
  O2-  O406  1  0.32861534  0.89811357  0.50852516  1
  O2-  O407  1  0.29859398  0.89958426  0.81704742  1
  O2-  O408  1  0.60283832  0.15881833  0.15476574  1
  O2-  O409  1  0.57578242  0.15013882  0.48492083  1
  O2-  O410  1  0.56031609  0.15313861  0.81495492  1
  O2-  O411  1  0.56645427  0.38463092  0.14176038  1
  O2-  O412  1  0.64837037  0.43353961  0.47066798  1
  O2-  O413  1  0.57795683  0.41401300  0.81975107  1
  O2-  O414  1  0.57670191  0.66127951  0.11226312  1
  O2-  O415  1  0.59698604  0.67457492  0.47460422  1
  O2-  O416  1  0.57232266  0.67848287  0.80873846  1
  O2-  O417  1  0.59639845  0.90526276  0.14982191  1
  O2-  O418  1  0.58635546  0.93037401  0.48464866  1
  O2-  O419  1  0.57904796  0.91614973  0.82109786  1
  O2-  O420  1  0.84219801  0.13411104  0.16888834  1
  O2-  O421  1  0.83081803  0.17670781  0.48441851  1
  O2-  O422  1  0.82402648  0.16058344  0.82453606  1
  O2-  O423  1  0.81561800  0.42614068  0.14371958  1
  O2-  O424  1  0.80027715  0.42967038  0.46170764  1
  O2-  O425  1  0.83830800  0.42027015  0.80790977  1
  O2-  O426  1  0.82258399  0.67588150  0.14759104  1
  O2-  O427  1  0.83147475  0.66368037  0.47758291  1
  O2-  O428  1  0.82411908  0.65717096  0.81213219  1
  O2-  O429  1  0.87711519  0.95654046  0.14558801  1
  O2-  O430  1  0.82990195  0.94151116  0.46373170  1
  O2-  O431  1  0.83892430  0.91427016  0.82341951  1
  O2-  O432  1  0.16148587  0.06522711  0.18582184  1
  O2-  O433  1  0.15358976  0.07117019  0.51847343  1
  O2-  O434  1  0.15963695  0.07541403  0.85837546  1
  O2-  O435  1  0.15212080  0.31822109  0.18948784  1
  O2-  O436  1  0.19141565  0.34387597  0.52540700  1
  O2-  O437  1  0.16571109  0.32906414  0.82571885  1
  O2-  O438  1  0.15593263  0.55339086  0.18972864  1
  O2-  O439  1  0.17142820  0.58623432  0.52516223  1
  O2-  O440  1  0.16243715  0.58389045  0.85414808  1
  O2-  O441  1  0.18724909  0.81153258  0.19228712  1
  O2-  O442  1  0.15707779  0.82240160  0.52690441  1
  O2-  O443  1  0.21431573  0.85992368  0.84722492  1
  O2-  O444  1  0.43464314  0.09642637  0.18377098  1
  O2-  O445  1  0.41605614  0.07455864  0.52999491  1
  O2-  O446  1  0.39279563  0.06478944  0.84996106  1
  O2-  O447  1  0.34730580  0.29938936  0.20518122  1
  O2-  O448  1  0.46318700  0.37032297  0.52383171  1
  O2-  O449  1  0.41228871  0.32352501  0.86472898  1
  O2-  O450  1  0.41809308  0.58909157  0.17779738  1
  O2-  O451  1  0.42657235  0.58903328  0.51842919  1
  O2-  O452  1  0.42575381  0.59085756  0.86055684  1
  O2-  O453  1  0.42702143  0.83494548  0.17185045  1
  O2-  O454  1  0.42273781  0.82930917  0.53121848  1
  O2-  O455  1  0.40507422  0.82889035  0.85231044  1
  O2-  O456  1  0.67447531  0.06871859  0.19061972  1
  O2-  O457  1  0.66746387  0.08573910  0.53019448  1
  O2-  O458  1  0.65674345  0.08330775  0.86126317  1
  O2-  O459  1  0.66271359  0.32577695  0.18825523  1
  O2-  O460  1  0.65229261  0.30277620  0.53145940  1
  O2-  O461  1  0.66630043  0.33008560  0.84611994  1
  O2-  O462  1  0.65360418  0.56603317  0.17894544  1
  O2-  O463  1  0.67683304  0.60856614  0.52568700  1
  O2-  O464  1  0.66493717  0.57837337  0.87374632  1
  O2-  O465  1  0.66149766  0.81286634  0.16869560  1
  O2-  O466  1  0.66495811  0.83792284  0.51464221  1
  O2-  O467  1  0.65813501  0.82999724  0.85810275  1
  O2-  O468  1  0.88051196  0.08725589  0.19038643  1
  O2-  O469  1  0.92615406  0.10555389  0.51862329  1
  O2-  O470  1  0.91056513  0.08012164  0.86166370  1
  O2-  O471  1  0.91370377  0.30187539  0.20439576  1
  O2-  O472  1  0.91138098  0.35721579  0.49919036  1
  O2-  O473  1  0.91305101  0.33172826  0.85643186  1
  O2-  O474  1  0.91304015  0.59746368  0.18781842  1
  O2-  O475  1  0.90689305  0.58079028  0.51415673  1
  O2-  O476  1  0.92058819  0.58630451  0.84921224  1
  O2-  O477  1  0.89294724  0.82615388  0.20210092  1
  O2-  O478  1  0.91449639  0.85444479  0.53104238  1
  O2-  O479  1  0.92618296  0.82491817  0.84339168  1
  O2-  O480  1  0.09272839  0.06331572  0.29676989  1
  O2-  O481  1  0.16143897  0.08224182  0.64265984  1
  O2-  O482  1  0.15791862  0.07429682  0.98321539  1
  O2-  O483  1  0.15202140  0.34108994  0.30372974  1
  O2-  O484  1  0.16206425  0.33382657  0.70430522  1
  O2-  O485  1  0.16697899  0.33627572  0.98148937  1
  O2-  O486  1  0.18850927  0.61545775  0.30347826  1
  O2-  O487  1  0.17232613  0.59254267  0.65082357  1
  O2-  O488  1  0.15886498  0.58770379  1.01058184  1
  O2-  O489  1  0.16225507  0.82508933  0.30410919  1
  O2-  O490  1  0.15029101  0.83637393  0.65171425  1
  O2-  O491  1  0.20850656  0.86083354  0.97213757  1
  O2-  O492  1  0.42314318  0.09003574  0.30184875  1
  O2-  O493  1  0.41051642  0.08767796  0.65074204  1
  O2-  O494  1  0.42826570  0.10053953  0.97318093  1
  O2-  O495  1  0.42837694  0.33247105  0.32179619  1
  O2-  O496  1  0.39471089  0.34032265  0.63749620  1
  O2-  O497  1  0.41533887  0.32922390  1.01033623  1
  O2-  O498  1  0.44140909  0.59874880  0.30628306  1
  O2-  O499  1  0.40576896  0.57617727  0.64052484  1
  O2-  O500  1  0.43267558  0.59362242  0.98662700  1
  O2-  O501  1  0.38579290  0.79849685  0.30741404  1
  O2-  O502  1  0.43279434  0.83206227  0.65690422  1
  O2-  O503  1  0.41423113  0.83157733  0.97663954  1
  O2-  O504  1  0.66820039  0.06356258  0.30912293  1
  O2-  O505  1  0.66674997  0.08297333  0.65516161  1
  O2-  O506  1  0.65911070  0.06810395  0.98250237  1
  O2-  O507  1  0.66526244  0.33194032  0.31142385  1
  O2-  O508  1  0.65315487  0.32122345  0.65215140  1
  O2-  O509  1  0.65611318  0.31425434  0.97941992  1
  O2-  O510  1  0.66478281  0.57769215  0.30369455  1
  O2-  O511  1  0.66072841  0.59569117  0.64127770  1
  O2-  O512  1  0.66246699  0.57669739  0.99259082  1
  O2-  O513  1  0.66789540  0.81752445  0.29285280  1
  O2-  O514  1  0.64295228  0.81646235  0.64536010  1
  O2-  O515  1  0.65012493  0.82850816  0.98855714  1
  O2-  O516  1  0.91246307  0.08328403  0.30534080  1
  O2-  O517  1  0.91994414  0.08625762  0.64565073  1
  O2-  O518  1  0.92200935  0.09565824  0.98330030  1
  O2-  O519  1  0.91254015  0.32793020  0.32020822  1
  O2-  O520  1  0.89602757  0.30579829  0.62843300  1
  O2-  O521  1  0.91577977  0.34173010  0.98291180  1
  O2-  O522  1  0.91433050  0.58471559  0.30914297  1
  O2-  O523  1  0.82333748  0.53945130  0.62579438  1
  O2-  O524  1  0.89208348  0.57514250  0.96988086  1
  O2-  O525  1  0.91165405  0.82424384  0.31111138  1
  O2-  O526  1  0.91491179  0.82676027  0.66321106  1
  O2-  O527  1  0.93351078  0.80892525  0.96690470  1
  O2-  O528  1  0.08936816  0.17153855  0.01917679  1
  O2-  O529  1  0.14857786  0.21985249  0.36839808  1
  O2-  O530  1  0.07994457  0.16059808  0.69511797  1
  O2-  O531  1  0.07759234  0.41644125  0.02494009  1
  O2-  O532  1  0.08194817  0.40954702  0.35972736  1
  O2-  O533  1  0.07915398  0.42867407  0.70051840  1
  O2-  O534  1  0.05161122  0.66783716  0.00310420  1
  O2-  O535  1  0.07798705  0.66709361  0.35611946  1
  O2-  O536  1  0.13386378  0.69942198  0.71513633  1
  O2-  O537  1  0.09644383  0.90753272  0.01844382  1
  O2-  O538  1  0.07249885  0.91309533  0.34221655  1
  O2-  O539  1  0.07661018  0.92062496  0.69088950  1
  O2-  O540  1  0.33056900  0.15500328  0.02394961  1
  O2-  O541  1  0.33919623  0.15743791  0.34786707  1
  O2-  O542  1  0.32792842  0.17161779  0.68542072  1
  O2-  O543  1  0.33398562  0.42633860  0.02158433  1
  O2-  O544  1  0.31072762  0.36458768  0.36076902  1
  O2-  O545  1  0.28936056  0.39843572  0.62855001  1
  O2-  O546  1  0.33728958  0.66712010  0.01584835  1
  O2-  O547  1  0.34129284  0.65582189  0.36557430  1
  O2-  O548  1  0.33578664  0.66262719  0.69512904  1
  O2-  O549  1  0.35468762  0.92766378  0.02250677  1
  O2-  O550  1  0.32803496  0.91302253  0.32904785  1
  O2-  O551  1  0.30592405  0.92344227  0.68927101  1
  O2-  O552  1  0.59046043  0.15204798  0.03804563  1
  O2-  O553  1  0.57345224  0.17329007  0.36989935  1
  O2-  O554  1  0.57456045  0.15810397  0.69422170  1
  O2-  O555  1  0.58091543  0.40613134  0.02267378  1
  O2-  O556  1  0.59439798  0.42237279  0.35344874  1
  O2-  O557  1  0.63046676  0.44805019  0.69888585  1
  O2-  O558  1  0.58539840  0.66933563  0.04517857  1
  O2-  O559  1  0.59429835  0.66773543  0.35287698  1
  O2-  O560  1  0.56884093  0.66671420  0.69369030  1
  O2-  O561  1  0.56979097  0.91203705  0.00986854  1
  O2-  O562  1  0.56912761  0.88182025  0.32812357  1
  O2-  O563  1  0.58979548  0.92246552  0.69336889  1
  O2-  O564  1  0.83649217  0.18143179  0.01774924  1
  O2-  O565  1  0.83385808  0.16198430  0.35677187  1
  O2-  O566  1  0.82384057  0.14880462  0.70003826  1
  O2-  O567  1  0.82386180  0.41689170  0.01808946  1
  O2-  O568  1  0.83350009  0.41593798  0.34704539  1
  O2-  O569  1  0.82343468  0.41596736  0.68475824  1
  O2-  O570  1  0.82974143  0.66506582  0.02340118  1
  O2-  O571  1  0.83536660  0.66639869  0.34948562  1
  O2-  O572  1  0.81268352  0.66123384  0.69199624  1
  O2-  O573  1  0.81018162  0.93003864  0.03331465  1
  O2-  O574  1  0.82116594  0.91323905  0.34427637  1
  O2-  O575  1  0.84502193  0.92599988  0.70475539  1
