# generated using pymatgen
data_H2O
_symmetry_space_group_name_H-M   'P 1'
_cell_length_a   17.99374191
_cell_length_b   17.98436358
_cell_length_c   22.00483231
_cell_angle_alpha   90.01223142
_cell_angle_beta   89.99140676
_cell_angle_gamma   119.99359015
_symmetry_Int_Tables_number   1
_chemical_formula_structural   H2O
_chemical_formula_sum   'H384 O192'
_cell_volume   6167.27469886
_cell_formula_units_Z   192
loop_
 _symmetry_equiv_pos_site_id
 _symmetry_equiv_pos_as_xyz
  1  'x, y, z'
loop_
 _atom_type_symbol
 _atom_type_oxidation_number
  H+  1.0
  O2-  -2.0
loop_
 _atom_site_type_symbol
 _atom_site_label
 _atom_site_symmetry_multiplicity
 _atom_site_fract_x
 _atom_site_fract_y
 _atom_site_fract_z
 _atom_site_occupancy
  H+  H0  1  0.63625497  0.51802604  0.17271430  1
  H+  H1  1  0.08979866  0.91532768  0.25827263  1
  H+  H2  1  0.02523800  0.38297908  0.82462617  1
  H+  H3  1  0.15563375  0.87214812  0.80538278  1
  H+  H4  1  0.87927246  0.52973307  0.83493059  1
  H+  H5  1  0.35376593  0.88273043  0.99474091  1
  H+  H6  1  0.78685563  0.13151515  0.66625894  1
  H+  H7  1  0.66641665  0.56971239  0.60614731  1
  H+  H8  1  0.13600751  0.51709617  0.83905458  1
  H+  H9  1  0.32662096  0.57465952  0.13715696  1
  H+  H10  1  0.16404602  0.57889506  0.71422880  1
  H+  H11  1  0.50688047  0.88092268  0.33367776  1
  H+  H12  1  0.40936844  0.14113563  0.31971834  1
  H+  H13  1  0.98495301  0.61099374  0.65195441  1
  H+  H14  1  0.89599540  0.36978961  0.50729758  1
  H+  H15  1  0.16017906  0.86167007  0.40784704  1
  H+  H16  1  0.61621050  0.37788547  0.49178396  1
  H+  H17  1  0.37799137  0.37178006  0.67641416  1
  H+  H18  1  0.78278669  0.39279878  0.66710834  1
  H+  H19  1  0.33854033  0.48567871  0.31955763  1
  H+  H20  1  0.52879972  0.60044910  0.29624130  1
  H+  H21  1  0.32932660  0.92019760  0.42839081  1
  H+  H22  1  0.53033813  0.88770290  0.82392577  1
  H+  H23  1  1.03548804  0.64383201  0.35877904  1
  H+  H24  1  0.57130505  0.90467747  0.39205836  1
  H+  H25  1  0.57492530  0.21214224  0.74791862  1
  H+  H26  1  0.38583624  0.03596089  0.48235353  1
  H+  H27  1  1.03230645  0.14968249  0.15289605  1
  H+  H28  1  0.64008960  0.60040588  0.32202117  1
  H+  H29  1  0.36599992  0.08420146  0.73168672  1
  H+  H30  1  0.28701279  0.88962094  0.83444731  1
  H+  H31  1  0.62327373  0.60418039  0.98800667  1
  H+  H32  1  -0.01972931  0.08872736  0.46753617  1
  H+  H33  1  0.36542389  0.71828728  0.68002590  1
  H+  H34  1  0.88449253  0.26653366  -0.01172882  1
  H+  H35  1  0.64356527  0.27882309  0.17072160  1
  H+  H36  1  0.04367944  0.39938970  0.35783252  1
  H+  H37  1  0.09665994  -0.03045192  1.02432632  1
  H+  H38  1  0.59888538  0.24910136  0.67966989  1
  H+  H39  1  0.02907312  0.14395972  0.33083635  1
  H+  H40  1  0.76435078  0.62258856  -0.00209818  1
  H+  H41  1  0.61770685  0.13037096  0.33285363  1
  H+  H42  1  0.12837490  0.97909855  0.17600985  1
  H+  H43  1  1.00363084  0.62966870  0.14924508  1
  H+  H44  1  0.63963248  1.02900652  0.82951107  1
  H+  H45  1  0.65730899  0.54053797  0.83404153  1
  H+  H46  1  0.27300888  0.38571695  0.82997583  1
  H+  H47  1  0.59713803  0.16593378  0.43033481  1
  H+  H48  1  0.10533539  0.71050903  0.82230656  1
  H+  H49  1  0.36415036  0.48153955  0.67920483  1
  H+  H50  1  0.98625555  0.89634052  0.85586117  1
  H+  H51  1  0.86879322  0.48721145  0.13579000  1
  H+  H52  1  0.47072039  0.61132711  0.50122497  1
  H+  H53  1  0.96895599  0.91873322  0.00594104  1
  H+  H54  1  0.14930670  0.27405121  0.50659957  1
  H+  H55  1  0.63473864  0.10561651  0.50300719  1
  H+  H56  1  0.36393928  0.64189875  -0.01781483  1
  H+  H57  1  0.39370669  0.03074128  0.83985905  1
  H+  H58  1  0.86653374  0.64040366  0.14380906  1
  H+  H59  1  0.47809824  0.61055962  0.66130025  1
  H+  H60  1  0.39202143  0.77296075  0.83989108  1
  H+  H61  1  0.65404325  0.27697930  0.32686298  1
  H+  H62  1  0.53612479  0.14306405  0.33488525  1
  H+  H63  1  0.38060437  0.87610439  0.32126583  1
  H+  H64  1  0.52259807  0.13701426  1.00344206  1
  H+  H65  1  0.33950042  0.43553503  0.06122291  1
  H+  H66  1  0.14337060  0.12057667  0.16558855  1
  H+  H67  1  0.14092208  0.03633159  0.65145645  1
  H+  H68  1  0.17938581  0.09388397  0.55633620  1
  H+  H69  1  0.67950982  0.33777908  0.22999901  1
  H+  H70  1  0.33577114  0.57167898  0.32455499  1
  H+  H71  1  0.64274901  0.28470155  0.84431134  1
  H+  H72  1  0.86316480  0.46880056  -0.00400752  1
  H+  H73  1  0.72868245  0.11831219  0.83014827  1
  H+  H74  1  0.35670026  0.36314400  0.34347287  1
  H+  H75  1  0.21873722  0.59931776  0.16777696  1
  H+  H76  1  0.92301073  0.33834855  0.56883797  1
  H+  H77  1  0.52744107  0.88930129  0.48728618  1
  H+  H78  1  0.27703518  0.91141423  0.34439388  1
  H+  H79  1  0.61347291  0.72105524  0.67139416  1
  H+  H80  1  0.12173248  0.73254397  0.36692882  1
  H+  H81  1  0.72252755  0.11655686  0.16801622  1
  H+  H82  1  0.28515105  0.15423662  0.82377459  1
  H+  H83  1  0.87818144  0.14063555  0.67326914  1
  H+  H84  1  0.09708550  0.05428692  0.83832317  1
  H+  H85  1  0.61178885  0.13721186  1.00129707  1
  H+  H86  1  0.36098508  0.67578095  0.15094571  1
  H+  H87  1  0.60682856  -0.02225664  0.14827962  1
  H+  H88  1  0.14886994  0.36769250  0.33323969  1
  H+  H89  1  0.35277961  -0.02918353  0.99538592  1
  H+  H90  1  0.39898099  0.63559299  0.86596312  1
  H+  H91  1  0.89502749  0.09176827  0.98156452  1
  H+  H92  1  0.90975578  0.29020364  0.34420443  1
  H+  H93  1  0.36450308  0.13520463  0.15668052  1
  H+  H94  1  0.46072319  0.12617093  0.70566490  1
  H+  H95  1  0.77578134  0.63228102  0.34321655  1
  H+  H96  1  0.26554573  0.64941204  0.50489667  1
  H+  H97  1  1.01934333  0.63312020  1.00329229  1
  H+  H98  1  0.27976773  0.88903827  0.16045297  1
  H+  H99  1  0.13695034  0.36694369  0.17261612  1
  H+  H100  1  0.86261686  -0.02148191  0.82234829  1
  H+  H101  1  0.72311706  0.85472580  0.65826460  1
  H+  H102  1  0.39214211  0.11973042  0.83780289  1
  H+  H103  1  0.58026955  0.67305623  0.42885583  1
  H+  H104  1  0.26772293  0.88838942  0.48836374  1
  H+  H105  1  0.39074465  0.26159580  0.18034405  1
  H+  H106  1  0.22336039  0.85525798  0.98098021  1
  H+  H107  1  0.60595801  0.84250368  0.31866100  1
  H+  H108  1  0.87784629  0.64983269  0.83921670  1
  H+  H109  1  0.11975834  0.23316733  0.67759749  1
  H+  H110  1  0.52898787  0.14651014  0.83274992  1
  H+  H111  1  0.36661639  0.39729702  0.83133642  1
  H+  H112  1  0.89250506  0.02779034  0.66544276  1
  H+  H113  1  0.13635863  0.60868052  0.53397992  1
  H+  H114  1  0.13300096  0.48739177  0.35564381  1
  H+  H115  1  0.88231375  0.35529434  0.98962791  1
  H+  H116  1  0.02660289  0.12812028  0.82178973  1
  H+  H117  1  0.15094621  0.61999592  0.33619012  1
  H+  H118  1  0.41764024  0.82940290  0.93111044  1
  H+  H119  1  0.89690594  0.87118861  0.33565478  1
  H+  H120  1  0.68800088  0.83137536  0.31758076  1
  H+  H121  1  0.86227687  0.23056139  0.49439986  1
  H+  H122  1  0.15850269  0.57634033  0.89858350  1
  H+  H123  1  0.39187409  0.88794884  0.50838629  1
  H+  H124  1  0.86482116  0.22919014  0.82144455  1
  H+  H125  1  0.98268425  0.11582893  0.66732840  1
  H+  H126  1  0.12367821  0.88621354  0.17542127  1
  H+  H127  1  0.38251958  0.76959029  -0.00991708  1
  H+  H128  1  0.88906681  0.11633857  0.82915185  1
  H+  H129  1  0.14811025  0.12705093  0.32135413  1
  H+  H130  1  0.14027128  0.36451511  0.66026245  1
  H+  H131  1  0.86782739  0.47629635  0.49118950  1
  H+  H132  1  0.52693431  0.87483387  0.67185283  1
  H+  H133  1  0.13143085  0.60969009  -0.00761734  1
  H+  H134  1  0.11396137  0.72430993  0.50928317  1
  H+  H135  1  0.37049911  0.96918172  0.69206644  1
  H+  H136  1  0.51418199  0.88430851  -0.00214162  1
  H+  H137  1  0.88914846  0.27235853  0.65759709  1
  H+  H138  1  0.14030876  0.02540437  0.50369416  1
  H+  H139  1  0.12440544  0.85934880  0.51573977  1
  H+  H140  1  0.87444479  0.48550441  0.33972646  1
  H+  H141  1  0.55287935  0.32357090  0.70858472  1
  H+  H142  1  0.61819712  0.14716742  0.82412859  1
  H+  H143  1  0.73998955  0.85645575  0.51559571  1
  H+  H144  1  0.12789231  0.75588964  0.16338966  1
  H+  H145  1  0.98805908  0.61840731  0.51124268  1
  H+  H146  1  0.97845300  0.36226300  0.65971506  1
  H+  H147  1  0.13308476  0.87201982  0.34134343  1
  H+  H148  1  0.11701737  0.63175235  0.67118315  1
  H+  H149  1  0.87117802  0.72314741  0.50275507  1
  H+  H150  1  0.28254680  0.15032078  0.46799875  1
  H+  H151  1  0.61679888  -0.02703204  0.48002468  1
  H+  H152  1  0.27459919  0.63192396  0.68078343  1
  H+  H153  1  0.58900383  0.69608375  0.31652774  1
  H+  H154  1  0.16865345  0.58201127  0.23084552  1
  H+  H155  1  0.87927794  0.60570851  0.99160982  1
  H+  H156  1  0.39093761  0.36098363  0.49836382  1
  H+  H157  1  0.28571285  0.87903418  0.67752535  1
  H+  H158  1  0.85922574  0.76645957  0.16668029  1
  H+  H159  1  0.72589369  0.86049677  1.00568350  1
  H+  H160  1  0.37147382  0.24235117  0.47656967  1
  H+  H161  1  0.28029881  0.39211091  0.00402586  1
  H+  H162  1  0.64392190  0.11017175  0.70030960  1
  H+  H163  1  0.12285295  0.23724710  0.15572380  1
  H+  H164  1  0.38749995  0.11477220  -0.00638728  1
  H+  H165  1  0.35883361  0.22300443  1.00244262  1
  H+  H166  1  0.77124657  0.62645888  0.67445684  1
  H+  H167  1  0.12004535  0.14537227  0.66962035  1
  H+  H168  1  0.62273113  0.00113574  0.31908028  1
  H+  H169  1  0.61684870  0.38663710  0.16316069  1
  H+  H170  1  0.11241587  0.37902602  0.82474916  1
  H+  H171  1  0.13309345  0.76244390  0.98495388  1
  H+  H172  1  0.63020822  1.02046415  -0.01838958  1
  H+  H173  1  0.36891992  0.47568973  0.48886573  1
  H+  H174  1  0.65386961  0.62872892  0.83259789  1
  H+  H175  1  0.13818351  0.36558323  -0.00687666  1
  H+  H176  1  0.87719124  0.76104223  0.66849909  1
  H+  H177  1  0.53715537  0.40546068  0.83719768  1
  H+  H178  1  0.04118421  0.14421913  -0.00173142  1
  H+  H179  1  0.78428460  0.65556329  0.83792391  1
  H+  H180  1  1.02093818  0.38301126  1.00579497  1
  H+  H181  1  0.64327830  0.26649735  0.50162282  1
  H+  H182  1  0.46485512  0.36388041  0.67739313  1
  H+  H183  1  0.00277816  0.87237140  0.50892828  1
  H+  H184  1  0.22072521  0.60863571  0.98795138  1
  H+  H185  1  0.37652012  0.48833351  0.16611817  1
  H+  H186  1  0.78562305  0.19233365  0.34882194  1
  H+  H187  1  0.84256560  0.66429352  0.44033585  1
  H+  H188  1  0.21787464  0.77274420  0.85539229  1
  H+  H189  1  0.40701659  0.69241321  0.36749478  1
  H+  H190  1  0.36070316  0.25061829  0.67601650  1
  H+  H191  1  0.72931051  0.36352042  -0.00658203  1
  H+  H192  1  0.36927644  0.99821723  0.33589551  1
  H+  H193  1  0.63065859  0.51474566  0.66692865  1
  H+  H194  1  0.38588363  0.36195168  0.99669994  1
  H+  H195  1  0.64840873  0.36286301  0.32776233  1
  H+  H196  1  0.96309271  0.85538311  0.66723018  1
  H+  H197  1  0.89571523  0.62730141  0.33925009  1
  H+  H198  1  0.12349998  1.02251300  0.89706969  1
  H+  H199  1  0.61232951  0.72999490  0.48921289  1
  H+  H200  1  0.40338855  0.29160083  0.84205673  1
  H+  H201  1  0.09783640  0.62943560  0.15461364  1
  H+  H202  1  0.86681144  0.23377167  0.17467158  1
  H+  H203  1  0.89017579  0.12462634  0.16226267  1
  H+  H204  1  0.77388720  0.63275638  0.15098361  1
  H+  H205  1  0.42102886  0.55836333  0.24529315  1
  H+  H206  1  0.66477275  0.08372416  0.92356222  1
  H+  H207  1  0.46960584  0.85345636  0.16415583  1
  H+  H208  1  0.89870755  0.99386289  0.40180361  1
  H+  H209  1  0.86952871  0.38874964  0.67128354  1
  H+  H210  1  0.51852567  0.63786206  -0.01082041  1
  H+  H211  1  0.80990425  0.92516453  0.37119688  1
  H+  H212  1  0.47965600  0.35031681  0.18765721  1
  H+  H213  1  0.23042201  0.35556127  0.32867194  1
  H+  H214  1  0.22271318  0.09536310  -0.01198129  1
  H+  H215  1  0.84412896  0.88552015  0.15976052  1
  H+  H216  1  0.27305141  0.63396053  0.83408443  1
  H+  H217  1  0.60599351  0.47078110  0.00720420  1
  H+  H218  1  0.28163545  0.38369175  0.49300879  1
  H+  H219  1  0.83460585  0.42217501  0.76692278  1
  H+  H220  1  0.97660226  0.86188235  0.31632692  1
  H+  H221  1  0.77226002  0.14100612  0.49024491  1
  H+  H222  1  0.37566182  0.78488575  0.32796904  1
  H+  H223  1  0.60665858  0.71894723  1.00270254  1
  H+  H224  1  0.89252342  -0.00093201  0.48544567  1
  H+  H225  1  0.42790018  0.09737486  0.26323547  1
  H+  H226  1  0.09790631  0.89362379  0.64869329  1
  H+  H227  1  0.53872059  0.64898948  0.83339232  1
  H+  H228  1  0.13763679  0.26428930  0.84177427  1
  H+  H229  1  0.77620870  0.39391276  0.82761374  1
  H+  H230  1  0.61182691  0.14076913  0.15599339  1
  H+  H231  1  0.66263946  0.15680422  0.69244140  1
  H+  H232  1  0.52641322  0.37296688  0.34065105  1
  H+  H233  1  0.23014643  0.12585778  0.65489426  1
  H+  H234  1  0.39037012  1.02591423  0.17701697  1
  H+  H235  1  0.78683624  0.39380770  0.33695927  1
  H+  H236  1  0.61005629  0.72400381  0.15166413  1
  H+  H237  1  0.88956148  0.36736050  0.83735530  1
  H+  H238  1  0.90966249  0.37868087  0.33769510  1
  H+  H239  1  0.11790567  0.23243990  0.33214822  1
  H+  H240  1  0.52694663  0.13830936  0.48153641  1
  H+  H241  1  0.12233406  0.13890226  0.48397185  1
  H+  H242  1  0.39769206  0.86562862  0.84058113  1
  H+  H243  1  0.10631424  0.47221329  0.16189629  1
  H+  H244  1  0.02042647  0.39285532  0.50403150  1
  H+  H245  1  0.47760338  0.35648808  0.50024445  1
  H+  H246  1  0.88212178  0.74973720  0.84692880  1
  H+  H247  1  0.86117767  0.63091899  0.66751584  1
  H+  H248  1  0.89314477  0.04127627  0.31927313  1
  H+  H249  1  0.66469391  0.82332975  0.59699774  1
  H+  H250  1  0.23076041  0.36835727  0.66676773  1
  H+  H251  1  0.05204807  0.91625273  0.08449234  1
  H+  H252  1  0.71743170  0.07985862  0.31653931  1
  H+  H253  1  0.23881845  0.62095906  0.32934520  1
  H+  H254  1  0.86105456  0.72622444  0.34572147  1
  H+  H255  1  0.65289760  0.37589421  0.65043454  1
  H+  H256  1  0.27589722  0.42763330  0.15728545  1
  H+  H257  1  0.11847400  0.48577166  0.51348572  1
  H+  H258  1  0.36652736  0.88738532  0.16236745  1
  H+  H259  1  0.85722533  0.98286104  0.15384813  1
  H+  H260  1  0.64002833  0.86789048  0.83696671  1
  H+  H261  1  0.14030950  0.10414873  0.98839269  1
  H+  H262  1  0.65586608  -0.00998567  0.64653246  1
  H+  H263  1  0.73453502  0.59704526  0.51750352  1
  H+  H264  1  0.24278701  0.13973643  0.31661588  1
  H+  H265  1  0.16565987  0.85659502  0.69475906  1
  H+  H266  1  0.61236744  0.63146318  0.67548973  1
  H+  H267  1  0.49992537  0.59675262  0.19533681  1
  H+  H268  1  0.73208689  0.35703658  0.50013797  1
  H+  H269  1  0.47771217  0.11778608  0.17071849  1
  H+  H270  1  0.38918624  0.61011644  0.66325640  1
  H+  H271  1  0.39369935  0.85520446  0.66842241  1
  H+  H272  1  -0.02768384  0.61405609  0.83361658  1
  H+  H273  1  0.09886621  0.61971010  0.82148974  1
  H+  H274  1  0.67652730  0.33773458  0.59212730  1
  H+  H275  1  0.65057245  0.86306767  0.50703271  1
  H+  H276  1  0.61208900  0.38540123  1.00965812  1
  H+  H277  1  0.39403458  0.12827627  0.47157664  1
  H+  H278  1  0.62470246  0.40136516  0.83643314  1
  H+  H279  1  0.88805129  0.12714260  0.32006553  1
  H+  H280  1  0.36394541  0.71660032  0.50568517  1
  H+  H281  1  0.76588063  0.11403770  -0.00837805  1
  H+  H282  1  0.87253669  0.84809225  0.51898874  1
  H+  H283  1  0.61309028  0.46596789  0.33645190  1
  H+  H284  1  0.89329804  0.62184213  0.50651420  1
  H+  H285  1  0.47345409  0.35879781  0.99758183  1
  H+  H286  1  0.98101649  0.35345572  0.18418992  1
  H+  H287  1  0.84012253  0.89113047  0.00770911  1
  H+  H288  1  0.08115053  0.41138001  0.72937576  1
  H+  H289  1  0.90832169  0.81464637  0.57663669  1
  H+  H290  1  0.36324237  0.16117497  0.66616855  1
  H+  H291  1  0.33717911  0.18230546  0.76182813  1
  H+  H292  1  0.64151397  0.77894115  0.83813727  1
  H+  H293  1  0.35546398  0.20606254  0.38287604  1
  H+  H294  1  0.64447078  0.51022328  0.51379217  1
  H+  H295  1  0.17232112  0.80844141  0.90771684  1
  H+  H296  1  0.79598656  0.89816727  0.07470635  1
  H+  H297  1  0.09396164  0.15852328  0.76855765  1
  H+  H298  1  0.05674449  0.90574945  0.44765718  1
  H+  H299  1  0.90327993  0.57272895  0.20062232  1
  H+  H300  1  0.89101217  0.87647003  0.84263897  1
  H+  H301  1  0.65886993  0.83561787  0.92905647  1
  H+  H302  1  0.10802228  0.47346703  0.00691021  1
  H+  H303  1  0.88446232  0.82057789  0.22880362  1
  H+  H304  1  0.14530352  0.28002399  0.99186486  1
  H+  H305  1  0.07424129  0.66001574  0.72445862  1
  H+  H306  1  0.78424452  0.39594462  0.14674925  1
  H+  H307  1  0.94619849  0.61699382  0.28385358  1
  H+  H308  1  0.47090818  0.94354659  0.54888072  1
  H+  H309  1  0.32944049  0.64785415  0.04920488  1
  H+  H310  1  0.41264326  0.82527243  0.22385954  1
  H+  H311  1  0.58539736  0.66963684  0.76733379  1
  H+  H312  1  0.77426977  0.88822153  0.82844354  1
  H+  H313  1  0.41461577  0.57607974  0.56095183  1
  H+  H314  1  0.57472254  0.65637205  0.09734955  1
  H+  H315  1  0.63982170  0.60848456  0.17222958  1
  H+  H316  1  0.81613217  0.11260693  0.04962059  1
  H+  H317  1  0.83535397  0.41277578  0.05724741  1
  H+  H318  1  0.83729976  0.17029436  0.76130315  1
  H+  H319  1  0.42003033  0.08892655  0.93414488  1
  H+  H320  1  0.82414110  0.87569067  0.45724749  1
  H+  H321  1  0.91881568  0.09582664  0.22141797  1
  H+  H322  1  0.09946339  0.91872181  0.71714712  1
  H+  H323  1  0.10988675  0.47515548  0.67258410  1
  H+  H324  1  0.12212334  0.98335281  0.31171757  1
  H+  H325  1  0.91564677  0.58341074  0.93266792  1
  H+  H326  1  0.63806824  0.27550277  0.99370224  1
  H+  H327  1  0.16954882  0.57749746  0.59055491  1
  H+  H328  1  0.09656812  0.17349925  0.05987818  1
  H+  H329  1  0.07662628  0.41217831  0.10254989  1
  H+  H330  1  0.07901961  0.66463033  0.06252103  1
  H+  H331  1  0.17365970  0.34150130  0.23028507  1
  H+  H332  1  0.64754459  0.82846200  0.22056071  1
  H+  H333  1  0.93433509  0.32894420  0.24926497  1
  H+  H334  1  0.13915451  0.76581769  0.66594497  1
  H+  H335  1  0.92457478  0.08667613  0.88625078  1
  H+  H336  1  0.92892481  0.02350470  0.97108452  1
  H+  H337  1  0.58160369  0.40817726  0.74557542  1
  H+  H338  1  0.16929650  0.83987114  0.57133959  1
  H+  H339  1  0.67671595  0.57454717  0.26589003  1
  H+  H340  1  0.58877148  0.91351162  0.76356410  1
  H+  H341  1  0.33225442  0.42481623  0.74202755  1
  H+  H342  1  0.09567883  0.43103628  0.44497752  1
  H+  H343  1  0.58363143  0.17244277  0.09728374  1
  H+  H344  1  0.57742703  0.91897475  0.05557173  1
  H+  H345  1  0.42472411  0.34316510  0.90466981  1
  H+  H346  1  0.16405827  0.32885554  0.89875036  1
  H+  H347  1  0.83199295  0.17759561  0.40639307  1
  H+  H348  1  0.71643946  0.86827960  0.16644902  1
  H+  H349  1  0.84348583  0.42024852  0.43042935  1
  H+  H350  1  0.13953297  0.95091379  0.80991278  1
  H+  H351  1  0.67373331  0.34282099  0.90412739  1
  H+  H352  1  0.33547221  0.65983557  0.77657108  1
  H+  H353  1  0.33375596  0.68439816  0.41158711  1
  H+  H354  1  0.27745102  0.13958403  0.15505927  1
  H+  H355  1  0.92241544  0.58264706  0.57507252  1
  H+  H356  1  0.39382473  0.09986446  0.59460374  1
  H+  H357  1  0.33391652  0.40268402  0.40234008  1
  H+  H358  1  0.58894056  0.41201397  0.43406146  1
  H+  H359  1  0.17321722  0.80763848  0.22370473  1
  H+  H360  1  0.60655786  0.88839620  0.14777175  1
  H+  H361  1  0.65848411  0.07480120  0.22388258  1
  H+  H362  1  0.41303452  0.30113085  0.27059828  1
  H+  H363  1  0.82654353  0.66074755  0.05440222  1
  H+  H364  1  0.65881951  0.57967343  0.92938198  1
  H+  H365  1  0.91621093  0.33203020  0.89534209  1
  H+  H366  1  0.73973212  0.01530206  0.60914903  1
  H+  H367  1  0.18082622  0.33132047  0.56651235  1
  H+  H368  1  0.83384711  0.20419049  0.10771501  1
  H+  H369  1  0.09148657  0.66227610  0.45153266  1
  H+  H370  1  0.85403096  0.88018437  0.67331375  1
  H+  H371  1  0.17762272  0.09938600  0.22642281  1
  H+  H372  1  0.34328733  0.91493223  0.77435002  1
  H+  H373  1  0.62088524  0.86455885  0.98752325  1
  H+  H374  1  0.41899159  0.83055025  0.60603581  1
  H+  H375  1  0.67141151  0.06469469  0.55421945  1
  H+  H376  1  0.82621088  0.91249294  0.73146703  1
  H+  H377  1  0.57864284  0.41114191  0.10581584  1
  H+  H378  1  0.09609171  0.17347234  0.42571726  1
  H+  H379  1  0.43606377  0.10115765  0.59651543  1
  H+  H380  1  0.92381091  0.89406190  0.93952053  1
  H+  H381  1  0.89367863  0.51841872  0.65261702  1
  H+  H382  1  0.33210534  0.16400084  0.06154790  1
  H+  H383  1  0.61277907  0.86741505  0.67097654  1
  O2-  O384  1  0.09303721  0.17721423  0.13917699  1
  O2-  O385  1  0.08971875  0.16740956  0.47071990  1
  O2-  O386  1  0.08869782  0.14974376  0.81379172  1
  O2-  O387  1  0.07825078  0.41110961  0.14795931  1
  O2-  O388  1  0.08529266  0.42798929  0.49150677  1
  O2-  O389  1  0.08552044  0.41270073  0.80928415  1
  O2-  O390  1  0.07300437  0.66336704  0.13831770  1
  O2-  O391  1  0.08555883  0.66234572  0.49716041  1
  O2-  O392  1  0.06997919  0.65098691  0.80517244  1
  O2-  O393  1  0.09064735  0.91633383  0.18240750  1
  O2-  O394  1  0.06502418  0.90492282  0.49134811  1
  O2-  O395  1  0.15375532  0.91705963  0.78087002  1
  O2-  O396  1  0.33812957  0.16853654  0.13997176  1
  O2-  O397  1  0.34157928  0.18417759  0.45187264  1
  O2-  O398  1  0.34303674  0.17809757  0.80744931  1
  O2-  O399  1  0.32809765  0.47678603  0.13888666  1
  O2-  O400  1  0.34081586  0.41436883  0.47391905  1
  O2-  O401  1  0.33231188  0.42138207  0.81430930  1
  O2-  O402  1  0.31629771  0.62406271  0.13063602  1
  O2-  O403  1  0.31219122  0.69672152  0.48128075  1
  O2-  O404  1  0.33471191  0.66585325  0.82175974  1
  O2-  O405  1  0.34258154  0.92610135  0.15761434  1
  O2-  O406  1  0.32777665  0.91699649  0.47383053  1
  O2-  O407  1  0.34728002  0.92347768  0.81939855  1
  O2-  O408  1  0.58365658  0.17375723  0.14276959  1
  O2-  O409  1  0.59140750  0.16395031  0.47547106  1
  O2-  O410  1  0.58894697  0.18132297  0.81680593  1
  O2-  O411  1  0.58099289  0.41263529  0.15123444  1
  O2-  O412  1  0.58770623  0.41076559  0.47928230  1
  O2-  O413  1  0.59694806  0.43358196  0.81981441  1
  O2-  O414  1  0.58275503  0.66173109  0.14215838  1
  O2-  O415  1  0.57222592  0.67182928  0.47269457  1
  O2-  O416  1  0.59511067  0.67546743  0.81269723  1
  O2-  O417  1  0.57578133  0.91798714  0.13195650  1
  O2-  O418  1  0.58390936  0.91091002  0.46730685  1
  O2-  O419  1  0.59099830  0.91991796  0.80890801  1
  O2-  O420  1  0.83070535  0.17932706  0.14767786  1
  O2-  O421  1  0.83172872  0.17427817  0.47387524  1
  O2-  O422  1  0.83457818  0.16828901  0.80700877  1
  O2-  O423  1  0.84025930  0.42373814  0.12586099  1
  O2-  O424  1  0.84176843  0.41674596  0.47618879  1
  O2-  O425  1  0.83684909  0.42544886  0.81210288  1
  O2-  O426  1  0.83195193  0.67008799  0.13356746  1
  O2-  O427  1  0.84868992  0.66228053  0.48548571  1
  O2-  O428  1  0.85045369  0.68855678  0.83085977  1
  O2-  O429  1  0.81947946  0.92155505  0.14196327  1
  O2-  O430  1  0.82921563  0.88912050  0.50044928  1
  O2-  O431  1  0.83400778  0.91573244  0.81167776  1
  O2-  O432  1  0.17503306  0.09215093  0.18133359  1
  O2-  O433  1  0.17714510  0.08751633  0.51109514  1
  O2-  O434  1  0.09948921  0.00414153  0.85544846  1
  O2-  O435  1  0.17422871  0.34259169  0.18501437  1
  O2-  O436  1  0.18490627  0.33360934  0.52155198  1
  O2-  O437  1  0.16228093  0.32565144  0.85310257  1
  O2-  O438  1  0.16081521  0.57726495  0.18631865  1
  O2-  O439  1  0.16705620  0.57752163  0.54525305  1
  O2-  O440  1  0.16142733  0.57815910  0.85280378  1
  O2-  O441  1  0.16608397  0.81682279  0.18104712  1
  O2-  O442  1  0.16065166  0.83328450  0.52688189  1
  O2-  O443  1  0.18456115  0.80211348  0.85520479  1
  O2-  O444  1  0.41917479  0.08878367  0.18912698  1
  O2-  O445  1  0.42599267  0.09822791  0.48261595  1
  O2-  O446  1  0.42339639  0.09169226  0.85423936  1
  O2-  O447  1  0.42207121  0.31401772  0.20647135  1
  O2-  O448  1  0.41535022  0.32360415  0.50964367  1
  O2-  O449  1  0.43214417  0.35021869  0.85902539  1
  O2-  O450  1  0.46592470  0.55023520  0.22481742  1
  O2-  O451  1  0.41050576  0.57567576  0.51609627  1
  O2-  O452  1  0.44434926  0.62450298  0.88249598  1
  O2-  O453  1  0.41019926  0.81614697  0.17946375  1
  O2-  O454  1  0.43850610  0.88552951  0.53229836  1
  O2-  O455  1  0.42755777  0.83412968  0.85361289  1
  O2-  O456  1  0.66047099  0.08177243  0.17898250  1
  O2-  O457  1  0.66562727  0.07274171  0.50994932  1
  O2-  O458  1  0.66766007  0.08949574  0.84467950  1
  O2-  O459  1  0.67584541  0.33963075  0.18504590  1
  O2-  O460  1  0.67272246  0.32757849  0.51662408  1
  O2-  O461  1  0.67489054  0.34581631  0.85823870  1
  O2-  O462  1  0.67031743  0.57892847  0.18745193  1
  O2-  O463  1  0.67705568  0.56602200  0.53563499  1
  O2-  O464  1  0.68798658  0.60215470  0.84787513  1
  O2-  O465  1  0.65354922  0.83355745  0.17565144  1
  O2-  O466  1  0.67306587  0.82865720  0.52573005  1
  O2-  O467  1  0.67029607  0.83878163  0.85505191  1
  O2-  O468  1  0.91955431  0.09319401  0.17600553  1
  O2-  O469  1  0.91958437  0.04806193  0.45588439  1
  O2-  O470  1  0.91822620  0.08339545  0.84107072  1
  O2-  O471  1  0.92527462  0.31673051  0.20527448  1
  O2-  O472  1  0.92870872  0.34212339  0.52281912  1
  O2-  O473  1  0.91766662  0.33404634  0.84985758  1
  O2-  O474  1  0.91647847  0.58928567  0.15842802  1
  O2-  O475  1  0.92420221  0.58743144  0.52371998  1
  O2-  O476  1  0.91221714  0.59087673  0.84976883  1
  O2-  O477  1  0.87044160  0.82179196  0.18583183  1
  O2-  O478  1  0.90990234  0.81636766  0.53100239  1
  O2-  O479  1  0.92539766  0.85396792  0.86458873  1
  O2-  O480  1  0.18209259  0.10074741  0.30535414  1
  O2-  O481  1  0.17198864  0.09569384  0.63535209  1
  O2-  O482  1  0.16077558  0.06396152  0.97641521  1
  O2-  O483  1  0.17075154  0.33407057  0.31193567  1
  O2-  O484  1  0.17155149  0.33394623  0.64897273  1
  O2-  O485  1  0.17112030  0.33968032  0.97545984  1
  O2-  O486  1  0.17756667  0.58795569  0.31850310  1
  O2-  O487  1  0.16438206  0.58464316  0.67006543  1
  O2-  O488  1  0.15856076  0.57660299  0.97599233  1
  O2-  O489  1  0.16232267  0.84578599  0.36576750  1
  O2-  O490  1  0.17364926  0.83060122  0.65789618  1
  O2-  O491  1  0.16314938  0.81880429  0.96256870  1
  O2-  O492  1  0.43074022  0.10140063  0.30932711  1
  O2-  O493  1  0.40358255  0.07217722  0.70694156  1
  O2-  O494  1  0.41953606  0.08552104  0.97927887  1
  O2-  O495  1  0.40948397  0.29999337  0.31986366  1
  O2-  O496  1  0.40524936  0.33704630  0.66226063  1
  O2-  O497  1  0.41436913  0.32984837  0.97987478  1
  O2-  O498  1  0.33777143  0.53212448  0.29523410  1
  O2-  O499  1  0.41776749  0.57948101  0.64606025  1
  O2-  O500  1  0.43679316  0.62518612  0.94761390  1
  O2-  O501  1  0.40781443  0.84180946  0.30825544  1
  O2-  O502  1  0.42013366  0.82247592  0.65045153  1
  O2-  O503  1  0.41444627  0.83097960  0.97645870  1
  O2-  O504  1  0.65879290  0.06211941  0.30369849  1
  O2-  O505  1  0.70254451  0.03772667  0.62139920  1
  O2-  O506  1  0.66609699  0.08214671  0.96909008  1
  O2-  O507  1  0.68406394  0.33796701  0.31295932  1
  O2-  O508  1  0.68150105  0.34377451  0.63774604  1
  O2-  O509  1  0.66760299  0.33649833  0.97958760  1
  O2-  O510  1  0.67539820  0.57296349  0.31162464  1
  O2-  O511  1  0.66296844  0.57397341  0.65243344  1
  O2-  O512  1  0.65215687  0.57183095  0.97392896  1
  O2-  O513  1  0.63155151  0.80920421  0.29939732  1
  O2-  O514  1  0.66224848  0.82163594  0.64347945  1
  O2-  O515  1  0.65272632  0.83318716  0.97493784  1
  O2-  O516  1  0.91723744  0.09935212  0.30045626  1
  O2-  O517  1  0.92215185  0.08886132  0.65294482  1
  O2-  O518  1  0.94008257  0.08277967  0.96294510  1
  O2-  O519  1  0.94469556  0.35062149  0.32984915  1
  O2-  O520  1  0.91787923  0.33372968  0.64328755  1
  O2-  O521  1  0.91523361  0.32653498  0.97443356  1
  O2-  O522  1  0.93330873  0.60222566  0.32673583  1
  O2-  O523  1  0.92408366  0.57878257  0.63464694  1
  O2-  O524  1  0.91414406  0.57830224  0.97741136  1
  O2-  O525  1  0.91277447  0.83044001  0.31751912  1
  O2-  O526  1  0.90291034  0.82226573  0.65323492  1
  O2-  O527  1  0.92519084  0.92298919  0.97847023  1
  O2-  O528  1  0.10074971  0.17355250  0.01453986  1
  O2-  O529  1  0.08899736  0.17054368  0.34563438  1
  O2-  O530  1  0.09061707  0.17169741  0.69175135  1
  O2-  O531  1  0.07998302  0.41341862  0.02316797  1
  O2-  O532  1  0.10378120  0.42925106  0.37491884  1
  O2-  O533  1  0.07919433  0.41222323  0.68391561  1
  O2-  O534  1  0.08088006  0.66357765  0.01658763  1
  O2-  O535  1  0.09524461  0.66983154  0.37498932  1
  O2-  O536  1  0.08140048  0.66413367  0.67933490  1
  O2-  O537  1  0.04573175  0.91719251  0.04031589  1
  O2-  O538  1  0.09044770  0.92022400  0.30446575  1
  O2-  O539  1  0.07835286  0.92335953  0.67593342  1
  O2-  O540  1  0.33013716  0.16157070  0.01603676  1
  O2-  O541  1  0.36011387  0.20741578  0.33570354  1
  O2-  O542  1  0.32946915  0.18231328  0.68722491  1
  O2-  O543  1  0.33944762  0.41507940  0.01965574  1
  O2-  O544  1  0.32797793  0.39524239  0.35620006  1
  O2-  O545  1  0.33055888  0.42169648  0.69575029  1
  O2-  O546  1  0.32774993  0.66098825  0.00552792  1
  O2-  O547  1  0.34873732  0.68312101  0.36710287  1
  O2-  O548  1  0.33518821  0.65870774  0.69646835  1
  O2-  O549  1  0.31757098  0.90855260  0.00384103  1
  O2-  O550  1  0.33951887  0.93701137  0.35068343  1
  O2-  O551  1  0.34375374  0.90530978  0.69606672  1
  O2-  O552  1  0.58388468  0.16847335  0.01811670  1
  O2-  O553  1  0.59663719  0.16756488  0.34972134  1
  O2-  O554  1  0.55155376  0.22381543  0.70983849  1
  O2-  O555  1  0.57870971  0.41200854  0.02547628  1
  O2-  O556  1  0.58720614  0.40648064  0.35351945  1
  O2-  O557  1  0.56910123  0.38492477  0.70283474  1
  O2-  O558  1  0.57315422  0.65770163  0.01385205  1
  O2-  O559  1  0.56945294  0.63622156  0.32872417  1
  O2-  O560  1  0.58280894  0.66245118  0.69049696  1
  O2-  O561  1  0.57709673  0.91741327  0.00982617  1
  O2-  O562  1  0.56842390  0.90294275  0.34617896  1
  O2-  O563  1  0.58800768  0.90421816  0.68575261  1
  O2-  O564  1  0.82582944  0.13538604  0.00836344  1
  O2-  O565  1  0.83238473  0.18179927  0.35869177  1
  O2-  O566  1  0.84356245  0.17020004  0.68457697  1
  O2-  O567  1  0.83336215  0.40773790  0.01019450  1
  O2-  O568  1  0.84705385  0.42516859  0.35388947  1
  O2-  O569  1  0.84256936  0.42350855  0.68418922  1
  O2-  O570  1  0.82575088  0.65292171  0.00938407  1
  O2-  O571  1  0.83533251  0.66576793  0.36106969  1
  O2-  O572  1  0.83285856  0.65966455  0.68650738  1
  O2-  O573  1  0.78403889  0.87473728  0.03105617  1
  O2-  O574  1  0.87131038  0.95183794  0.36375007  1
  O2-  O575  1  0.82527407  0.91306737  0.68615938  1
