# generated using pymatgen
data_H2O
_symmetry_space_group_name_H-M   'P 1'
_cell_length_a   17.97837775
_cell_length_b   17.97671026
_cell_length_c   22.00842647
_cell_angle_alpha   89.99252549
_cell_angle_beta   90.00025581
_cell_angle_gamma   119.96848437
_symmetry_Int_Tables_number   1
_chemical_formula_structural   H2O
_chemical_formula_sum   'H384 O192'
_cell_volume   6161.95003438
_cell_formula_units_Z   192
loop_
 _symmetry_equiv_pos_site_id
 _symmetry_equiv_pos_as_xyz
  1  'x, y, z'
loop_
 _atom_type_symbol
 _atom_type_oxidation_number
  H+  1.0
  O2-  -2.0
loop_
 _atom_site_type_symbol
 _atom_site_label
 _atom_site_symmetry_multiplicity
 _atom_site_fract_x
 _atom_site_fract_y
 _atom_site_fract_z
 _atom_site_occupancy
  H+  H0  1  0.53401027  0.63560481  0.16222101  1
  H+  H1  1  0.87183677  0.36640170  -0.00063778  1
  H+  H2  1  0.87481544  0.12453512  0.98391856  1
  H+  H3  1  0.11628465  -0.01007931  0.16373195  1
  H+  H4  1  0.73641607  0.35679509  1.00152201  1
  H+  H5  1  0.55265584  0.87726474  0.70823746  1
  H+  H6  1  0.09703360  0.62925657  0.35432998  1
  H+  H7  1  0.64116545  0.27203719  0.17675477  1
  H+  H8  1  0.11836889  0.61140894  0.51587232  1
  H+  H9  1  0.12791293  0.06941120  0.53067960  1
  H+  H10  1  0.98194015  0.85027730  0.50119510  1
  H+  H11  1  0.13993542  0.39618225  0.83207837  1
  H+  H12  1  0.34725573  0.91608706  0.74009873  1
  H+  H13  1  0.06847607  0.40210775  0.40813290  1
  H+  H14  1  0.67935869  0.82489087  0.56425526  1
  H+  H15  1  0.62229667  -0.01491969  0.50086151  1
  H+  H16  1  0.16751201  0.84150494  0.88780919  1
  H+  H17  1  0.35695989  0.47051588  0.50520632  1
  H+  H18  1  0.34398725  0.94189147  0.15243349  1
  H+  H19  1  0.13124743  0.48976286  0.82509246  1
  H+  H20  1  0.48132654  0.11427847  0.50687734  1
  H+  H21  1  0.73087171  0.12295096  0.83438620  1
  H+  H22  1  0.86064558  0.73286308  0.00011831  1
  H+  H23  1  0.66071726  0.76008789  0.18268343  1
  H+  H24  1  0.48653519  0.51373454  0.96736300  1
  H+  H25  1  0.02739719  0.37643445  0.15959226  1
  H+  H26  1  0.10036582  0.71801568  0.34250292  1
  H+  H27  1  0.11238809  0.89742985  0.15003347  1
  H+  H28  1  0.85644040  0.97551485  0.82748571  1
  H+  H29  1  0.53404127  0.87408969  0.86191219  1
  H+  H30  1  -0.03045816  0.85564736  0.33374699  1
  H+  H31  1  0.61384427  0.13470373  0.33605413  1
  H+  H32  1  0.38757473  0.86793248  0.33305545  1
  H+  H33  1  0.40024087  0.70145272  -0.00588888  1
  H+  H34  1  0.04384015  0.38463824  0.67717251  1
  H+  H35  1  0.53205646  0.37284158  0.65845413  1
  H+  H36  1  0.75755202  0.12862257  0.32842180  1
  H+  H37  1  0.62200851  0.89442151  0.49895555  1
  H+  H38  1  0.39658886  0.76359325  0.86697574  1
  H+  H39  1  0.36362231  0.62768545  0.51045214  1
  H+  H40  1  0.16629753  0.60949260  0.17165774  1
  H+  H41  1  0.86349013  0.12244611  0.66967226  1
  H+  H42  1  0.47322475  0.11356482  0.83427503  1
  H+  H43  1  0.13782547  0.01534246  0.99029173  1
  H+  H44  1  0.85409397  -0.01210184  0.99763313  1
  H+  H45  1  0.83307806  0.70702582  0.49228024  1
  H+  H46  1  0.38860599  0.26544331  -0.00418462  1
  H+  H47  1  0.53735457  0.63515437  0.00944630  1
  H+  H48  1  0.59251578  0.87778380  0.00470801  1
  H+  H49  1  0.63616764  0.26904337  0.50982529  1
  H+  H50  1  0.14788952  0.63973801  0.97851341  1
  H+  H51  1  0.11387452  0.73078399  0.82310567  1
  H+  H52  1  0.86655831  0.99286949  0.15755734  1
  H+  H53  1  0.58266814  0.16573385  0.06080523  1
  H+  H54  1  0.87682933  0.61475405  0.65846979  1
  H+  H55  1  0.18580165  0.84384830  0.56979778  1
  H+  H56  1  -0.04238721  0.60585367  0.32859186  1
  H+  H57  1  0.78662736  0.26791506  0.78399977  1
  H+  H58  1  0.02321782  0.87916057  0.48396709  1
  H+  H59  1  0.37489967  0.51173704  0.66920561  1
  H+  H60  1  0.71911654  0.86954960  0.99944884  1
  H+  H61  1  0.85584345  0.14096480  0.15180826  1
  H+  H62  1  0.26285166  0.34496998  0.67517081  1
  H+  H63  1  0.42715862  0.56600915  0.89890508  1
  H+  H64  1  0.22419270  0.11244124  0.33671498  1
  H+  H65  1  0.80250798  -0.00686106  0.69360218  1
  H+  H66  1  0.24396699  0.65955293  -0.01959096  1
  H+  H67  1  0.20445024  0.83960823  0.13657712  1
  H+  H68  1  0.00277116  0.58009807  0.11866548  1
  H+  H69  1  0.35341089  0.85978376  0.15115661  1
  H+  H70  1  0.96456679  0.87182809  0.99404398  1
  H+  H71  1  0.99937303  0.82089151  0.68595542  1
  H+  H72  1  0.25223003  0.87423681  0.98310570  1
  H+  H73  1  0.51475161  0.14847126  0.14787206  1
  H+  H74  1  0.21521882  0.10352157  0.84321723  1
  H+  H75  1  -0.11207969  0.54045583  0.16575167  1
  H+  H76  1  0.15257142  0.78348177  0.66119933  1
  H+  H77  1  0.10463239  0.46531315  0.50075670  1
  H+  H78  1  0.86280892  1.00923949  0.51824236  1
  H+  H79  1  0.35538783  0.06830588  0.18259265  1
  H+  H80  1  0.23384752  0.61800872  0.83756960  1
  H+  H81  1  0.38142664  0.97554033  -0.00413018  1
  H+  H82  1  -0.02356147  0.87397628  0.15950493  1
  H+  H83  1  0.42969301  0.57221440  0.23027157  1
  H+  H84  1  0.25452642  0.61495839  0.67203635  1
  H+  H85  1  0.39095140  0.51980572  0.83574579  1
  H+  H86  1  0.86929568  0.60592305  0.33204543  1
  H+  H87  1  0.75578526  0.36614745  0.50098459  1
  H+  H88  1  0.36875386  0.38693191  0.83104079  1
  H+  H89  1  0.85518296  0.36737262  0.49702196  1
  H+  H90  1  0.42356189  0.08316723  0.93009212  1
  H+  H91  1  0.06104102  0.90595127  0.77189533  1
  H+  H92  1  0.36107451  0.24860446  0.32890959  1
  H+  H93  1  0.26439308  0.64452716  0.36278464  1
  H+  H94  1  0.40144077  0.60290840  0.16967973  1
  H+  H95  1  0.35561982  0.37831290  0.34981035  1
  H+  H96  1  0.87699728  0.52653307  0.65820294  1
  H+  H97  1  0.91991643  0.43889070  0.14619473  1
  H+  H98  1  0.38942949  0.76150338  0.17980182  1
  H+  H99  1  0.11928924  0.74366975  -0.00926556  1
  H+  H100  1  0.22310403  0.35091397  0.99732192  1
  H+  H101  1  0.28068756  0.12781870  0.00590469  1
  H+  H102  1  0.06175862  0.68112302  0.13812467  1
  H+  H103  1  0.81911461  0.65377569  0.40332781  1
  H+  H104  1  0.63692267  0.35735654  0.32548055  1
  H+  H105  1  0.86543372  0.72074922  0.82471228  1
  H+  H106  1  0.12440488  0.23806789  0.16851298  1
  H+  H107  1  0.36954211  0.12792994  0.00026352  1
  H+  H108  1  0.85905958  0.46978518  0.00216499  1
  H+  H109  1  0.08797891  0.20176224  0.66842119  1
  H+  H110  1  0.16157070  0.99678534  0.46259349  1
  H+  H111  1  0.42159841  0.33587426  0.90489497  1
  H+  H112  1  0.12737741  0.00924150  0.83836519  1
  H+  H113  1  0.24874997  0.15932912  0.69775398  1
  H+  H114  1  0.11833054  0.51165207  0.35443465  1
  H+  H115  1  0.72473912  0.61196147  0.33051567  1
  H+  H116  1  0.65919582  0.33708397  0.56484929  1
  H+  H117  1  0.47267944  0.58962884  0.67136834  1
  H+  H118  1  0.38167198  0.63999653  0.68885446  1
  H+  H119  1  0.11698022  0.64283946  0.82243316  1
  H+  H120  1  0.35978511  0.22072277  0.49591195  1
  H+  H121  1  0.64295054  0.02921640  0.84493685  1
  H+  H122  1  0.76848334  0.38180108  0.34389846  1
  H+  H123  1  0.12554255  0.73979958  0.50206292  1
  H+  H124  1  0.13948485  0.34704907  0.65916495  1
  H+  H125  1  0.16156012  0.08475841  0.24013267  1
  H+  H126  1  0.52013005  0.38157125  0.32495333  1
  H+  H127  1  0.59723183  0.59725759  0.67604301  1
  H+  H128  1  0.37453140  0.97822016  0.49583350  1
  H+  H129  1  0.24195004  0.84921799  0.26670450  1
  H+  H130  1  0.91083776  0.59186815  0.92580554  1
  H+  H131  1  0.11524656  0.10504606  0.65273666  1
  H+  H132  1  0.66250340  0.91001675  0.72126992  1
  H+  H133  1  0.86486230  0.12501260  0.50456401  1
  H+  H134  1  0.13731688  0.26174902  0.98763599  1
  H+  H135  1  0.75856237  0.79891622  0.62688472  1
  H+  H136  1  0.88645041  0.26807388  0.51153775  1
  H+  H137  1  0.37537564  0.88813656  0.48116541  1
  H+  H138  1  0.60789760  0.63030517  0.50074837  1
  H+  H139  1  0.60162357  0.49077048  1.00824349  1
  H+  H140  1  0.38503623  0.04878411  0.24530927  1
  H+  H141  1  0.41101858  0.37511077  0.65526614  1
  H+  H142  1  -0.03586356  0.12434034  -0.02160341  1
  H+  H143  1  0.36702219  0.13439394  0.34467147  1
  H+  H144  1  0.13657511  0.11700732  0.18079826  1
  H+  H145  1  0.74578116  0.32316156  0.80872252  1
  H+  H146  1  0.40674501  0.21109135  0.15482514  1
  H+  H147  1  0.37624287  0.46595151  0.16268788  1
  H+  H148  1  0.11571710  0.46303330  0.14373024  1
  H+  H149  1  0.13313195  1.02690141  0.33043253  1
  H+  H150  1  0.88596792  0.27736165  0.16350112  1
  H+  H151  1  0.70897525  0.10763109  0.16476208  1
  H+  H152  1  0.97168714  0.35899413  0.50791018  1
  H+  H153  1  0.87597070  0.87164177  0.98975510  1
  H+  H154  1  0.61751614  0.13877439  0.49683930  1
  H+  H155  1  0.72001740  0.59435672  0.65909935  1
  H+  H156  1  0.62659743  0.17122969  0.66549336  1
  H+  H157  1  0.95393164  0.35132066  0.98878737  1
  H+  H158  1  0.63498731  0.52311385  0.32530793  1
  H+  H159  1  0.13138256  0.26587171  0.48477530  1
  H+  H160  1  0.39562079  0.51824347  0.32475584  1
  H+  H161  1  0.40603240  0.02491438  0.66527951  1
  H+  H162  1  0.26967820  0.13356579  0.48962561  1
  H+  H163  1  0.13016379  0.11943867  0.46882545  1
  H+  H164  1  0.48520545  0.12121860  0.32837993  1
  H+  H165  1  0.39971234  0.49448042  0.99497500  1
  H+  H166  1  0.39366496  0.73520083  0.69172589  1
  H+  H167  1  0.29473195  0.63365846  0.13843447  1
  H+  H168  1  0.91172738  0.59217800  0.56779750  1
  H+  H169  1  0.97414937  0.62777796  0.98142275  1
  H+  H170  1  0.86701412  0.64489495  -0.00293795  1
  H+  H171  1  0.39747195  1.03240963  0.33777801  1
  H+  H172  1  0.35951120  0.22853761  0.84117090  1
  H+  H173  1  0.38841722  0.87180555  0.94180055  1
  H+  H174  1  0.39643632  0.77579415  0.48733905  1
  H+  H175  1  0.48517786  0.11381893  0.98961554  1
  H+  H176  1  0.85451969  0.47308571  0.34751550  1
  H+  H177  1  0.16639533  0.91151837  0.47571298  1
  H+  H178  1  0.86415894  0.88865061  0.82331430  1
  H+  H179  1  0.74512554  0.39894475  0.66846949  1
  H+  H180  1  -0.06040466  0.09807875  0.67011445  1
  H+  H181  1  0.63957390  0.35241104  0.84026275  1
  H+  H182  1  0.59153554  0.49266483  0.48320501  1
  H+  H183  1  0.38945153  0.10889522  0.50891700  1
  H+  H184  1  0.42069609  0.87449016  0.68745209  1
  H+  H185  1  0.64893849  0.36314408  0.17542039  1
  H+  H186  1  0.46762773  0.85572127  0.63365463  1
  H+  H187  1  0.11771648  0.89805046  0.31317161  1
  H+  H188  1  0.36021966  0.14011819  0.83382247  1
  H+  H189  1  0.09365125  0.11349726  0.82010492  1
  H+  H190  1  0.10832808  0.37622297  0.49695046  1
  H+  H191  1  0.62804683  0.76946810  0.50612074  1
  H+  H192  1  0.62483147  0.25759794  0.84109049  1
  H+  H193  1  0.11793588  0.14098250  0.36059247  1
  H+  H194  1  0.02737334  0.86707238  0.67641998  1
  H+  H195  1  0.77164333  0.89247141  0.34284168  1
  H+  H196  1  0.14067144  0.27725842  0.34450909  1
  H+  H197  1  0.66316762  0.82763749  0.94077178  1
  H+  H198  1  0.14720008  0.36490953  0.18155409  1
  H+  H199  1  0.58288233  0.95988523  0.00014122  1
  H+  H200  1  0.02009947  0.65190537  0.66907215  1
  H+  H201  1  0.52719134  0.14930926  0.67184746  1
  H+  H202  1  0.62084780  0.01599915  0.16462945  1
  H+  H203  1  0.46774870  0.36478345  1.00051230  1
  H+  H204  1  0.62168311  0.47321064  0.16185985  1
  H+  H205  1  0.00728931  0.11887711  0.81633518  1
  H+  H206  1  0.28380552  0.91396171  0.34863447  1
  H+  H207  1  0.62875796  1.01670017  0.32076474  1
  H+  H208  1  0.48014424  0.36199869  0.84377348  1
  H+  H209  1  0.64690263  1.07287925  0.65803678  1
  H+  H210  1  0.17834398  0.89795739  -0.01541486  1
  H+  H211  1  0.37157575  0.35192559  0.50847187  1
  H+  H212  1  0.27813043  0.63417063  0.51295485  1
  H+  H213  1  0.61561891  0.63649959  0.34576680  1
  H+  H214  1  0.15738622  0.57630906  0.30067338  1
  H+  H215  1  0.72847505  0.60737729  0.83496954  1
  H+  H216  1  0.63130192  0.86111524  0.33150495  1
  H+  H217  1  0.73249013  0.85520775  0.84813081  1
  H+  H218  1  0.64814837  0.62542358  0.98981318  1
  H+  H219  1  0.35124818  0.89665617  0.83985514  1
  H+  H220  1  0.71702180  0.59730923  0.50524170  1
  H+  H221  1  0.28467086  0.38068891  0.16935690  1
  H+  H222  1  0.61738651  0.63107806  0.82834135  1
  H+  H223  1  0.11129468  0.11656950  0.00506623  1
  H+  H224  1  0.85241139  0.83725523  0.50268846  1
  H+  H225  1  0.15372270  0.59974586  0.10380480  1
  H+  H226  1  0.86293118  0.63006312  0.82354031  1
  H+  H227  1  0.62952478  0.10762229  0.99100161  1
  H+  H228  1  0.82666170  0.91969012  0.43531514  1
  H+  H229  1  0.86503433  0.11032808  0.82548480  1
  H+  H230  1  0.80849810  0.38965261  0.71248219  1
  H+  H231  1  0.63986376  0.49819515  0.65618799  1
  H+  H232  1  0.75920132  0.88131795  0.49103177  1
  H+  H233  1  0.41533383  0.57384759  0.57751582  1
  H+  H234  1  0.47320374  0.60449105  0.51627126  1
  H+  H235  1  0.07927207  0.54029900  0.56539981  1
  H+  H236  1  0.90991690  0.51913401  0.85649358  1
  H+  H237  1  0.60589949  0.28092421  0.66696296  1
  H+  H238  1  0.73213430  0.61766938  -0.01183417  1
  H+  H239  1  0.61250851  0.72423860  0.34921235  1
  H+  H240  1  0.85989503  0.64255260  0.15805210  1
  H+  H241  1  0.97925532  0.61353199  0.83752214  1
  H+  H242  1  0.37066547  0.63561872  0.84025831  1
  H+  H243  1  0.59251586  0.12742933  0.15759361  1
  H+  H244  1  0.61691257  0.46927963  0.82196882  1
  H+  H245  1  0.18989999  0.88634199  0.66709519  1
  H+  H246  1  -0.02534907  0.62999998  0.51164432  1
  H+  H247  1  0.46179871  0.36229828  0.49582008  1
  H+  H248  1  0.52914694  0.63318949  0.82973571  1
  H+  H249  1  0.87519395  0.38883781  0.83648047  1
  H+  H250  1  0.90642683  0.39568718  0.90440539  1
  H+  H251  1  0.87404322  0.74840678  0.14660709  1
  H+  H252  1  0.17991150  1.01064275  0.68072976  1
  H+  H253  1  1.01288036  0.37832352  0.34535587  1
  H+  H254  1  0.86208537  0.98151319  0.34068647  1
  H+  H255  1  0.23833182  0.37655734  0.84113672  1
  H+  H256  1  0.48610368  0.86613925  0.48144722  1
  H+  H257  1  0.53731202  0.38073128  0.15814006  1
  H+  H258  1  0.63810029  0.60388182  0.17297781  1
  H+  H259  1  0.78278114  0.92522722  0.74796123  1
  H+  H260  1  0.82826325  0.71433173  0.66183337  1
  H+  H261  1  0.61674280  0.73338608  0.01059484  1
  H+  H262  1  0.24298512  0.86636919  0.50971865  1
  H+  H263  1  0.85520048  0.72088528  0.34666630  1
  H+  H264  1  0.90532472  0.28441128  0.66774741  1
  H+  H265  1  0.43728955  0.79360733  0.01947636  1
  H+  H266  1  0.38073703  0.02845984  0.83714680  1
  H+  H267  1  0.51928321  0.88516645  0.34506870  1
  H+  H268  1  -0.01826728  0.12700012  0.17460594  1
  H+  H269  1  0.06636530  0.85374815  0.02395105  1
  H+  H270  1  0.13913821  0.47012202  0.67739367  1
  H+  H271  1  0.87611660  0.27190947  0.32321952  1
  H+  H272  1  0.85288354  0.21671076  0.83146387  1
  H+  H273  1  0.58665928  0.40187974  0.76674538  1
  H+  H274  1  0.72513748  0.85796184  0.65514441  1
  H+  H275  1  0.21797329  0.35249203  0.50292121  1
  H+  H276  1  0.72700487  0.12028093  0.51223008  1
  H+  H277  1  0.51409493  0.88535198  0.15959387  1
  H+  H278  1  0.61952142  0.22694820  0.33842814  1
  H+  H279  1  0.39518570  0.34623448  0.16831956  1
  H+  H280  1  0.88325291  0.85921249  0.33816136  1
  H+  H281  1  0.88812513  0.87459861  0.15240783  1
  H+  H282  1  0.38032573  0.77610431  0.33814710  1
  H+  H283  1  0.37406171  0.15253371  0.09689438  1
  H+  H284  1  0.88721349  0.12008735  0.32966804  1
  H+  H285  1  0.60743937  0.12996756  0.82166861  1
  H+  H286  1  0.09330541  0.36092345  1.00114426  1
  H+  H287  1  0.84818879  0.23044213  -0.00356910  1
  H+  H288  1  0.66874223  0.82756702  0.27728070  1
  H+  H289  1  0.82290255  0.17915619  0.73525967  1
  H+  H290  1  0.35252903  0.67674742  0.78209422  1
  H+  H291  1  0.27364442  0.38916720  0.35169301  1
  H+  H292  1  0.93690914  0.34079121  0.60835828  1
  H+  H293  1  0.57727649  0.63900337  0.73458618  1
  H+  H294  1  0.10548306  0.42208092  0.76456824  1
  H+  H295  1  0.33110888  0.39966248  0.76873625  1
  H+  H296  1  0.42529042  0.08032319  0.60518070  1
  H+  H297  1  0.15696502  0.31064235  0.59739705  1
  H+  H298  1  0.80787751  0.15713517  0.39139113  1
  H+  H299  1  0.39816126  0.88738514  0.58016391  1
  H+  H300  1  0.76296540  0.13514087  -0.00151981  1
  H+  H301  1  0.44139527  0.92723071  0.57705368  1
  H+  H302  1  0.07610488  0.66925871  0.04217481  1
  H+  H303  1  0.33106113  0.41609742  0.44264570  1
  H+  H304  1  0.33978952  0.92776588  0.40915473  1
  H+  H305  1  0.56614891  0.41745362  0.38801759  1
  H+  H306  1  0.92156419  0.09573195  0.23285649  1
  H+  H307  1  0.42269476  0.31466786  0.22634480  1
  H+  H308  1  0.26232557  0.94057283  0.24451419  1
  H+  H309  1  0.57406539  0.43259650  0.06855713  1
  H+  H310  1  0.84933038  0.62600672  0.49417878  1
  H+  H311  1  0.58627357  0.92192187  0.40095838  1
  H+  H312  1  0.59521952  0.67204631  0.10346504  1
  H+  H313  1  0.58884111  0.16769681  0.43556937  1
  H+  H314  1  0.35038080  0.90363258  0.04847063  1
  H+  H315  1  0.37521080  0.68924070  0.09735118  1
  H+  H316  1  0.15755725  0.83132749  0.19687573  1
  H+  H317  1  0.07995788  0.67695367  0.72707203  1
  H+  H318  1  0.32876454  0.40175542  0.07197918  1
  H+  H319  1  0.82483507  0.16801673  0.09174894  1
  H+  H320  1  0.33464863  0.67479879  0.41327876  1
  H+  H321  1  0.13527844  0.36286187  0.33862698  1
  H+  H322  1  0.82019967  0.65956591  0.72635992  1
  H+  H323  1  0.91641551  0.33251679  0.22457798  1
  H+  H324  1  0.48320974  0.60675400  0.32436420  1
  H+  H325  1  0.09664907  0.18056041  0.10774696  1
  H+  H326  1  0.67072880  0.32984648  0.26634419  1
  H+  H327  1  0.85876421  0.79371401  0.56628250  1
  H+  H328  1  0.68240425  0.32735568  0.93933740  1
  H+  H329  1  0.26279960  0.89221553  0.82237501  1
  H+  H330  1  0.16272606  0.07289791  0.93014624  1
  H+  H331  1  0.62548929  0.87631833  0.85665128  1
  H+  H332  1  0.88511858  0.57970516  0.23252030  1
  H+  H333  1  0.78387590  0.89732554  0.15980311  1
  H+  H334  1  0.82150882  0.40073115  0.43537517  1
  H+  H335  1  0.19188190  0.58902204  0.61466364  1
  H+  H336  1  0.11539417  0.50237173  0.23773147  1
  H+  H337  1  0.59226168  0.89254941  0.78300165  1
  H+  H338  1  0.91361781  0.83517725  0.89396867  1
  H+  H339  1  0.58120123  0.16784833  0.76304592  1
  H+  H340  1  0.66054127  0.08227987  0.93049711  1
  H+  H341  1  0.65713282  0.56321857  0.56661686  1
  H+  H342  1  0.11522917  0.92255936  0.38228547  1
  H+  H343  1  0.33532616  0.16169120  0.40573412  1
  H+  H344  1  0.12762797  0.86809126  0.83013174  1
  H+  H345  1  0.17298970  0.59172261  0.89447516  1
  H+  H346  1  0.32018652  0.28435096  0.28261012  1
  H+  H347  1  0.08467111  0.67821514  0.44359684  1
  H+  H348  1  0.17449754  0.33695551  0.24384951  1
  H+  H349  1  0.57635310  0.65749572  0.44065517  1
  H+  H350  1  0.30129342  0.88006847  0.67618107  1
  H+  H351  1  0.65375113  0.07316755  0.25847727  1
  H+  H352  1  0.06092594  0.13993881  0.72700418  1
  H+  H353  1  0.07567200  0.92350336  0.07196230  1
  H+  H354  1  0.83162410  0.93471326  0.06042655  1
  H+  H355  1  0.89848619  0.08744583  0.88620582  1
  H+  H356  1  0.17403151  0.34429950  0.89936121  1
  H+  H357  1  0.88186481  0.36294437  0.32702804  1
  H+  H358  1  0.06431088  0.38305301  0.06228664  1
  H+  H359  1  0.88440559  0.83799905  0.65093572  1
  H+  H360  1  0.98037713  0.86459283  0.83859383  1
  H+  H361  1  0.40811599  0.82355510  0.23816959  1
  H+  H362  1  0.87954859  0.45350719  0.08106893  1
  H+  H363  1  0.31221968  0.19014237  0.75405830  1
  H+  H364  1  0.19785394  0.13049214  0.61076119  1
  H+  H365  1  0.02704425  0.08604393  0.04288495  1
  H+  H366  1  0.67356351  0.10868816  0.57630602  1
  H+  H367  1  0.77102787  0.16562965  0.67011724  1
  H+  H368  1  0.56397447  0.91282531  0.09662532  1
  H+  H369  1  0.64230241  0.76396204  0.84598948  1
  H+  H370  1  0.43754246  0.35378305  0.59096762  1
  H+  H371  1  0.66933948  0.57917313  0.89451506  1
  H+  H372  1  0.90515050  0.19037480  0.45021544  1
  H+  H373  1  0.51391383  0.47764017  0.44157391  1
  H+  H374  1  0.84156632  0.67651551  0.08734782  1
  H+  H375  1  0.66326358  0.57607701  0.23422015  1
  H+  H376  1  0.62154008  0.22801235  0.00262531  1
  H+  H377  1  0.35168414  0.36644053  0.01199566  1
  H+  H378  1  0.30866662  0.29864820  0.70581758  1
  H+  H379  1  0.97671277  0.12243269  0.33930528  1
  H+  H380  1  0.07467049  0.50457178  0.23511186  1
  H+  H381  1  0.74485966  0.79176358  0.22071796  1
  H+  H382  1  0.17317097  0.96640788  0.74418649  1
  H+  H383  1  0.87910805  0.06389385  0.58099799  1
  O2-  O384  1  0.09003114  0.17785703  0.15225207  1
  O2-  O385  1  0.09283262  0.17315023  0.44218677  1
  O2-  O386  1  0.06519443  0.14108327  0.79859763  1
  O2-  O387  1  0.08805090  0.39987742  0.14440666  1
  O2-  O388  1  0.07588113  0.40618654  0.48386677  1
  O2-  O389  1  0.10630875  0.42731477  0.81123184  1
  O2-  O390  1  0.05953421  0.63551207  0.11252648  1
  O2-  O391  1  0.09076363  0.67801262  0.48825909  1
  O2-  O392  1  0.08293945  0.66963024  0.80924547  1
  O2-  O393  1  0.08399728  0.93193707  0.14198492  1
  O2-  O394  1  0.16913088  0.95121451  0.44325988  1
  O2-  O395  1  0.08159326  0.91502521  0.81363439  1
  O2-  O396  1  0.39859121  0.15637585  0.13801287  1
  O2-  O397  1  0.33222070  0.15994179  0.48086739  1
  O2-  O398  1  0.32533745  0.16847323  0.82565097  1
  O2-  O399  1  0.34218792  0.40391600  0.14989601  1
  O2-  O400  1  0.32616275  0.41068194  0.48810064  1
  O2-  O401  1  0.33861667  0.41601745  0.81287270  1
  O2-  O402  1  0.35843517  0.66620170  0.13937903  1
  O2-  O403  1  0.33580100  0.66117927  0.49590082  1
  O2-  O404  1  0.34610734  0.67252217  0.82760012  1
  O2-  O405  1  0.32603551  0.88867910  0.12875631  1
  O2-  O406  1  0.34097030  0.91916242  0.47786132  1
  O2-  O407  1  0.32683102  0.92338691  0.81318973  1
  O2-  O408  1  0.57541026  0.16790423  0.13979660  1
  O2-  O409  1  0.58658179  0.16888832  0.48083586  1
  O2-  O410  1  0.57391526  0.15812153  0.80805077  1
  O2-  O411  1  0.59672342  0.41439718  0.14233325  1
  O2-  O412  1  0.54358589  0.44769471  0.45536426  1
  O2-  O413  1  0.58450862  0.40681699  0.81138290  1
  O2-  O414  1  0.59552732  0.67021211  0.14885458  1
  O2-  O415  1  0.57315653  0.65627964  0.48620769  1
  O2-  O416  1  0.58970461  0.66505588  0.81493144  1
  O2-  O417  1  0.57201131  0.91906502  0.14144684  1
  O2-  O418  1  0.59560212  0.92729127  0.48121060  1
  O2-  O419  1  0.59284256  0.90647883  0.84306797  1
  O2-  O420  1  0.82355609  0.16886472  0.13731502  1
  O2-  O421  1  0.85636030  0.16979482  0.47776830  1
  O2-  O422  1  0.81502405  0.16650846  0.80732627  1
  O2-  O423  1  0.91577370  0.48421642  0.12415471  1
  O2-  O424  1  0.81942389  0.39379830  0.48161650  1
  O2-  O425  1  0.79392587  0.32580929  0.78385443  1
  O2-  O426  1  0.84334501  0.68356600  0.13363297  1
  O2-  O427  1  0.80954009  0.64530660  0.47643571  1
  O2-  O428  1  0.83182835  0.66021268  0.81029014  1
  O2-  O429  1  0.83780242  0.93530946  0.13719941  1
  O2-  O430  1  0.82206580  0.91423139  0.48044657  1
  O2-  O431  1  0.82588300  0.91319817  0.81513154  1
  O2-  O432  1  0.16158254  0.08183688  0.19511279  1
  O2-  O433  1  0.15684161  0.08717096  0.49146108  1
  O2-  O434  1  0.15433228  0.07010171  0.85694057  1
  O2-  O435  1  0.17937283  0.33723999  0.19873950  1
  O2-  O436  1  0.15502829  0.31819297  0.51187802  1
  O2-  O437  1  0.17751756  0.35381438  0.85456132  1
  O2-  O438  1  0.18110498  0.58557056  0.13697825  1
  O2-  O439  1  0.12751678  0.56616049  0.53707906  1
  O2-  O440  1  0.17176618  0.58586132  0.84873481  1
  O2-  O441  1  0.14610099  0.82079439  0.15284028  1
  O2-  O442  1  0.18216883  0.84096720  0.52412219  1
  O2-  O443  1  0.16305593  0.83825777  0.84307970  1
  O2-  O444  1  0.34735821  0.01963448  0.20945905  1
  O2-  O445  1  0.42127884  0.07990245  0.52276401  1
  O2-  O446  1  0.41460148  0.08835609  0.85321063  1
  O2-  O447  1  0.42722077  0.31684634  0.18172669  1
  O2-  O448  1  0.40702541  0.32416936  0.51759632  1
  O2-  O449  1  0.42016618  0.33671988  0.85930472  1
  O2-  O450  1  0.43041347  0.57124671  0.18387194  1
  O2-  O451  1  0.41248126  0.57347751  0.53203762  1
  O2-  O452  1  0.42164478  0.57802607  0.85547567  1
  O2-  O453  1  0.40714972  0.82127314  0.19271798  1
  O2-  O454  1  0.42306288  0.83607316  0.47382709  1
  O2-  O455  1  0.43754249  0.81361996  0.89367841  1
  O2-  O456  1  0.64987248  0.07706234  0.18171478  1
  O2-  O457  1  0.66839180  0.09230657  0.52794090  1
  O2-  O458  1  0.66693573  0.09076851  0.85297646  1
  O2-  O459  1  0.67241221  0.32957564  0.19570209  1
  O2-  O460  1  0.67123420  0.33122654  0.52190121  1
  O2-  O461  1  0.66593623  0.31809801  0.85373551  1
  O2-  O462  1  0.66215510  0.56908003  0.18951904  1
  O2-  O463  1  0.65541106  0.56971513  0.52122741  1
  O2-  O464  1  0.66701692  0.57551309  0.84902635  1
  O2-  O465  1  0.70670382  0.81167866  0.20567815  1
  O2-  O466  1  0.66109085  0.82982282  0.52042564  1
  O2-  O467  1  0.67233964  0.82261097  0.86535753  1
  O2-  O468  1  0.92034434  0.09559605  0.18770205  1
  O2-  O469  1  0.88736446  0.06810090  0.53611168  1
  O2-  O470  1  0.89686300  0.08070009  0.84134215  1
  O2-  O471  1  0.92464012  0.33620059  0.18002439  1
  O2-  O472  1  0.91093064  0.32993783  0.52294968  1
  O2-  O473  1  0.91568250  0.42981380  0.86685105  1
  O2-  O474  1  0.88239041  0.58674317  0.18809665  1
  O2-  O475  1  0.91338549  0.59550108  0.52228746  1
  O2-  O476  1  0.91885799  0.57914610  0.85255795  1
  O2-  O477  1  0.91312518  0.83866792  0.16530934  1
  O2-  O478  1  0.87022979  0.79726226  0.51939653  1
  O2-  O479  1  0.91654680  0.83334542  0.84898675  1
  O2-  O480  1  0.16394055  0.09053136  0.32281430  1
  O2-  O481  1  0.15663488  0.08572284  0.63745134  1
  O2-  O482  1  0.16768726  0.07562133  0.97648526  1
  O2-  O483  1  0.16946854  0.33582791  0.32549079  1
  O2-  O484  1  0.16009828  0.30860502  0.64228698  1
  O2-  O485  1  0.16583401  0.32245607  0.97632273  1
  O2-  O486  1  0.14871686  0.57555591  0.34449398  1
  O2-  O487  1  0.19703141  0.57260225  0.65617093  1
  O2-  O488  1  0.18621552  0.61568955  0.96863119  1
  O2-  O489  1  0.21716347  0.88670390  0.26581010  1
  O2-  O490  1  0.19885462  0.84188734  0.64640585  1
  O2-  O491  1  0.19001476  0.85302612  0.97137341  1
  O2-  O492  1  0.42259204  0.08978723  0.31707318  1
  O2-  O493  1  0.43031261  0.08422451  0.65007406  1
  O2-  O494  1  0.42323134  0.07876878  0.97559131  1
  O2-  O495  1  0.37318877  0.30307970  0.30543165  1
  O2-  O496  1  0.46013484  0.38016711  0.63150986  1
  O2-  O497  1  0.40947189  0.32546965  0.98151227  1
  O2-  O498  1  0.42784874  0.57293088  0.30248791  1
  O2-  O499  1  0.41073444  0.57116503  0.65605526  1
  O2-  O500  1  0.45092053  0.54037409  0.97226496  1
  O2-  O501  1  0.41336268  0.83405091  0.31759712  1
  O2-  O502  1  0.45923145  0.84834572  0.67749175  1
  O2-  O503  1  0.39988210  0.86889799  0.89769245  1
  O2-  O504  1  0.65843236  0.07663031  0.30415600  1
  O2-  O505  1  0.67751706  0.12910955  0.63875105  1
  O2-  O506  1  0.65648890  0.07375806  0.97577141  1
  O2-  O507  1  0.67026579  0.32944248  0.31329204  1
  O2-  O508  1  0.62704106  0.34166118  0.64725849  1
  O2-  O509  1  0.67669195  0.32309517  0.98396520  1
  O2-  O510  1  0.66370917  0.58492525  0.31484758  1
  O2-  O511  1  0.65883584  0.55746479  0.64278010  1
  O2-  O512  1  0.67207702  0.59060382  0.97207365  1
  O2-  O513  1  0.66389830  0.83074330  0.32205038  1
  O2-  O514  1  0.70843644  0.81085328  0.62593240  1
  O2-  O515  1  0.65825649  0.83301641  0.98572239  1
  O2-  O516  1  0.92159037  0.09327665  0.31684039  1
  O2-  O517  1  0.87848187  0.07600892  0.65898787  1
  O2-  O518  1  0.90330855  0.09161638  0.96715093  1
  O2-  O519  1  0.91223820  0.33320236  0.31100243  1
  O2-  O520  1  0.94977167  0.34197567  0.65182876  1
  O2-  O521  1  0.89394034  0.33007741  0.97486275  1
  O2-  O522  1  0.89704997  0.57288098  0.31533985  1
  O2-  O523  1  0.91130581  0.58768100  0.64478073  1
  O2-  O524  1  0.91188803  0.59770635  0.97145977  1
  O2-  O525  1  0.90716554  0.82231983  0.32601554  1
  O2-  O526  1  0.83881902  0.78698552  0.63176479  1
  O2-  O527  1  0.90611714  0.84029770  0.97629805  1
  O2-  O528  1  0.07379811  0.13768867  0.02454959  1
  O2-  O529  1  0.08956031  0.17446717  0.37454771  1
  O2-  O530  1  0.05538477  0.14023549  0.68072352  1
  O2-  O531  1  0.05627655  0.38188362  0.01789826  1
  O2-  O532  1  0.07254482  0.40843427  0.36266668  1
  O2-  O533  1  0.10502980  0.41009695  0.69387292  1
  O2-  O534  1  0.08395391  0.68084210  -0.00281270  1
  O2-  O535  1  0.06692654  0.66280265  0.36267459  1
  O2-  O536  1  0.08099766  0.68524190  0.68251874  1
  O2-  O537  1  0.06987802  0.90960881  0.02617284  1
  O2-  O538  1  0.08880674  0.91837591  0.34050981  1
  O2-  O539  1  0.19758358  0.97453886  0.70321628  1
  O2-  O540  1  0.34131369  0.15823814  0.01965454  1
  O2-  O541  1  0.33240636  0.16066936  0.35986115  1
  O2-  O542  1  0.30248180  0.20754219  0.71286669  1
  O2-  O543  1  0.32439367  0.40049570  0.02650995  1
  O2-  O544  1  0.33450566  0.41575466  0.36628407  1
  O2-  O545  1  0.31676288  0.35810949  0.69700625  1
  O2-  O546  1  0.38801428  0.73451890  0.02336452  1
  O2-  O547  1  0.32664182  0.67957365  0.36937011  1
  O2-  O548  1  0.35729578  0.67508168  0.70590332  1
  O2-  O549  1  0.35189075  0.91166058  0.00357013  1
  O2-  O550  1  0.34209911  0.93181036  0.36232271  1
  O2-  O551  1  0.35933480  0.91124140  0.69609956  1
  O2-  O552  1  0.58375078  0.16458978  0.01557535  1
  O2-  O553  1  0.58708025  0.16653491  0.35458333  1
  O2-  O554  1  0.58775069  0.19156521  0.68612048  1
  O2-  O555  1  0.55246743  0.44257946  0.02929732  1
  O2-  O556  1  0.57650975  0.40943878  0.34433230  1
  O2-  O557  1  0.58803286  0.38385832  0.68172366  1
  O2-  O558  1  0.59573398  0.67311354  0.02573201  1
  O2-  O559  1  0.58282491  0.66326923  0.36323133  1
  O2-  O560  1  0.56183141  0.62153724  0.69171825  1
  O2-  O561  1  0.55370722  0.90007205  0.01621168  1
  O2-  O562  1  0.58185930  0.91714838  0.35566981  1
  O2-  O563  1  0.59864764  0.87884140  0.73541089  1
  O2-  O564  1  0.82452026  0.16887246  0.01191875  1
  O2-  O565  1  0.81702225  0.16194448  0.34720323  1
  O2-  O566  1  0.82993910  0.18496044  0.68907253  1
  O2-  O567  1  0.83973734  0.41888825  0.02792865  1
  O2-  O568  1  0.82787823  0.41203087  0.36243999  1
  O2-  O569  1  0.80640784  0.41921421  0.67525105  1
  O2-  O570  1  0.83487193  0.67317677  0.01628853  1
  O2-  O571  1  0.82269419  0.65760715  0.35724220  1
  O2-  O572  1  0.81476773  0.65375700  0.68170348  1
  O2-  O573  1  0.82752444  0.92866518  0.01506151  1
  O2-  O574  1  0.83262257  0.92201647  0.35685852  1
  O2-  O575  1  0.75557670  0.93920534  0.71362455  1
