# generated using pymatgen
data_H2O
_symmetry_space_group_name_H-M   'P 1'
_cell_length_a   17.99209785
_cell_length_b   17.98619820
_cell_length_c   22.01354795
_cell_angle_alpha   89.98676899
_cell_angle_beta   89.98304694
_cell_angle_gamma   119.98961550
_symmetry_Int_Tables_number   1
_chemical_formula_structural   H2O
_chemical_formula_sum   'H384 O192'
_cell_volume   6170.02934834
_cell_formula_units_Z   192
loop_
 _symmetry_equiv_pos_site_id
 _symmetry_equiv_pos_as_xyz
  1  'x, y, z'
loop_
 _atom_type_symbol
 _atom_type_oxidation_number
  H+  1.0
  O2-  -2.0
loop_
 _atom_site_type_symbol
 _atom_site_label
 _atom_site_symmetry_multiplicity
 _atom_site_fract_x
 _atom_site_fract_y
 _atom_site_fract_z
 _atom_site_occupancy
  H+  H0  1  0.87038872  -0.01027567  0.32498951  1
  H+  H1  1  0.65417700  0.37250941  0.95503081  1
  H+  H2  1  0.11704658  0.33873161  -0.00645762  1
  H+  H3  1  0.65479896  0.82628259  0.56497279  1
  H+  H4  1  0.90512694  0.83004515  0.57753922  1
  H+  H5  1  0.26696823  0.62623004  0.00090263  1
  H+  H6  1  0.89236226  1.02609901  0.83895692  1
  H+  H7  1  0.63571427  0.51653025  0.50571201  1
  H+  H8  1  0.62308729  0.60030605  1.00442036  1
  H+  H9  1  0.14362649  0.61487090  0.50041942  1
  H+  H10  1  0.43233780  0.09010523  0.23872363  1
  H+  H11  1  0.77440967  0.15361336  0.48189415  1
  H+  H12  1  0.48826557  0.85620112  0.16669452  1
  H+  H13  1  0.86858737  0.77093802  0.51822169  1
  H+  H14  1  0.60923544  0.13848763  0.82347096  1
  H+  H15  1  0.06162085  0.39054670  0.74628534  1
  H+  H16  1  0.35225432  0.46526300  0.00573477  1
  H+  H17  1  0.47574268  0.34968421  0.66499758  1
  H+  H18  1  0.85624006  0.38775749  0.66631193  1
  H+  H19  1  0.07931068  0.14965990  0.10272349  1
  H+  H20  1  0.36716672  0.37760870  0.66776800  1
  H+  H21  1  0.89374777  0.28130053  0.65904970  1
  H+  H22  1  0.43997893  0.28856139  0.56623858  1
  H+  H23  1  0.11503220  0.13129173  0.66721193  1
  H+  H24  1  0.60757748  0.62968652  0.49314330  1
  H+  H25  1  0.52488190  0.87941571  0.33743095  1
  H+  H26  1  0.38336958  1.01903478  0.67234273  1
  H+  H27  1  0.09931779  0.46329927  0.01120876  1
  H+  H28  1  0.63349002  0.84497695  0.98750882  1
  H+  H29  1  0.38796320  0.27020497  0.98396963  1
  H+  H30  1  0.99545624  0.60474449  0.83941856  1
  H+  H31  1  0.60220480  0.13391554  0.34773786  1
  H+  H32  1  0.62638674  0.15586304  0.00195172  1
  H+  H33  1  0.65086511  0.56968331  1.06132363  1
  H+  H34  1  0.00801467  0.30750121  0.70677140  1
  H+  H35  1  0.17237248  0.58347544  0.22019837  1
  H+  H36  1  0.36070580  0.25232659  0.48918127  1
  H+  H37  1  0.35936665  0.67881542  0.86145383  1
  H+  H38  1  0.59852154  0.71417452  0.49412968  1
  H+  H39  1  0.89456496  0.37273723  0.31699489  1
  H+  H40  1  0.61621829  0.88426600  0.33836827  1
  H+  H41  1  0.48892765  0.12110747  -0.01123001  1
  H+  H42  1  0.90831345  0.90989074  0.99128769  1
  H+  H43  1  0.62228895  0.24101685  -0.01074969  1
  H+  H44  1  0.77045687  0.39336087  0.67222329  1
  H+  H45  1  0.37926225  0.59621194  0.83585848  1
  H+  H46  1  0.49379632  0.11802442  0.17861258  1
  H+  H47  1  0.51418217  0.86427539  0.67933797  1
  H+  H48  1  0.37386419  0.75952639  -0.01769461  1
  H+  H49  1  0.12955218  0.95020782  0.10253633  1
  H+  H50  1  0.37792652  0.72170859  0.48321181  1
  H+  H51  1  0.37234324  0.48168442  0.33404958  1
  H+  H52  1  0.62592680  0.38005648  0.48851034  1
  H+  H53  1  0.87522354  0.64654135  0.67513450  1
  H+  H54  1  0.03335671  0.63678915  0.49221860  1
  H+  H55  1  0.02983036  0.39215179  0.49058694  1
  H+  H56  1  0.41648211  0.13516612  0.51708815  1
  H+  H57  1  0.97085585  0.37116185  0.65918724  1
  H+  H58  1  0.37166481  0.88675005  0.00385074  1
  H+  H59  1  0.77997340  0.38412456  0.15405794  1
  H+  H60  1  0.23445635  0.59430332  0.84451962  1
  H+  H61  1  -0.13128541  0.64373114  0.50204634  1
  H+  H62  1  0.37483901  0.86626736  0.65236810  1
  H+  H63  1  0.13525584  1.01953887  0.66348881  1
  H+  H64  1  0.37550983  0.13547269  -0.00009798  1
  H+  H65  1  0.12827919  0.01886534  0.84092981  1
  H+  H66  1  0.89385185  0.11715861  0.84058365  1
  H+  H67  1  0.14168507  0.52378804  0.16238369  1
  H+  H68  1  0.38457082  0.60850764  0.16572776  1
  H+  H69  1  0.62640324  0.36466444  0.66121911  1
  H+  H70  1  0.53959820  0.63382182  0.67891240  1
  H+  H71  1  0.89638370  0.53491582  0.51879990  1
  H+  H72  1  0.57603527  0.88134052  0.07544471  1
  H+  H73  1  0.72927910  0.36777229  0.32200501  1
  H+  H74  1  0.46916347  0.11440252  0.83528993  1
  H+  H75  1  0.63361521  0.94305183  0.12627009  1
  H+  H76  1  0.13079152  0.10988565  0.83462493  1
  H+  H77  1  0.62784184  0.15597922  0.67226511  1
  H+  H78  1  0.13416660  0.27236121  0.17090534  1
  H+  H79  1  0.31184435  0.90468889  0.52324420  1
  H+  H80  1  0.43166752  0.22915430  0.12381509  1
  H+  H81  1  0.46602795  0.59921528  -0.01622961  1
  H+  H82  1  0.20737357  0.34818226  -0.00696286  1
  H+  H83  1  0.87717404  0.02153231  0.51084714  1
  H+  H84  1  0.61834233  0.76032434  0.83956218  1
  H+  H85  1  0.09726198  0.22289882  0.49453300  1
  H+  H86  1  0.37456469  0.47047068  0.67283289  1
  H+  H87  1  0.37461018  0.51454256  0.17141823  1
  H+  H88  1  0.15487908  0.89378633  1.00948551  1
  H+  H89  1  0.89184863  0.35940066  0.17309526  1
  H+  H90  1  0.37058495  0.36941804  0.82861372  1
  H+  H91  1  0.64525457  0.77007996  0.32533523  1
  H+  H92  1  -0.01893365  0.62272622  0.31436925  1
  H+  H93  1  0.11718711  0.97492030  0.33969845  1
  H+  H94  1  0.14023036  0.97549073  0.49338011  1
  H+  H95  1  0.90837688  0.16097446  0.68152998  1
  H+  H96  1  0.37561943  0.78725439  0.82654363  1
  H+  H97  1  0.84113737  0.39835060  0.09701746  1
  H+  H98  1  0.77257199  0.37849444  0.51657095  1
  H+  H99  1  0.57688332  0.90806721  0.73558155  1
  H+  H100  1  0.23123715  0.61210359  0.50599044  1
  H+  H101  1  0.77197673  0.61766255  0.01142191  1
  H+  H102  1  0.87800573  0.11209471  0.50724364  1
  H+  H103  1  0.86543509  0.38325462  0.82723207  1
  H+  H104  1  0.51513460  0.38798856  0.17740147  1
  H+  H105  1  0.58455262  0.66261804  0.39564514  1
  H+  H106  1  0.74043100  0.36774422  0.95654022  1
  H+  H107  1  0.84628472  0.17042613  0.39614305  1
  H+  H108  1  0.62937903  0.15199460  0.15138113  1
  H+  H109  1  0.10334163  0.88669186  0.84012382  1
  H+  H110  1  0.98365583  0.36332764  0.17303675  1
  H+  H111  1  0.35276835  0.98320275  0.83258723  1
  H+  H112  1  0.67294737  0.57884251  0.24753238  1
  H+  H113  1  0.78241530  0.14397152  0.82446482  1
  H+  H114  1  0.78126655  0.75288347  0.22377159  1
  H+  H115  1  0.38877764  0.61974837  0.31955141  1
  H+  H116  1  0.71642526  0.11534665  0.62629375  1
  H+  H117  1  0.14224599  0.59495688  0.84686992  1
  H+  H118  1  0.64327992  0.27775782  0.16690304  1
  H+  H119  1  0.99467864  0.12432231  0.17601333  1
  H+  H120  1  0.87958389  0.65788421  0.34240774  1
  H+  H121  1  0.86740623  0.24503164  0.00783986  1
  H+  H122  1  0.52750519  0.89962834  0.49263137  1
  H+  H123  1  0.38354177  0.98100257  0.16307186  1
  H+  H124  1  0.76854923  0.89476304  0.49988748  1
  H+  H125  1  0.85266087  0.68417850  0.40526570  1
  H+  H126  1  0.39175139  0.28416637  0.33127863  1
  H+  H127  1  0.77934907  0.88981239  0.67062919  1
  H+  H128  1  0.90579608  0.33710922  0.91117223  1
  H+  H129  1  0.40602464  0.61009492  0.67164952  1
  H+  H130  1  0.35493122  0.12950846  0.67715783  1
  H+  H131  1  0.11693626  0.88746120  0.69120577  1
  H+  H132  1  0.87994776  0.22854625  0.33704912  1
  H+  H133  1  0.63478998  0.61329485  0.31679008  1
  H+  H134  1  0.16717366  0.56072338  0.93351088  1
  H+  H135  1  0.77674938  0.88638391  0.32438577  1
  H+  H136  1  0.04773337  0.92096095  0.01079373  1
  H+  H137  1  0.39662209  0.14549088  0.16392330  1
  H+  H138  1  0.02358720  0.13743378  0.34298194  1
  H+  H139  1  0.37086427  0.72638246  0.15282376  1
  H+  H140  1  0.61177615  0.22667996  0.35398188  1
  H+  H141  1  0.12108106  0.72197640  0.47183659  1
  H+  H142  1  0.64842034  0.61311975  0.66247300  1
  H+  H143  1  0.24828335  0.86525184  0.17606791  1
  H+  H144  1  0.17372140  0.33067081  0.26941591  1
  H+  H145  1  0.89510222  0.77757112  0.66972846  1
  H+  H146  1  0.16792958  1.00942202  0.16096973  1
  H+  H147  1  0.89624470  0.86825742  0.66825965  1
  H+  H148  1  0.13109265  0.61801077  0.31763302  1
  H+  H149  1  0.37740241  0.59949438  0.98394994  1
  H+  H150  1  0.39251724  0.86596541  0.32279180  1
  H+  H151  1  0.27278596  0.14130500  0.33509586  1
  H+  H152  1  0.10997351  0.62967150  0.68862914  1
  H+  H153  1  0.11137703  0.38390654  0.16258877  1
  H+  H154  1  0.60872869  0.71310905  -0.00482040  1
  H+  H155  1  0.40572382  0.86775765  0.16979631  1
  H+  H156  1  0.01079234  0.11026697  0.01408009  1
  H+  H157  1  0.22924460  0.85785960  0.45744859  1
  H+  H158  1  0.26808098  0.15150216  0.17586350  1
  H+  H159  1  -0.05188495  0.56466977  -0.02350720  1
  H+  H160  1  0.14179502  0.85934558  0.46941266  1
  H+  H161  1  0.98328773  0.96073959  0.94613103  1
  H+  H162  1  0.78631214  0.64404961  0.67098578  1
  H+  H163  1  0.10223828  0.11545362  1.01218386  1
  H+  H164  1  0.78252500  0.30303193  0.02078928  1
  H+  H165  1  0.35177079  0.37715279  1.00472935  1
  H+  H166  1  0.72881007  0.16196790  0.62961982  1
  H+  H167  1  0.13007582  0.14888881  0.16220082  1
  H+  H168  1  -0.01464784  0.61732207  0.16452669  1
  H+  H169  1  0.62783925  0.86139675  0.50706041  1
  H+  H170  1  0.63644442  0.85485463  0.66308965  1
  H+  H171  1  1.00230248  0.38622311  0.01738998  1
  H+  H172  1  0.39576105  0.28300520  0.19024130  1
  H+  H173  1  0.27927049  0.88944147  0.33971068  1
  H+  H174  1  0.62202959  1.01762085  0.32752254  1
  H+  H175  1  0.28009505  0.63886561  0.15017996  1
  H+  H176  1  0.65444883  0.05901895  1.02900146  1
  H+  H177  1  0.22153491  0.36143375  0.17205723  1
  H+  H178  1  0.58399196  0.40497030  0.75307125  1
  H+  H179  1  -0.01841826  0.10992569  0.65462941  1
  H+  H180  1  0.86772369  0.63043472  0.15782143  1
  H+  H181  1  0.63010852  0.82405751  0.15339030  1
  H+  H182  1  0.11176817  0.49753329  0.33572431  1
  H+  H183  1  0.51915698  0.89705529  0.82657315  1
  H+  H184  1  0.59405692  0.67938181  0.14784091  1
  H+  H185  1  0.14947849  0.27460423  0.32944601  1
  H+  H186  1  0.52773460  0.64200691  0.33533829  1
  H+  H187  1  0.11987714  0.73444235  0.16443916  1
  H+  H188  1  0.35295790  0.43875795  0.49961505  1
  H+  H189  1  0.13838239  1.00475214  0.00491363  1
  H+  H190  1  0.65008148  0.25692482  0.51630218  1
  H+  H191  1  0.12115885  0.11201183  0.33029511  1
  H+  H192  1  0.32383188  0.92499370  0.77283613  1
  H+  H193  1  0.10743213  0.46488324  0.83451032  1
  H+  H194  1  0.98335189  0.86741853  0.16061513  1
  H+  H195  1  0.16997293  0.88197456  0.17359871  1
  H+  H196  1  0.21954607  0.61498017  0.31891111  1
  H+  H197  1  0.46769667  0.11307543  0.66477399  1
  H+  H198  1  0.97260655  0.36058033  0.85444835  1
  H+  H199  1  0.59581040  0.94500257  -0.02088764  1
  H+  H200  1  0.84252893  0.88114681  0.16601975  1
  H+  H201  1  0.18730034  0.83562310  0.63793669  1
  H+  H202  1  0.12078325  0.51022774  0.65757765  1
  H+  H203  1  0.87819452  0.14387628  0.15895314  1
  H+  H204  1  0.59996303  0.88312182  0.83005544  1
  H+  H205  1  0.88737223  0.11270853  0.32802641  1
  H+  H206  1  0.26185216  0.13274088  0.82715081  1
  H+  H207  1  0.14645150  0.86640285  0.32586006  1
  H+  H208  1  0.67369003  0.33878981  0.86346890  1
  H+  H209  1  0.62712022  0.27658911  0.66613971  1
  H+  H210  1  0.81069724  0.61524723  0.84402816  1
  H+  H211  1  0.82256668  0.70773790  0.84810481  1
  H+  H212  1  0.13470178  0.26943797  0.81313211  1
  H+  H213  1  0.87388803  0.89155963  0.32827729  1
  H+  H214  1  0.36108928  0.14327954  0.34272541  1
  H+  H215  1  0.90432709  1.03701491  0.17356187  1
  H+  H216  1  0.12197404  0.72242979  0.70016876  1
  H+  H217  1  0.77468721  0.63262314  0.49598344  1
  H+  H218  1  0.35539646  0.13985078  0.82941115  1
  H+  H219  1  0.56024775  0.05246302  0.59875169  1
  H+  H220  1  0.89748132  0.36774183  0.51074748  1
  H+  H221  1  0.86447545  0.50592766  0.83384623  1
  H+  H222  1  0.84694917  0.59594658  0.01137438  1
  H+  H223  1  0.12003437  0.48159777  0.49032927  1
  H+  H224  1  0.06481994  0.64802538  -0.08516342  1
  H+  H225  1  -0.01438622  0.61725042  0.67357637  1
  H+  H226  1  0.64254827  0.51311340  0.17825113  1
  H+  H227  1  0.39392173  0.37681756  0.33239512  1
  H+  H228  1  0.89486409  0.53067527  0.66457446  1
  H+  H229  1  0.72836471  0.85871494  0.99173119  1
  H+  H230  1  0.65538373  1.04934818  0.18714127  1
  H+  H231  1  0.49475686  0.31768973  0.50533474  1
  H+  H232  1  0.02941984  0.88685720  0.33674143  1
  H+  H233  1  0.11627727  0.22181460  0.67032228  1
  H+  H234  1  0.64233110  0.36552197  0.17117116  1
  H+  H235  1  0.22304595  0.10900547  0.66258442  1
  H+  H236  1  0.31233470  0.33186769  0.47511797  1
  H+  H237  1  0.87580740  0.23171490  0.15972247  1
  H+  H238  1  0.66059995  0.44474257  0.83095507  1
  H+  H239  1  0.22123321  0.36029940  0.81752333  1
  H+  H240  1  0.86408558  0.89215633  0.82626210  1
  H+  H241  1  1.00847036  0.13521540  0.49212938  1
  H+  H242  1  0.29205336  0.90224225  0.01293622  1
  H+  H243  1  0.54856274  0.46220316  0.72868041  1
  H+  H244  1  0.12875504  0.59536343  0.98225329  1
  H+  H245  1  0.63722181  1.02752431  0.83739963  1
  H+  H246  1  0.36596352  0.26487601  0.83283510  1
  H+  H247  1  0.24805310  0.86685491  0.69414850  1
  H+  H248  1  0.42096401  0.58962410  0.26213607  1
  H+  H249  1  -0.03036812  0.87181295  0.12929940  1
  H+  H250  1  0.58343223  -0.01071736  0.63449358  1
  H+  H251  1  0.24232773  0.12808421  0.98365238  1
  H+  H252  1  0.85382322  0.89154071  0.50710984  1
  H+  H253  1  0.07654089  0.65667439  0.79755965  1
  H+  H254  1  0.11743024  0.73222734  0.33580519  1
  H+  H255  1  0.38918838  0.85349725  0.49524173  1
  H+  H256  1  0.64624620  0.77167429  0.66239631  1
  H+  H257  1  0.07854407  0.15491960  0.76075983  1
  H+  H258  1  0.86937572  0.23323824  0.48996429  1
  H+  H259  1  0.91525795  0.08719574  0.59891441  1
  H+  H260  1  0.89788322  0.52363094  0.16278751  1
  H+  H261  1  0.38685105  0.26144843  0.66088161  1
  H+  H262  1  0.74758949  0.12991208  0.17044353  1
  H+  H263  1  0.35820831  0.38477213  0.16410255  1
  H+  H264  1  0.65074902  0.52609730  0.66403704  1
  H+  H265  1  0.40388137  0.02708174  0.99264112  1
  H+  H266  1  0.13392042  0.35386696  0.67340172  1
  H+  H267  1  0.15913038  0.81213137  1.03118718  1
  H+  H268  1  0.85650198  0.99121568  0.00345725  1
  H+  H269  1  0.96100956  0.84932767  0.83990125  1
  H+  H270  1  0.38920878  1.02998541  0.33029726  1
  H+  H271  1  0.70315649  0.79876027  0.15324320  1
  H+  H272  1  0.50147119  0.60228495  0.14389768  1
  H+  H273  1  0.41789039  0.08903973  0.89824268  1
  H+  H274  1  0.83913076  0.74323469  0.17489687  1
  H+  H275  1  0.37287277  0.87431124  0.83651818  1
  H+  H276  1  0.22770625  0.36209395  0.66579880  1
  H+  H277  1  0.61219870  0.46965371  -0.00672904  1
  H+  H278  1  0.02292225  0.13316986  0.82291105  1
  H+  H279  1  0.89117489  0.12684145  0.98911221  1
  H+  H280  1  0.35190506  0.70357483  0.69285010  1
  H+  H281  1  0.35598698  0.72757325  0.32988180  1
  H+  H282  1  0.01630710  0.39770907  0.33583649  1
  H+  H283  1  0.78267226  0.92171402  0.16935487  1
  H+  H284  1  0.37891713  0.57197203  0.51553281  1
  H+  H285  1  0.86880382  0.47227921  0.99082989  1
  H+  H286  1  0.53081085  0.39448742  0.33897982  1
  H+  H287  1  0.40629315  0.93819910  0.71959088  1
  H+  H288  1  0.33458141  0.66409672  0.05588912  1
  H+  H289  1  0.63765460  0.52329105  0.32136317  1
  H+  H290  1  0.17575795  0.09472537  0.92693433  1
  H+  H291  1  0.35720381  0.92485252  0.10185003  1
  H+  H292  1  0.86840645  0.23220008  0.83831854  1
  H+  H293  1  0.38086330  0.99431118  0.49947454  1
  H+  H294  1  0.21761960  0.87129630  0.85182796  1
  H+  H295  1  0.83188267  0.93251824  0.06356798  1
  H+  H296  1  0.42419002  0.83472223  0.26426240  1
  H+  H297  1  0.18184316  0.84055350  0.26678754  1
  H+  H298  1  0.83630465  0.41046716  0.76550010  1
  H+  H299  1  0.66698759  0.81951124  0.26211689  1
  H+  H300  1  0.16082142  0.33697671  0.57552437  1
  H+  H301  1  0.58411169  0.92516603  0.43286524  1
  H+  H302  1  0.84627017  0.17875282  0.06497238  1
  H+  H303  1  0.11785838  0.64560514  0.15673807  1
  H+  H304  1  0.34406585  0.41518146  0.76159929  1
  H+  H305  1  0.93488589  0.59834577  0.57462445  1
  H+  H306  1  0.83004757  0.64862421  0.09682995  1
  H+  H307  1  0.86683529  0.98011670  0.66954427  1
  H+  H308  1  0.28517005  0.39037129  0.33553397  1
  H+  H309  1  0.52122545  0.61578064  0.82770554  1
  H+  H310  1  0.32548994  0.16414338  0.73468848  1
  H+  H311  1  0.22697400  0.12951438  0.50548763  1
  H+  H312  1  0.47117148  0.58299977  0.50773901  1
  H+  H313  1  0.88189810  0.19280313  0.74320602  1
  H+  H314  1  0.91829118  0.09030767  0.93078791  1
  H+  H315  1  0.58422259  0.37964067  0.02320198  1
  H+  H316  1  0.02654128  0.88598072  0.68199480  1
  H+  H317  1  0.50267070  0.86187257  0.98677604  1
  H+  H318  1  0.59339542  0.41147774  0.43129478  1
  H+  H319  1  0.34283060  0.92102629  0.39699091  1
  H+  H320  1  0.65181718  0.82018011  0.89700118  1
  H+  H321  1  0.92863516  0.33826038  0.26285835  1
  H+  H322  1  0.66984062  0.08976429  0.89456291  1
  H+  H323  1  0.59962326  0.66131376  0.73734336  1
  H+  H324  1  0.08848093  0.81811815  0.57752973  1
  H+  H325  1  0.31146371  0.22629735  0.42592638  1
  H+  H326  1  0.07819804  0.16496437  0.40515747  1
  H+  H327  1  0.18916281  0.07765789  0.56656773  1
  H+  H328  1  0.60725204  0.15340619  0.44397749  1
  H+  H329  1  0.62810921  0.04742112  0.49173574  1
  H+  H330  1  0.09433199  0.04448661  0.27720135  1
  H+  H331  1  0.66661429  0.32910362  0.26650869  1
  H+  H332  1  0.08114009  0.66344289  0.39060698  1
  H+  H333  1  0.09108822  0.92171815  0.43459940  1
  H+  H334  1  0.61926018  0.39242334  0.33396674  1
  H+  H335  1  0.87368309  0.49547749  0.31575237  1
  H+  H336  1  0.92155145  0.08708946  0.26648884  1
  H+  H337  1  0.90905363  0.83702543  0.89905242  1
  H+  H338  1  0.65953178  0.32004019  0.57158320  1
  H+  H339  1  0.82298882  0.40370179  0.45666991  1
  H+  H340  1  0.10292197  0.37446789  0.82367938  1
  H+  H341  1  0.39904328  0.32716424  0.89347952  1
  H+  H342  1  0.85848995  0.44690361  0.37647113  1
  H+  H343  1  0.46012977  0.90662779  0.61601288  1
  H+  H344  1  0.66435722  0.57644211  0.56466727  1
  H+  H345  1  0.06791929  0.69515429  -0.02411723  1
  H+  H346  1  0.89622104  0.78262351  0.33466168  1
  H+  H347  1  0.92279169  0.59424976  0.25372842  1
  H+  H348  1  0.08151612  0.77327263  0.57993735  1
  H+  H349  1  0.16834472  0.84893840  0.91448125  1
  H+  H350  1  0.41359645  0.08314497  0.57528357  1
  H+  H351  1  0.56518020  0.64787482  0.05222400  1
  H+  H352  1  0.08197867  0.43081005  0.40001874  1
  H+  H353  1  0.67232064  0.09550972  0.28074209  1
  H+  H354  1  0.40142375  0.82512883  0.92411156  1
  H+  H355  1  0.67443427  0.61753074  0.83819448  1
  H+  H356  1  0.58187690  0.16393892  0.73165814  1
  H+  H357  1  0.56073858  0.41872564  0.11377459  1
  H+  H358  1  0.07645884  0.91384917  0.77727067  1
  H+  H359  1  0.20448329  0.11703066  0.23311111  1
  H+  H360  1  0.34248720  0.16352186  0.05811267  1
  H+  H361  1  0.74037805  0.60041637  0.17346300  1
  H+  H362  1  0.32344262  0.66425433  0.38697757  1
  H+  H363  1  0.41447197  0.56252217  0.89239231  1
  H+  H364  1  0.59203301  0.17963015  0.09400900  1
  H+  H365  1  0.84222548  0.92829712  0.76715111  1
  H+  H366  1  0.60054935  0.22340147  0.81428265  1
  H+  H367  1  0.13428439  0.36815131  0.51238110  1
  H+  H368  1  0.41031410  0.66802757  0.44717961  1
  H+  H369  1  0.92867507  0.33502972  0.56529473  1
  H+  H370  1  0.42119972  0.34482902  0.24904840  1
  H+  H371  1  0.91066674  0.82899984  0.26950210  1
  H+  H372  1  0.32778812  0.40777505  0.10087002  1
  H+  H373  1  0.15412388  0.57392693  0.60210731  1
  H+  H374  1  0.74299977  0.13109313  1.00281674  1
  H+  H375  1  0.42974921  0.57552272  0.61046609  1
  H+  H376  1  0.35344518  0.65753384  0.75461381  1
  H+  H377  1  0.87903265  0.55329776  0.89636868  1
  H+  H378  1  0.40471052  0.81831133  0.55640445  1
  H+  H379  1  0.24351748  0.36528242  0.50539374  1
  H+  H380  1  0.47257034  0.36035526  0.97217618  1
  H+  H381  1  0.37479877  0.47941148  0.82340907  1
  H+  H382  1  0.47572859  0.11930749  0.33836753  1
  H+  H383  1  0.07542965  0.40938617  0.10301207  1
  O2-  O384  1  0.09056766  0.16822039  0.14738140  1
  O2-  O385  1  0.06837874  0.16609927  0.47526887  1
  O2-  O386  1  0.08270887  0.15868413  0.80616131  1
  O2-  O387  1  0.08073700  0.41490571  0.14888941  1
  O2-  O388  1  0.08967743  0.42178262  0.47286828  1
  O2-  O389  1  0.06783633  0.40435409  0.82090366  1
  O2-  O390  1  0.08518614  0.67519296  0.14801872  1
  O2-  O391  1  0.08881724  0.65647976  0.47050194  1
  O2-  O392  1  0.05964519  0.63131897  0.83858909  1
  O2-  O393  1  0.14552398  0.95060497  0.14571241  1
  O2-  O394  1  0.10103819  0.91627337  0.47802986  1
  O2-  O395  1  0.07104315  0.91417393  0.82261467  1
  O2-  O396  1  0.37907434  0.18567061  0.14345247  1
  O2-  O397  1  0.30811950  0.24618949  0.46700033  1
  O2-  O398  1  0.32360184  0.16794701  0.81296905  1
  O2-  O399  1  0.32638516  0.41139896  0.14657420  1
  O2-  O400  1  0.30373468  0.38433156  0.48330113  1
  O2-  O401  1  0.34245945  0.41536197  0.80741522  1
  O2-  O402  1  0.34091413  0.66757381  0.13509937  1
  O2-  O403  1  0.35825166  0.66279284  0.46510102  1
  O2-  O404  1  0.33170067  0.63878537  0.82806298  1
  O2-  O405  1  0.35661697  0.92128791  0.14725160  1
  O2-  O406  1  0.34948111  0.93029674  0.48815752  1
  O2-  O407  1  0.32106713  0.92180887  0.81906771  1
  O2-  O408  1  0.59214317  0.17625089  0.13920476  1
  O2-  O409  1  0.61330785  0.15019822  0.48934740  1
  O2-  O410  1  0.57313814  0.16068155  0.80515902  1
  O2-  O411  1  0.57370023  0.41366031  0.15600150  1
  O2-  O412  1  0.59107461  0.40633624  0.47647090  1
  O2-  O413  1  0.61078603  0.38719241  0.82391352  1
  O2-  O414  1  0.55974164  0.62615563  0.12489894  1
  O2-  O415  1  0.57161255  0.65403861  0.47783913  1
  O2-  O416  1  0.58436714  0.64670009  0.81540063  1
  O2-  O417  1  0.58907181  0.88348683  0.12013677  1
  O2-  O418  1  0.58695743  0.93508783  0.47756237  1
  O2-  O419  1  0.58004998  0.92301237  0.81396008  1
  O2-  O420  1  0.84513890  0.17113987  0.14340525  1
  O2-  O421  1  0.83585853  0.17421802  0.47288796  1
  O2-  O422  1  0.84507047  0.17484544  0.81746667  1
  O2-  O423  1  0.84113689  0.41037782  0.14087512  1
  O2-  O424  1  0.83322641  0.41410621  0.49995343  1
  O2-  O425  1  0.83427288  0.41132597  0.81040972  1
  O2-  O426  1  0.82930028  0.65287779  0.14343846  1
  O2-  O427  1  0.83547755  0.66806511  0.48286789  1
  O2-  O428  1  0.77855526  0.64595294  0.84965112  1
  O2-  O429  1  0.83396984  0.92805737  0.14920233  1
  O2-  O430  1  0.82989032  0.92694433  0.48937969  1
  O2-  O431  1  0.84501734  0.93238722  0.81222196  1
  O2-  O432  1  0.20762625  0.11957309  0.18828299  1
  O2-  O433  1  0.20930351  0.07426947  0.52519827  1
  O2-  O434  1  0.16286761  0.08171152  0.85188389  1
  O2-  O435  1  0.16145710  0.33183540  0.18791580  1
  O2-  O436  1  0.16157359  0.33602644  0.52950502  1
  O2-  O437  1  0.15995989  0.33241236  0.80764423  1
  O2-  O438  1  0.17545167  0.58554453  0.17532908  1
  O2-  O439  1  0.17095866  0.58207259  0.51827803  1
  O2-  O440  1  0.17153703  0.56369565  0.86006896  1
  O2-  O441  1  0.18826207  0.84125323  0.19048305  1
  O2-  O442  1  0.16713479  0.82080875  0.45848134  1
  O2-  O443  1  0.15949192  0.84476154  0.87034692  1
  O2-  O444  1  0.43303196  0.08829191  0.19303693  1
  O2-  O445  1  0.42286871  0.08676365  0.53031286  1
  O2-  O446  1  0.41049970  0.08898521  0.85322016  1
  O2-  O447  1  0.42113800  0.34374287  0.20193774  1
  O2-  O448  1  0.44398301  0.26861726  0.52487483  1
  O2-  O449  1  0.39776391  0.32730051  0.84742092  1
  O2-  O450  1  0.41110447  0.57619093  0.18389112  1
  O2-  O451  1  0.41279400  0.54475931  0.52629073  1
  O2-  O452  1  0.41793970  0.56654929  0.84705428  1
  O2-  O453  1  0.43081763  0.83214666  0.18503711  1
  O2-  O454  1  0.41246013  0.81772810  0.51116077  1
  O2-  O455  1  0.40514907  0.84265939  0.84761682  1
  O2-  O456  1  0.68764246  0.11166334  0.18572746  1
  O2-  O457  1  0.66676305  0.11090169  0.49803835  1
  O2-  O458  1  0.66697038  0.08966573  0.85011064  1
  O2-  O459  1  0.67504614  0.33749061  0.18400960  1
  O2-  O460  1  0.66992364  0.31792765  0.52712790  1
  O2-  O461  1  0.65151974  0.33357168  0.82109502  1
  O2-  O462  1  0.68027521  0.57343769  0.19280049  1
  O2-  O463  1  0.66235323  0.57724872  0.51925363  1
  O2-  O464  1  0.60935618  0.58424721  0.83600114  1
  O2-  O465  1  0.65659449  0.79628291  0.17774223  1
  O2-  O466  1  0.64839764  0.82191705  0.51975836  1
  O2-  O467  1  0.62848261  0.81559855  0.85566467  1
  O2-  O468  1  0.93260681  0.09602960  0.19022547  1
  O2-  O469  1  0.90982052  0.08496440  0.52413912  1
  O2-  O470  1  0.92457366  0.08751307  0.85569587  1
  O2-  O471  1  0.92229967  0.32988705  0.18925874  1
  O2-  O472  1  0.93083447  0.33840919  0.51958424  1
  O2-  O473  1  0.91014745  0.33112316  0.86629599  1
  O2-  O474  1  0.92277350  0.58332073  0.17806748  1
  O2-  O475  1  0.93138692  0.59636074  0.52880684  1
  O2-  O476  1  0.88671037  0.56520947  0.85232911  1
  O2-  O477  1  0.83206548  0.78718570  0.19897357  1
  O2-  O478  1  0.88569275  0.82807542  0.53511969  1
  O2-  O479  1  0.90083838  0.82196063  0.85554055  1
  O2-  O480  1  0.14164549  0.07637226  0.30552556  1
  O2-  O481  1  0.16382062  0.07830366  0.64514966  1
  O2-  O482  1  0.18070191  0.09825221  0.97252024  1
  O2-  O483  1  0.18346492  0.33392751  0.31392418  1
  O2-  O484  1  0.16780208  0.33285302  0.65011694  1
  O2-  O485  1  0.14985920  0.31452055  0.97506338  1
  O2-  O486  1  0.15801347  0.58262648  0.30503054  1
  O2-  O487  1  0.14629899  0.57061069  0.64669400  1
  O2-  O488  1  0.16295159  0.56635390  0.97920432  1
  O2-  O489  1  0.17905942  0.83762123  0.31248829  1
  O2-  O490  1  0.18566208  0.83433850  0.68218896  1
  O2-  O491  1  0.18346199  0.85778752  1.00091896  1
  O2-  O492  1  0.41872336  0.09144811  0.31718383  1
  O2-  O493  1  0.40683926  0.07987923  0.65285691  1
  O2-  O494  1  0.42767707  0.08665215  0.97577826  1
  O2-  O495  1  0.42624157  0.34512076  0.31793393  1
  O2-  O496  1  0.42183201  0.31996342  0.64158574  1
  O2-  O497  1  0.40937263  0.32880755  0.96650448  1
  O2-  O498  1  0.42512876  0.59495624  0.30752458  1
  O2-  O499  1  0.43355362  0.57710694  0.65524759  1
  O2-  O500  1  0.40446089  0.56536095  0.97105186  1
  O2-  O501  1  0.41982696  0.83191963  0.30958921  1
  O2-  O502  1  0.41222951  0.84908882  0.62965464  1
  O2-  O503  1  0.40580727  0.82195750  0.96935464  1
  O2-  O504  1  0.62989383  0.07354228  0.31326975  1
  O2-  O505  1  0.55161353  -0.00535080  0.59990496  1
  O2-  O506  1  0.67795081  0.09679047  0.99388869  1
  O2-  O507  1  0.66748132  0.33367113  0.31160501  1
  O2-  O508  1  0.65724659  0.33565945  0.64799662  1
  O2-  O509  1  0.68018858  0.33655104  0.94379024  1
  O2-  O510  1  0.66448523  0.58215180  0.30137513  1
  O2-  O511  1  0.67569864  0.58176139  0.64321678  1
  O2-  O512  1  0.65295591  0.56721127  1.01709278  1
  O2-  O513  1  0.67578973  0.82911661  0.30636554  1
  O2-  O514  1  0.66979245  0.83005400  0.64453894  1
  O2-  O515  1  0.66884079  0.81892006  0.97680986  1
  O2-  O516  1  0.91465660  0.07760504  0.31165398  1
  O2-  O517  1  0.91941762  0.08563197  0.64467897  1
  O2-  O518  1  0.91345828  0.08843683  0.97661002  1
  O2-  O519  1  0.92923132  0.34454188  0.30877790  1
  O2-  O520  1  0.91296271  0.33895495  0.64004955  1
  O2-  O521  1  0.89697119  0.33802701  0.98963191  1
  O2-  O522  1  0.92035220  0.59370367  0.29944325  1
  O2-  O523  1  0.92986214  0.59162818  0.65099301  1
  O2-  O524  1  0.88422738  0.53073451  0.97843884  1
  O2-  O525  1  0.92212635  0.84262460  0.31311673  1
  O2-  O526  1  0.92928951  0.83963699  0.65595576  1
  O2-  O527  1  0.95580661  0.90732751  0.96933458  1
  O2-  O528  1  0.05405144  0.10541203  0.03897906  1
  O2-  O529  1  0.08315869  0.16381033  0.35856122  1
  O2-  O530  1  0.08346352  0.16052530  0.68295315  1
  O2-  O531  1  0.06263263  0.40587728  0.03003603  1
  O2-  O532  1  0.07805278  0.43514786  0.35387330  1
  O2-  O533  1  0.05366740  0.36938594  0.70279836  1
  O2-  O534  1  0.05672093  0.63998344  -0.04004413  1
  O2-  O535  1  0.08270435  0.66913722  0.34529075  1
  O2-  O536  1  0.08428414  0.66062774  0.70970927  1
  O2-  O537  1  0.10831097  0.94565929  0.02434280  1
  O2-  O538  1  0.08963022  0.91376640  0.35163109  1
  O2-  O539  1  0.08673328  0.91947483  0.69977331  1
  O2-  O540  1  0.34643586  0.16827334  0.01354875  1
  O2-  O541  1  0.33045264  0.17559691  0.35195071  1
  O2-  O542  1  0.32664265  0.16351409  0.68930482  1
  O2-  O543  1  0.32479759  0.40693776  0.02477714  1
  O2-  O544  1  0.34669753  0.42239516  0.34969019  1
  O2-  O545  1  0.33977846  0.40883971  0.68589206  1
  O2-  O546  1  0.33004941  0.66090193  0.01053433  1
  O2-  O547  1  0.32199901  0.66525861  0.34198947  1
  O2-  O548  1  0.36714217  0.66309823  0.70985059  1
  O2-  O549  1  0.35423950  0.92628243  0.02289468  1
  O2-  O550  1  0.34178344  0.92081438  0.35232944  1
  O2-  O551  1  0.35389697  0.93225663  0.70189295  1
  O2-  O552  1  0.59452917  0.18636832  0.01282592  1
  O2-  O553  1  0.57993159  0.16771646  0.37064651  1
  O2-  O554  1  0.58548634  0.17125851  0.68585221  1
  O2-  O555  1  0.58653842  0.40597983  -0.01594636  1
  O2-  O556  1  0.59331699  0.42632954  0.35037322  1
  O2-  O557  1  0.56985531  0.42489006  0.71426205  1
  O2-  O558  1  0.57072052  0.65136431  0.00641050  1
  O2-  O559  1  0.58849755  0.66708070  0.35028920  1
  O2-  O560  1  0.60104168  0.66516326  0.69204462  1
  O2-  O561  1  0.56554576  0.89014433  0.00052158  1
  O2-  O562  1  0.58465877  0.91217752  0.35377634  1
  O2-  O563  1  0.57506221  0.90031818  0.69045001  1
  O2-  O564  1  0.84061989  0.18062909  0.01988061  1
  O2-  O565  1  0.85090585  0.16843694  0.35092498  1
  O2-  O566  1  0.90979641  0.21141961  0.70255615  1
  O2-  O567  1  0.83353806  0.36012383  0.01624007  1
  O2-  O568  1  0.84585222  0.43436106  0.33355856  1
  O2-  O569  1  0.83146641  0.42132913  0.68463307  1
  O2-  O570  1  0.83087737  0.63823430  0.02598325  1
  O2-  O571  1  0.85878309  0.69436494  0.36043341  1
  O2-  O572  1  0.84456664  0.67678473  0.68836632  1
  O2-  O573  1  0.82955476  0.92980087  0.01884063  1
  O2-  O574  1  0.83936320  0.92229193  0.33690064  1
  O2-  O575  1  0.83908782  0.92060688  0.68656846  1
