# generated using pymatgen
data_H2O
_symmetry_space_group_name_H-M   'P 1'
_cell_length_a   17.98182138
_cell_length_b   17.97305787
_cell_length_c   21.98871627
_cell_angle_alpha   89.98288306
_cell_angle_beta   90.01151363
_cell_angle_gamma   120.01818409
_symmetry_Int_Tables_number   1
_chemical_formula_structural   H2O
_chemical_formula_sum   'H384 O192'
_cell_volume   6153.27793162
_cell_formula_units_Z   192
loop_
 _symmetry_equiv_pos_site_id
 _symmetry_equiv_pos_as_xyz
  1  'x, y, z'
loop_
 _atom_type_symbol
 _atom_type_oxidation_number
  H+  1.0
  O2-  -2.0
loop_
 _atom_site_type_symbol
 _atom_site_label
 _atom_site_symmetry_multiplicity
 _atom_site_fract_x
 _atom_site_fract_y
 _atom_site_fract_z
 _atom_site_occupancy
  H+  H0  1  0.13032008  0.11120433  0.32495357  1
  H+  H1  1  0.14229417  0.53896299  0.51822880  1
  H+  H2  1  0.22787642  0.62746807  0.50777936  1
  H+  H3  1  0.63839724  0.11519290  0.33226558  1
  H+  H4  1  0.88614065  0.62382590  0.16023837  1
  H+  H5  1  0.37363132  0.88919119  0.14478525  1
  H+  H6  1  0.61102974  0.73658813  0.67857612  1
  H+  H7  1  0.89658509  0.27628400  -0.00989415  1
  H+  H8  1  0.11469524  0.73520761  0.84265267  1
  H+  H9  1  0.91477788  0.86687820  0.16555193  1
  H+  H10  1  0.37972911  0.59212742  0.18105453  1
  H+  H11  1  0.49819542  0.11269589  0.02197614  1
  H+  H12  1  0.61243916  0.47987210  0.35532909  1
  H+  H13  1  0.63985219  1.02661270  0.33718419  1
  H+  H14  1  0.36063706  0.95620251  -0.02265739  1
  H+  H15  1  0.51454174  0.88529500  0.50214183  1
  H+  H16  1  0.07743130  0.15739662  0.09518281  1
  H+  H17  1  0.23046817  0.60668214  0.17340924  1
  H+  H18  1  0.61591333  0.97526650  0.67016139  1
  H+  H19  1  0.10955552  0.47825770  0.00729026  1
  H+  H20  1  0.37875651  0.39546489  0.34137159  1
  H+  H21  1  0.88763283  0.04654692  0.59579397  1
  H+  H22  1  0.72566902  0.36192762  0.32716982  1
  H+  H23  1  0.25608177  0.88706487  0.84102650  1
  H+  H24  1  0.88026507  0.23480423  0.18948498  1
  H+  H25  1  0.38707056  0.36808427  0.98898250  1
  H+  H26  1  0.60431230  0.26614749  0.79090617  1
  H+  H27  1  0.51945583  0.62732114  0.18375143  1
  H+  H28  1  0.17171510  0.09391344  0.26644483  1
  H+  H29  1  0.13127200  0.35578251  0.16598791  1
  H+  H30  1  0.61476712  0.14007686  0.49709277  1
  H+  H31  1  0.87461629  0.73630510  0.83257191  1
  H+  H32  1  0.63844592  0.51673935  0.50840926  1
  H+  H33  1  0.60114494  0.65564741  0.22347350  1
  H+  H34  1  0.77151655  0.29374636  0.38806616  1
  H+  H35  1  0.79170680  0.88244501  0.43356010  1
  H+  H36  1  0.61313108  0.23063387  0.34103868  1
  H+  H37  1  0.53915230  0.77447083  0.87585889  1
  H+  H38  1  0.63052065  0.10041638  0.66127654  1
  H+  H39  1  0.35433324  0.73474411  0.13735946  1
  H+  H40  1  0.14861786  0.84269519  0.91153458  1
  H+  H41  1  0.59471857  0.86392100  0.00523859  1
  H+  H42  1  0.15935475  0.77493064  0.18330864  1
  H+  H43  1  0.61534137  0.48875230  0.82808123  1
  H+  H44  1  0.87384325  0.01433978  0.98193781  1
  H+  H45  1  0.75955291  0.17724179  -0.01337089  1
  H+  H46  1  0.73174388  0.35383403  0.65915245  1
  H+  H47  1  0.37179887  0.64185370  0.34483538  1
  H+  H48  1  0.56254539  0.14278469  0.72835330  1
  H+  H49  1  0.86820025  0.40714184  0.16615680  1
  H+  H50  1  0.34879718  0.38140238  0.66935347  1
  H+  H51  1  0.65687353  0.33051661  0.57672857  1
  H+  H52  1  0.08460769  0.42628838  0.43185530  1
  H+  H53  1  0.11766433  0.14287648  0.15679450  1
  H+  H54  1  0.46876967  0.34863711  0.16472277  1
  H+  H55  1  0.96487911  0.50533666  0.25436145  1
  H+  H56  1  0.83698730  0.08465315  0.14286770  1
  H+  H57  1  0.35978121  0.47317925  0.00408918  1
  H+  H58  1  0.38541180  0.60368754  -0.01419011  1
  H+  H59  1  0.26872106  0.12930833  0.66295862  1
  H+  H60  1  0.39468582  0.52636033  0.33472094  1
  H+  H61  1  0.10938065  0.71319834  0.33267144  1
  H+  H62  1  0.35500424  0.45219058  0.16902213  1
  H+  H63  1  0.15690015  0.86996274  0.49115151  1
  H+  H64  1  0.36894167  0.34351505  0.16902244  1
  H+  H65  1  0.12370692  0.65780626  0.68090161  1
  H+  H66  1  0.65902242  0.31421140  1.07410794  1
  H+  H67  1  0.63157232  0.82073352  0.90556425  1
  H+  H68  1  0.36381566  0.73288477  0.82391768  1
  H+  H69  1  0.38184580  -0.02055947  0.34475389  1
  H+  H70  1  0.63739924  0.78359318  0.19159201  1
  H+  H71  1  0.88984038  0.09459855  0.82482551  1
  H+  H72  1  0.12658302  0.07599604  -0.00726505  1
  H+  H73  1  0.86047760  0.49484212  0.49770609  1
  H+  H74  1  0.88600980  0.62130644  -0.00470767  1
  H+  H75  1  0.66131191  0.07761108  0.23509168  1
  H+  H76  1  1.00004520  0.88476165  0.67734549  1
  H+  H77  1  0.72255406  0.36883133  0.52112681  1
  H+  H78  1  0.39162936  0.14043992  1.01928791  1
  H+  H79  1  0.99001990  0.62970048  0.85110795  1
  H+  H80  1  0.40804170  0.80914641  0.21200751  1
  H+  H81  1  0.61078953  0.65105404  0.36071936  1
  H+  H82  1  0.05037472  0.88765254  0.49511565  1
  H+  H83  1  0.26998537  0.13708169  0.34259765  1
  H+  H84  1  0.92514316  0.59750997  0.56316186  1
  H+  H85  1  0.93892244  0.88181249  0.54027761  1
  H+  H86  1  0.61796947  0.47961951  0.00906656  1
  H+  H87  1  0.37131839  0.09794354  0.65739850  1
  H+  H88  1  0.87006491  0.61383481  0.34856030  1
  H+  H89  1  0.61203471  0.22791650  0.49996492  1
  H+  H90  1  0.86765221  0.21692154  0.66601194  1
  H+  H91  1  0.12500688  0.93426824  0.10655447  1
  H+  H92  1  0.61640433  0.65227073  0.67043382  1
  H+  H93  1  0.66193905  0.88689887  0.35059290  1
  H+  H94  1  0.36159845  0.21998018  0.82124826  1
  H+  H95  1  0.36408931  0.04284323  1.02896720  1
  H+  H96  1  0.01213557  0.34019473  0.40478488  1
  H+  H97  1  0.38998719  0.26797578  0.33293859  1
  H+  H98  1  -0.05024369  0.07330729  0.32617943  1
  H+  H99  1  0.12841922  0.26449574  0.16448669  1
  H+  H100  1  0.96657248  0.33522104  0.49078184  1
  H+  H101  1  0.94715291  0.75261997  0.30074668  1
  H+  H102  1  0.87106133  0.31738287  0.49106503  1
  H+  H103  1  0.63540739  0.27471024  0.17441515  1
  H+  H104  1  0.61355618  0.36186319  0.79116142  1
  H+  H105  1  0.87088189  0.13772554  -0.00952630  1
  H+  H106  1  0.13084082  0.35653882  0.99072158  1
  H+  H107  1  0.90345333  0.62909733  0.37322029  1
  H+  H108  1  0.61042345  0.38620556  0.01600226  1
  H+  H109  1  0.62748668  1.02215458  0.51151539  1
  H+  H110  1  0.10589947  0.20747212  1.00081269  1
  H+  H111  1  0.22149002  0.87569252  -0.00053698  1
  H+  H112  1  0.49441921  0.63873750  0.50251591  1
  H+  H113  1  0.13982035  0.11428434  0.83668009  1
  H+  H114  1  0.11657548  0.64620121  0.83865148  1
  H+  H115  1  0.77376203  0.13202490  0.66817171  1
  H+  H116  1  0.88504289  0.27136409  0.83170278  1
  H+  H117  1  0.10743409  0.73872371  0.02032787  1
  H+  H118  1  0.86616313  0.41693463  0.52169569  1
  H+  H119  1  0.01666222  0.12049477  -0.00027353  1
  H+  H120  1  0.66240369  0.15676613  0.99306405  1
  H+  H121  1  0.90369111  0.33643165  0.35244425  1
  H+  H122  1  0.81177041  0.94269670  0.33448800  1
  H+  H123  1  0.64182372  0.77823719  0.98711936  1
  H+  H124  1  0.37573429  0.61579807  0.50734049  1
  H+  H125  1  0.38287413  0.53192303  0.83342548  1
  H+  H126  1  0.65029365  0.32321208  0.70211219  1
  H+  H127  1  0.83879130  0.37720417  0.80880875  1
  H+  H128  1  0.89145054  0.36301370  -0.00938173  1
  H+  H129  1  0.86080469  0.87209640  0.98066637  1
  H+  H130  1  0.37298947  0.25603371  0.66228166  1
  H+  H131  1  0.77022998  0.38903719  0.15923206  1
  H+  H132  1  0.88567683  0.74390922  0.68415131  1
  H+  H133  1  0.87461404  0.78903035  0.98418202  1
  H+  H134  1  0.12118630  0.47241685  0.15998448  1
  H+  H135  1  0.37268936  0.86329912  0.83682433  1
  H+  H136  1  0.56382365  0.40405992  0.09857899  1
  H+  H137  1  0.59310029  0.19789417  0.66781608  1
  H+  H138  1  0.88074248  0.73732238  0.15519494  1
  H+  H139  1  0.12378142  0.86634825  0.84678873  1
  H+  H140  1  0.11354512  0.38543528  0.81123498  1
  H+  H141  1  0.90920633  0.06134869  0.22687837  1
  H+  H142  1  0.14214532  0.77550769  0.48799206  1
  H+  H143  1  0.38666503  0.86010042  0.50794225  1
  H+  H144  1  0.74716858  0.65287583  0.64882839  1
  H+  H145  1  0.75239364  0.09224546  0.14418421  1
  H+  H146  1  0.36147636  0.47616713  0.66525982  1
  H+  H147  1  0.62997048  0.11143102  0.17921983  1
  H+  H148  1  0.66709044  0.42944144  0.67109205  1
  H+  H149  1  0.89149279  -0.02429452  0.14716021  1
  H+  H150  1  0.13425931  0.00350058  0.67401060  1
  H+  H151  1  0.60588342  -0.02618120  0.16186385  1
  H+  H152  1  0.73448543  0.61647084  0.50851271  1
  H+  H153  1  0.24697816  0.15217532  0.17938691  1
  H+  H154  1  0.63536765  0.87708135  0.67104256  1
  H+  H155  1  0.38154333  0.61187310  0.65973359  1
  H+  H156  1  0.65858569  0.83245921  0.57936476  1
  H+  H157  1  0.24286384  0.86716447  0.17961169  1
  H+  H158  1  0.10099794  0.20298916  0.48799531  1
  H+  H159  1  0.60311180  0.72056051  0.83010104  1
  H+  H160  1  0.51343164  0.13145180  0.82834418  1
  H+  H161  1  0.68491329  0.01733271  0.95853051  1
  H+  H162  1  0.26293808  0.36651003  0.16241369  1
  H+  H163  1  0.17190403  0.14104845  0.64442446  1
  H+  H164  1  0.37188674  0.64632846  0.82721120  1
  H+  H165  1  0.72123203  0.10397073  0.50769711  1
  H+  H166  1  0.12154933  0.62881697  0.33621067  1
  H+  H167  1  0.59483022  0.37531844  0.15913251  1
  H+  H168  1  0.07226749  0.65508137  0.42182211  1
  H+  H169  1  0.87985016  0.65238077  0.67367421  1
  H+  H170  1  0.47425376  0.11103735  0.50978220  1
  H+  H171  1  0.21771954  0.34607275  0.48936689  1
  H+  H172  1  -0.01262971  0.84734177  0.32457127  1
  H+  H173  1  0.87387742  -0.00175432  0.49969436  1
  H+  H174  1  0.52809750  0.38641738  0.34686523  1
  H+  H175  1  0.52599035  0.15620450  0.17545211  1
  H+  H176  1  0.22803270  0.11176679  0.83556895  1
  H+  H177  1  0.59465574  0.73604012  0.50892258  1
  H+  H178  1  0.67093955  0.56085960  0.65597093  1
  H+  H179  1  0.26784318  0.63516702  0.67493577  1
  H+  H180  1  0.47994574  0.61259650  0.83637894  1
  H+  H181  1  0.11920359  0.41233670  0.64895910  1
  H+  H182  1  0.10363943  0.63770015  0.48606182  1
  H+  H183  1  0.54173409  0.89227494  0.35822933  1
  H+  H184  1  0.60458718  0.88779980  0.50963714  1
  H+  H185  1  0.70692696  0.85355178  0.51396985  1
  H+  H186  1  0.54846923  0.06459095  0.04031164  1
  H+  H187  1  0.71807526  0.64126539  0.36209415  1
  H+  H188  1  0.87626577  0.87726027  0.79974676  1
  H+  H189  1  0.87328421  0.52267332  0.15515724  1
  H+  H190  1  0.10427769  0.11612576  0.49171407  1
  H+  H191  1  0.61592996  0.16155241  0.82392957  1
  H+  H192  1  0.45941767  0.86177294  0.28933596  1
  H+  H193  1  0.06633917  0.07600951  0.67408703  1
  H+  H194  1  0.12479677  0.33425112  0.47639173  1
  H+  H195  1  0.73762139  0.61970661  0.84369098  1
  H+  H196  1  0.75870680  0.23238113  0.84563120  1
  H+  H197  1  0.37505086  0.01895738  0.85230272  1
  H+  H198  1  0.23156226  0.39478596  0.63561055  1
  H+  H199  1  0.26485450  0.40206060  0.82095774  1
  H+  H200  1  0.47869256  0.62152753  0.33359696  1
  H+  H201  1  0.40937732  0.83373315  0.89233964  1
  H+  H202  1  0.23866993  0.60272219  0.33123484  1
  H+  H203  1  0.46259368  0.84408563  -0.00893563  1
  H+  H204  1  0.02262369  0.64750748  0.01501933  1
  H+  H205  1  0.36734738  -0.02728978  0.49685686  1
  H+  H206  1  0.45639348  0.34812442  0.67005018  1
  H+  H207  1  0.66142018  1.02311026  -0.01526282  1
  H+  H208  1  0.42079891  0.32229278  0.27209312  1
  H+  H209  1  0.48666418  0.85792955  0.16268509  1
  H+  H210  1  0.86222342  0.08435340  0.65309266  1
  H+  H211  1  0.64017270  0.61167702  -0.00476316  1
  H+  H212  1  0.14453024  0.95661503  -0.00096633  1
  H+  H213  1  0.36383849  0.22425155  0.49713230  1
  H+  H214  1  0.99658698  0.40917169  0.18346257  1
  H+  H215  1  0.47920673  0.37409154  0.98946317  1
  H+  H216  1  0.38634641  0.76629023  0.65733937  1
  H+  H217  1  0.47550363  0.36397453  0.51360033  1
  H+  H218  1  0.13242112  0.62564081  0.99969515  1
  H+  H219  1  0.78602520  0.64793926  0.14398397  1
  H+  H220  1  0.97443240  0.62283876  0.49804142  1
  H+  H221  1  0.37000868  0.21416155  0.08920641  1
  H+  H222  1  0.26470918  0.62611626  -0.00645354  1
  H+  H223  1  0.76943441  0.12498730  0.34128464  1
  H+  H224  1  0.11331316  0.98099146  0.83267179  1
  H+  H225  1  0.46769440  0.35779330  0.83466908  1
  H+  H226  1  0.75263229  0.37565144  0.78930789  1
  H+  H227  1  0.57508102  0.15964960  0.11303311  1
  H+  H228  1  0.64125522  0.52364539  0.14641210  1
  H+  H229  1  0.66958807  0.59695671  0.30080201  1
  H+  H230  1  0.67092992  0.59124341  0.56817007  1
  H+  H231  1  0.82413891  0.85809529  0.49576520  1
  H+  H232  1  0.62080631  0.74509291  0.35627056  1
  H+  H233  1  0.85942122  0.19571452  0.49480757  1
  H+  H234  1  0.08493029  0.42009503  0.71606690  1
  H+  H235  1  0.38447257  0.11183521  0.33652341  1
  H+  H236  1  0.84535860  0.75074278  0.35742078  1
  H+  H237  1  0.12384513  0.62980048  0.16887182  1
  H+  H238  1  0.72377287  0.50384854  0.71593760  1
  H+  H239  1  0.24161339  0.61591338  0.84214562  1
  H+  H240  1  0.21821697  0.35549034  -0.01072212  1
  H+  H241  1  0.11263065  0.47318491  0.80547162  1
  H+  H242  1  0.14199356  0.91908336  0.68438690  1
  H+  H243  1  0.88757790  0.53027182  -0.00517294  1
  H+  H244  1  0.35833453  0.12995212  0.82404704  1
  H+  H245  1  1.02297875  0.38820741  1.00280612  1
  H+  H246  1  0.78829079  0.14003206  0.81926462  1
  H+  H247  1  0.91474683  0.87880925  0.70395008  1
  H+  H248  1  0.16542804  1.05576451  0.17038375  1
  H+  H249  1  0.85294160  0.73257155  0.52324641  1
  H+  H250  1  0.35397495  0.86706097  -0.00916666  1
  H+  H251  1  0.59615161  0.88859524  0.82269197  1
  H+  H252  1  0.05713665  0.91067841  0.15909329  1
  H+  H253  1  0.92495813  0.24214667  0.18513798  1
  H+  H254  1  0.41294632  0.17162841  0.19134463  1
  H+  H255  1  0.73054505  0.87565944  -0.01774108  1
  H+  H256  1  0.64930546  0.62241800  0.84149042  1
  H+  H257  1  -0.03301235  0.08607134  0.50258780  1
  H+  H258  1  0.51501042  0.89816738  0.81615906  1
  H+  H259  1  0.77781808  0.64088617  0.00427671  1
  H+  H260  1  0.78898224  0.93895836  0.65908183  1
  H+  H261  1  0.52144933  0.63191687  1.00074953  1
  H+  H262  1  -0.02567472  0.86421833  0.84163728  1
  H+  H263  1  0.85338488  0.10411812  0.49448025  1
  H+  H264  1  0.27930373  0.88110857  0.49028175  1
  H+  H265  1  0.98786936  0.62311876  0.65943926  1
  H+  H266  1  0.64158335  0.61127702  0.14776849  1
  H+  H267  1  0.86703787  0.08160645  0.32401007  1
  H+  H268  1  0.47643065  0.11754585  0.33496478  1
  H+  H269  1  0.37362181  0.75696971  -0.02032803  1
  H+  H270  1  0.40900268  0.87929109  0.34416758  1
  H+  H271  1  0.63699011  0.26332510  1.01394245  1
  H+  H272  1  -0.01773138  0.08226088  0.67456301  1
  H+  H273  1  0.02759674  0.13143539  0.82284202  1
  H+  H274  1  0.97611494  0.10642418  0.17104589  1
  H+  H275  1  0.16081462  0.50575599  0.31964168  1
  H+  H276  1  0.61420642  0.39036692  0.50360180  1
  H+  H277  1  0.10930900  0.97747225  0.33321700  1
  H+  H278  1  0.36059576  0.38308038  0.49858478  1
  H+  H279  1  0.98081589  0.36120252  0.65338126  1
  H+  H280  1  0.77885844  0.38879277  0.00987642  1
  H+  H281  1  0.36122718  0.73027456  0.49682547  1
  H+  H282  1  0.38498866  0.25300954  0.01971343  1
  H+  H283  1  0.22559087  0.11081476  0.50623208  1
  H+  H284  1  0.86911436  0.38245426  0.65740723  1
  H+  H285  1  0.35472339  0.46903047  0.49739255  1
  H+  H286  1  0.45218510  0.08351956  0.65955038  1
  H+  H287  1  0.12918266  0.53462135  0.65974701  1
  H+  H288  1  0.64205230  0.37165476  0.32988745  1
  H+  H289  1  0.07852524  0.41458214  0.10003727  1
  H+  H290  1  0.07984310  0.15348673  0.76275403  1
  H+  H291  1  0.18030489  0.57176250  0.23780222  1
  H+  H292  1  0.81523056  0.89034312  0.75101448  1
  H+  H293  1  0.58146207  0.67027532  0.05888025  1
  H+  H294  1  0.35504453  0.92057356  0.40542441  1
  H+  H295  1  0.84597010  0.68036010  0.05874431  1
  H+  H296  1  0.82239788  0.38649083  0.41567780  1
  H+  H297  1  0.12537455  0.84525828  0.32941894  1
  H+  H298  1  0.15799301  0.32895766  0.89237860  1
  H+  H299  1  0.90243686  0.01332495  0.81479968  1
  H+  H300  1  0.32118890  0.43163301  0.76040271  1
  H+  H301  1  0.93104710  0.36071004  0.23660344  1
  H+  H302  1  0.30425905  0.91513487  0.77756545  1
  H+  H303  1  0.32821961  0.16483825  0.40348725  1
  H+  H304  1  0.59757603  0.92755943  0.41816710  1
  H+  H305  1  0.93563734  0.82852076  0.22653034  1
  H+  H306  1  0.32827256  0.15611502  0.72588195  1
  H+  H307  1  0.71473469  0.35223455  0.90429712  1
  H+  H308  1  0.18539240  0.53044287  0.87882842  1
  H+  H309  1  0.90097962  0.53091548  0.65343390  1
  H+  H310  1  0.67222283  0.58402206  0.93640303  1
  H+  H311  1  0.80742157  0.92221115  0.04583325  1
  H+  H312  1  0.47383289  0.61824912  0.65839831  1
  H+  H313  1  0.36285212  0.13425905  0.49593993  1
  H+  H314  1  0.83130046  0.14718867  0.05271477  1
  H+  H315  1  0.84907002  0.67329632  0.77370302  1
  H+  H316  1  0.91889526  0.07312208  0.92308364  1
  H+  H317  1  0.40844378  0.07375400  0.56668525  1
  H+  H318  1  0.83595332  0.41341493  0.71469107  1
  H+  H319  1  0.32286116  -0.04224440  0.67430786  1
  H+  H320  1  0.26281950  0.69958745  0.10940445  1
  H+  H321  1  0.92384536  0.59834669  0.91423691  1
  H+  H322  1  0.42066102  0.57735759  0.92859739  1
  H+  H323  1  0.08564070  0.92391106  0.39525986  1
  H+  H324  1  0.89632560  0.63256433  0.84718480  1
  H+  H325  1  1.00322825  0.59191454  0.29502299  1
  H+  H326  1  0.84220191  0.42323771  0.06392398  1
  H+  H327  1  0.56856844  0.68108038  0.44234900  1
  H+  H328  1  0.41215050  0.32824897  0.57093712  1
  H+  H329  1  0.15984324  0.06089007  0.93024412  1
  H+  H330  1  0.89498115  0.32377928  0.89246826  1
  H+  H331  1  0.34501674  0.42088197  0.40022763  1
  H+  H332  1  0.08164255  0.20911230  0.33891774  1
  H+  H333  1  0.93427091  0.58090137  0.21397858  1
  H+  H334  1  0.84001178  0.15462782  0.75764531  1
  H+  H335  1  0.12700637  -0.01336114  0.49508564  1
  H+  H336  1  0.89716823  0.24463631  0.34715887  1
  H+  H337  1  0.58969286  0.66817158  0.76791607  1
  H+  H338  1  0.03973849  0.35019517  0.31208014  1
  H+  H339  1  0.40939931  0.58745121  0.56766456  1
  H+  H340  1  0.16621944  0.60466343  0.60655359  1
  H+  H341  1  0.41271084  0.32228376  0.89469491  1
  H+  H342  1  0.41012398  0.57100111  0.24358470  1
  H+  H343  1  0.09046577  0.68390699  0.73972909  1
  H+  H344  1  0.09386314  0.66630483  0.11317425  1
  H+  H345  1  0.70490704  0.17203887  0.89742025  1
  H+  H346  1  0.32818383  0.41139668  0.06290914  1
  H+  H347  1  0.74818428  0.71482219  0.24565383  1
  H+  H348  1  0.91917093  0.31876582  0.59600906  1
  H+  H349  1  0.16832673  0.82341486  0.27385570  1
  H+  H350  1  0.42699002  0.11505320  0.24326769  1
  H+  H351  1  0.61468409  0.88907141  0.16793071  1
  H+  H352  1  0.66545360  0.07923368  0.60074424  1
  H+  H353  1  0.82416951  0.13613270  0.40233631  1
  H+  H354  1  0.40564188  0.08416197  0.90908637  1
  H+  H355  1  0.17250143  0.80552960  0.68257338  1
  H+  H356  1  0.76042284  0.68050261  0.24502548  1
  H+  H357  1  0.17090693  0.35927781  0.57625921  1
  H+  H358  1  0.33064249  0.66295650  0.73263154  1
  H+  H359  1  0.15778365  0.59538619  0.93801100  1
  H+  H360  1  0.56495010  0.89108905  0.06645433  1
  H+  H361  1  0.41437939  0.82551760  0.56797830  1
  H+  H362  1  0.13517789  0.27275977  0.83171305  1
  H+  H363  1  0.58284159  0.45182228  0.76298416  1
  H+  H364  1  0.81849289  0.70838803  0.42390862  1
  H+  H365  1  0.71265086  0.39296349  0.90349798  1
  H+  H366  1  0.17128747  0.08188057  0.56985795  1
  H+  H367  1  0.89805236  0.83903052  0.60175088  1
  H+  H368  1  0.67455179  0.84969922  0.24599794  1
  H+  H369  1  0.08858848  0.92666748  0.77198496  1
  H+  H370  1  0.47505048  0.85451670  0.65612324  1
  H+  H371  1  0.66580349  0.34173991  0.22923808  1
  H+  H372  1  0.06477310  0.14824958  0.39691131  1
  H+  H373  1  0.86602303  0.65162722  0.50480485  1
  H+  H374  1  0.91057344  0.93736156  0.08810874  1
  H+  H375  1  0.37293101  0.73182829  0.34552290  1
  H+  H376  1  0.58159965  0.91790519  0.73242348  1
  H+  H377  1  0.58750185  0.17428750  0.40282139  1
  H+  H378  1  0.90403505  0.83875751  0.89683969  1
  H+  H379  1  0.32743408  0.65937715  0.04866554  1
  H+  H380  1  0.14301579  0.32122503  0.25831512  1
  H+  H381  1  0.33006252  0.66938822  0.43699044  1
  H+  H382  1  0.33433880  0.91135437  0.08892313  1
  H+  H383  1  0.58592813  0.41877707  0.44172200  1
  O2-  O384  1  0.07956819  0.16444351  0.14074437  1
  O2-  O385  1  0.06903166  0.14108859  0.47547626  1
  O2-  O386  1  0.08823438  0.16510174  0.80731838  1
  O2-  O387  1  0.08021529  0.41250257  0.14554963  1
  O2-  O388  1  0.04850001  0.36573798  0.44208523  1
  O2-  O389  1  0.08583458  0.41439773  0.78989128  1
  O2-  O390  1  0.10577132  0.67143439  0.15714525  1
  O2-  O391  1  0.07007463  0.66185439  0.46718286  1
  O2-  O392  1  0.08439497  0.67443778  0.82597700  1
  O2-  O393  1  0.11246927  0.95674703  0.14340739  1
  O2-  O394  1  0.10225871  0.92775659  0.47353621  1
  O2-  O395  1  0.08162446  0.91965125  0.81707810  1
  O2-  O396  1  0.36244442  0.22476731  0.16454362  1
  O2-  O397  1  0.33253365  0.16468274  0.48067016  1
  O2-  O398  1  0.32948710  0.15880233  0.80495556  1
  O2-  O399  1  0.32603029  0.39379371  0.15081041  1
  O2-  O400  1  0.32896106  0.41034886  0.48045602  1
  O2-  O401  1  0.32274618  0.44292663  0.80462645  1
  O2-  O402  1  0.30368748  0.68077893  0.12014591  1
  O2-  O403  1  0.32695945  0.66776563  0.48254481  1
  O2-  O404  1  0.33533509  0.67037628  0.81214514  1
  O2-  O405  1  0.34235438  0.91892710  0.13310671  1
  O2-  O406  1  0.34342349  0.91326150  0.48066872  1
  O2-  O407  1  0.31467434  0.91671123  0.82228195  1
  O2-  O408  1  0.58592839  0.17461676  0.15679462  1
  O2-  O409  1  0.58392131  0.16983653  0.48143032  1
  O2-  O410  1  0.56633909  0.16269175  0.80323984  1
  O2-  O411  1  0.55794403  0.39895202  0.14445350  1
  O2-  O412  1  0.58778305  0.42426804  0.48752741  1
  O2-  O413  1  0.57816597  0.43371136  0.80548271  1
  O2-  O414  1  0.58383799  0.66178063  0.18258802  1
  O2-  O415  1  0.56126795  0.67596551  0.48865725  1
  O2-  O416  1  0.58979165  0.66324235  0.81317009  1
  O2-  O417  1  0.57995851  0.91244042  0.14804290  1
  O2-  O418  1  0.57819348  0.91986173  0.49136744  1
  O2-  O419  1  0.57542167  0.92393466  0.80207984  1
  O2-  O420  1  0.79510580  0.09060158  0.11708477  1
  O2-  O421  1  0.82369901  0.13609422  0.47967828  1
  O2-  O422  1  0.84541107  0.15523707  0.80305321  1
  O2-  O423  1  0.82987070  0.42192043  0.14223072  1
  O2-  O424  1  0.83268373  0.42987910  0.49302579  1
  O2-  O425  1  0.81597410  0.40868391  0.78545696  1
  O2-  O426  1  0.84947023  0.67674615  0.13694163  1
  O2-  O427  1  0.82902479  0.67874136  0.49856659  1
  O2-  O428  1  0.84826828  0.67263236  0.81908544  1
  O2-  O429  1  0.87874104  0.92060672  0.12632832  1
  O2-  O430  1  0.79975219  0.89177204  0.47854065  1
  O2-  O431  1  0.87425331  0.91398831  0.76608478  1
  O2-  O432  1  0.18533641  0.11359513  0.18964702  1
  O2-  O433  1  0.16552892  0.07737310  0.52178526  1
  O2-  O434  1  0.16808682  0.08206276  0.85232203  1
  O2-  O435  1  0.16066581  0.32477445  0.18193767  1
  O2-  O436  1  0.15547942  0.31180031  0.50050184  1
  O2-  O437  1  0.15996802  0.33287613  0.84711972  1
  O2-  O438  1  0.17384893  0.56881939  0.19236290  1
  O2-  O439  1  0.16702089  0.60053493  0.52425694  1
  O2-  O440  1  0.18175183  0.57783572  0.86016931  1
  O2-  O441  1  0.18723350  0.83384421  0.20076361  1
  O2-  O442  1  0.17992169  0.83320004  0.50529964  1
  O2-  O443  1  0.15148895  0.83518754  0.86692130  1
  O2-  O444  1  0.44060821  0.13650434  0.20069875  1
  O2-  O445  1  0.41251060  0.07945688  0.52117951  1
  O2-  O446  1  0.41108740  0.08061672  0.86477444  1
  O2-  O447  1  0.40566212  0.31600761  0.18464988  1
  O2-  O448  1  0.41412612  0.33131737  0.52545393  1
  O2-  O449  1  0.41036753  0.31550319  0.84983576  1
  O2-  O450  1  0.41033007  0.56455364  0.19750217  1
  O2-  O451  1  0.40973679  0.58785530  0.52136903  1
  O2-  O452  1  0.42092055  0.59135871  0.85265603  1
  O2-  O453  1  0.42037567  0.82205167  0.16906768  1
  O2-  O454  1  0.41542506  0.82656733  0.52130556  1
  O2-  O455  1  0.40739398  0.83559633  0.84687358  1
  O2-  O456  1  0.65533299  0.07485346  0.19009894  1
  O2-  O457  1  0.66233986  0.08446864  0.52371889  1
  O2-  O458  1  0.70790859  0.17428017  0.85145670  1
  O2-  O459  1  0.66408804  0.33881620  0.18384307  1
  O2-  O460  1  0.66057031  0.33564462  0.53176708  1
  O2-  O461  1  0.63798807  0.32664873  0.77501521  1
  O2-  O462  1  0.67688824  0.58524959  0.13740202  1
  O2-  O463  1  0.67043275  0.58125149  0.52169810  1
  O2-  O464  1  0.67685209  0.58958036  0.85778546  1
  O2-  O465  1  0.66485144  0.84497950  0.20171479  1
  O2-  O466  1  0.64875487  0.82631755  0.53393786  1
  O2-  O467  1  0.59946852  0.80305653  0.86392635  1
  O2-  O468  1  0.91462431  0.06667776  0.18196481  1
  O2-  O469  1  0.90572241  0.05701268  0.51731731  1
  O2-  O470  1  0.92244478  0.06628083  0.83917512  1
  O2-  O471  1  0.94988410  0.40936113  0.20899083  1
  O2-  O472  1  0.91100212  0.30667858  0.51412658  1
  O2-  O473  1  0.87459091  0.31577284  0.84957965  1
  O2-  O474  1  0.91202043  0.58445555  0.16896690  1
  O2-  O475  1  0.91560253  0.59636851  0.51803540  1
  O2-  O476  1  0.92787674  0.60265584  0.86636096  1
  O2-  O477  1  0.93971226  0.83132080  0.18153554  1
  O2-  O478  1  0.88694831  0.83286358  0.55628568  1
  O2-  O479  1  0.91144825  0.83082120  0.85055172  1
  O2-  O480  1  0.16555285  0.08551756  0.31169174  1
  O2-  O481  1  0.18123848  0.09289069  0.63655047  1
  O2-  O482  1  0.15398193  0.04579662  0.97416095  1
  O2-  O483  1  0.13092176  0.32174224  0.30316973  1
  O2-  O484  1  0.18726750  0.39893051  0.61120408  1
  O2-  O485  1  0.15823858  0.32478155  0.97376608  1
  O2-  O486  1  0.17951341  0.56709057  0.31393406  1
  O2-  O487  1  0.16414474  0.59864068  0.65148095  1
  O2-  O488  1  0.15850744  0.59184038  0.98285300  1
  O2-  O489  1  0.14944631  0.80890607  0.31759070  1
  O2-  O490  1  0.20217919  0.86807077  0.67199206  1
  O2-  O491  1  0.15839793  0.85112903  0.99129683  1
  O2-  O492  1  0.41659804  0.08451628  0.31948061  1
  O2-  O493  1  0.39283325  0.05846426  0.64326342  1
  O2-  O494  1  0.40331418  0.09132684  1.00343358  1
  O2-  O495  1  0.42602020  0.32830553  0.31659929  1
  O2-  O496  1  0.40141505  0.31963674  0.64903952  1
  O2-  O497  1  0.41919764  0.33955754  0.97445830  1
  O2-  O498  1  0.41960967  0.58730505  0.31703918  1
  O2-  O499  1  0.41449313  0.58544357  0.64153667  1
  O2-  O500  1  0.41945165  0.57562700  0.97449053  1
  O2-  O501  1  0.44126317  0.84402592  0.33107059  1
  O2-  O502  1  0.41633019  0.82469325  0.63909931  1
  O2-  O503  1  0.40404328  0.81974460  0.96996678  1
  O2-  O504  1  0.66829387  0.08443808  0.31730631  1
  O2-  O505  1  0.66705640  0.07672928  0.64631370  1
  O2-  O506  1  0.71601742  0.19174857  0.97075565  1
  O2-  O507  1  0.66758364  0.33931694  0.31014049  1
  O2-  O508  1  0.66725349  0.32837182  0.65746141  1
  O2-  O509  1  0.66019086  0.32158235  1.03005447  1
  O2-  O510  1  0.65968393  0.59338175  0.34464341  1
  O2-  O511  1  0.68616392  0.61686382  0.63558509  1
  O2-  O512  1  0.67154865  0.58179065  0.98192058  1
  O2-  O513  1  0.68690047  0.85184352  0.33139164  1
  O2-  O514  1  0.66615413  0.84173897  0.65408552  1
  O2-  O515  1  0.66167423  0.83616173  0.97060208  1
  O2-  O516  1  0.89024167  0.04445597  0.30960325  1
  O2-  O517  1  0.87453388  0.03807074  0.64013289  1
  O2-  O518  1  0.91537316  0.07724568  0.96775679  1
  O2-  O519  1  0.93898660  0.30909869  0.34591086  1
  O2-  O520  1  0.91837634  0.32288821  0.64072288  1
  O2-  O521  1  0.92345178  0.33631893  0.97317649  1
  O2-  O522  1  0.95452051  0.55188793  0.26750374  1
  O2-  O523  1  0.92891316  0.59287668  0.64162747  1
  O2-  O524  1  0.91924943  0.59177927  0.98109260  1
  O2-  O525  1  0.93297566  0.79799151  0.30606715  1
  O2-  O526  1  0.93548146  0.85260807  0.67298726  1
  O2-  O527  1  0.89579323  0.84524724  0.96467029  1
  O2-  O528  1  0.07609172  0.14842027  0.01763524  1
  O2-  O529  1  0.06035911  0.14898146  0.35148001  1
  O2-  O530  1  0.04260830  0.11110695  0.68900185  1
  O2-  O531  1  0.08241218  0.41771872  0.02099812  1
  O2-  O532  1  0.10259912  0.38575036  0.30454447  1
  O2-  O533  1  0.07985058  0.42873424  0.67111207  1
  O2-  O534  1  0.08297478  0.67692071  0.02998938  1
  O2-  O535  1  0.08083766  0.64905763  0.34512499  1
  O2-  O536  1  0.09535574  0.69084212  0.69508034  1
  O2-  O537  1  0.13455453  0.90576754  0.02617713  1
  O2-  O538  1  0.07900951  0.91788533  0.35033207  1
  O2-  O539  1  0.10500976  0.94415596  0.69393420  1
  O2-  O540  1  0.36910746  0.20080634  0.04476779  1
  O2-  O541  1  0.33055524  0.16632489  0.35787667  1
  O2-  O542  1  0.33198585  0.15930217  0.68044253  1
  O2-  O543  1  0.32692311  0.41189219  0.01802370  1
  O2-  O544  1  0.35446455  0.43092928  0.35572601  1
  O2-  O545  1  0.32229709  0.41652314  0.67987300  1
  O2-  O546  1  0.32716017  0.65213245  0.00368937  1
  O2-  O547  1  0.33942917  0.67069324  0.35902821  1
  O2-  O548  1  0.32939029  0.65992902  0.68732020  1
  O2-  O549  1  0.32783720  0.90441972  0.00176669  1
  O2-  O550  1  0.36410708  0.92086640  0.36037830  1
  O2-  O551  1  0.28824719  0.90324199  0.69848788  1
  O2-  O552  1  0.55664044  0.12227446  0.03609195  1
  O2-  O553  1  0.58771540  0.17125980  0.35732950  1
  O2-  O554  1  0.56337863  0.13823446  0.68268339  1
  O2-  O555  1  0.58090117  0.41912938  0.02441968  1
  O2-  O556  1  0.58728579  0.41767426  0.36515554  1
  O2-  O557  1  0.67144978  0.48082522  0.69155686  1
  O2-  O558  1  0.58307276  0.66348202  0.01505661  1
  O2-  O559  1  0.58174387  0.68495659  0.37087979  1
  O2-  O560  1  0.58069615  0.67388487  0.68903583  1
  O2-  O561  1  0.55009569  0.87513584  0.02337476  1
  O2-  O562  1  0.60311544  0.92728228  0.37236947  1
  O2-  O563  1  0.58634701  0.91443245  0.68587482  1
  O2-  O564  1  0.84714844  0.17179213  0.01048979  1
  O2-  O565  1  0.82907249  0.14424424  0.35701421  1
  O2-  O566  1  0.83511292  0.15599248  0.68047498  1
  O2-  O567  1  0.84095796  0.42407646  0.01853874  1
  O2-  O568  1  0.81270461  0.35328379  0.37745191  1
  O2-  O569  1  0.83951177  0.41537315  0.66823316  1
  O2-  O570  1  0.84077647  0.67417354  0.01353910  1
  O2-  O571  1  0.79645638  0.72084456  0.38635607  1
  O2-  O572  1  0.84851895  0.68029272  0.69072523  1
  O2-  O573  1  0.81395441  0.92148460  0.00185955  1
  O2-  O574  1  0.77416218  0.88632477  0.35615106  1
  O2-  O575  1  0.75338222  0.88123802  0.67961117  1
