# generated using pymatgen
data_H2O
_symmetry_space_group_name_H-M   'P 1'
_cell_length_a   17.99052456
_cell_length_b   17.98842819
_cell_length_c   22.01206943
_cell_angle_alpha   89.97872710
_cell_angle_beta   90.01663242
_cell_angle_gamma   120.01091522
_symmetry_Int_Tables_number   1
_chemical_formula_structural   H2O
_chemical_formula_sum   'H384 O192'
_cell_volume   6168.51660079
_cell_formula_units_Z   192
loop_
 _symmetry_equiv_pos_site_id
 _symmetry_equiv_pos_as_xyz
  1  'x, y, z'
loop_
 _atom_type_symbol
 _atom_type_oxidation_number
  H+  1.0
  O2-  -2.0
loop_
 _atom_site_type_symbol
 _atom_site_label
 _atom_site_symmetry_multiplicity
 _atom_site_fract_x
 _atom_site_fract_y
 _atom_site_fract_z
 _atom_site_occupancy
  H+  H0  1  0.85346410  0.16910902  0.13752753  1
  H+  H1  1  0.37920627  0.26636134  0.84678363  1
  H+  H2  1  0.98309408  0.86746267  1.01552859  1
  H+  H3  1  0.96037661  0.59190106  0.50846010  1
  H+  H4  1  0.52565524  0.88999251  0.83531777  1
  H+  H5  1  0.52008704  0.63347083  0.68195235  1
  H+  H6  1  0.38283919  0.27891325  0.65109358  1
  H+  H7  1  0.85834665  0.64537418  0.02457442  1
  H+  H8  1  0.47232321  0.11049535  0.65857290  1
  H+  H9  1  0.51149118  0.38724744  0.82690903  1
  H+  H10  1  0.71110599  0.35153084  0.03090396  1
  H+  H11  1  0.85761635  0.97074944  0.67150489  1
  H+  H12  1  0.35614985  0.11794271  0.49155210  1
  H+  H13  1  0.36951174  0.73710802  0.14715439  1
  H+  H14  1  0.93557192  0.08782576  0.48567438  1
  H+  H15  1  0.71698649  0.14627933  0.31314170  1
  H+  H16  1  0.27080345  0.63522486  0.67381585  1
  H+  H17  1  0.10358005  0.70552568  0.34478335  1
  H+  H18  1  0.13358669  0.52535811  0.98964784  1
  H+  H19  1  0.46690732  0.11950914  0.32325855  1
  H+  H20  1  0.86044630  0.36587607  0.32054520  1
  H+  H21  1  0.85616896  0.35462473  0.50908981  1
  H+  H22  1  0.39053386  0.77540639  0.84136225  1
  H+  H23  1  0.09414790  0.93312802  0.07374823  1
  H+  H24  1  0.01294107  0.88044284  0.68068698  1
  H+  H25  1  0.59645288  0.47806639  0.82279500  1
  H+  H26  1  -0.10507646  0.53338739  0.17065346  1
  H+  H27  1  0.13158541  0.58641266  0.51179100  1
  H+  H28  1  0.01725472  0.38135952  0.82685121  1
  H+  H29  1  0.61166092  0.39084668  0.16055331  1
  H+  H30  1  0.27187475  0.38769636  0.83424736  1
  H+  H31  1  0.64153328  0.25718760  0.85281979  1
  H+  H32  1  0.15724780  0.60570403  0.83295409  1
  H+  H33  1  0.06947105  0.16650235  0.50833673  1
  H+  H34  1  0.35783670  0.38413605  0.67553653  1
  H+  H35  1  0.37246093  0.85659983  0.50777757  1
  H+  H36  1  0.67569465  0.93094428  0.33166680  1
  H+  H37  1  0.65275605  1.00624874  0.33029048  1
  H+  H38  1  0.50805561  0.11998328  0.99339067  1
  H+  H39  1  0.24024408  0.37851861  1.01301857  1
  H+  H40  1  0.06170711  0.66737077  0.91389590  1
  H+  H41  1  0.64241740  0.51306867  0.65295380  1
  H+  H42  1  0.96983731  0.10805693  0.65460196  1
  H+  H43  1  0.47495334  0.86214058  -0.00911113  1
  H+  H44  1  0.72263030  0.62636319  0.50038958  1
  H+  H45  1  0.39920034  0.77403682  0.32157793  1
  H+  H46  1  0.84353606  0.67079007  0.39836730  1
  H+  H47  1  0.11622592  0.63968330  0.64355703  1
  H+  H48  1  0.10734054  0.38099569  0.67417157  1
  H+  H49  1  0.96918741  0.36880326  0.98783951  1
  H+  H50  1  0.15347937  0.11306001  -0.00579960  1
  H+  H51  1  0.22181154  0.35731407  0.67627669  1
  H+  H52  1  0.60907478  0.72931733  0.15120992  1
  H+  H53  1  0.88095455  0.75635940  0.02781054  1
  H+  H54  1  0.59879700  0.87342380  0.50389328  1
  H+  H55  1  0.10419346  0.84883681  0.36708476  1
  H+  H56  1  0.24259624  0.11578344  0.99793100  1
  H+  H57  1  0.86186211  0.10835871  -0.00584664  1
  H+  H58  1  0.88643203  0.52532276  0.66071464  1
  H+  H59  1  0.85103971  0.72736369  0.82706995  1
  H+  H60  1  0.24529748  0.39187723  0.32118495  1
  H+  H61  1  0.77073880  0.89221881  0.82849193  1
  H+  H62  1  0.28570748  0.63393245  0.82806708  1
  H+  H63  1  0.87517298  0.28422094  0.15940728  1
  H+  H64  1  0.36277214  0.14036331  0.66553982  1
  H+  H65  1  0.12590281  0.99768418  0.16720125  1
  H+  H66  1  0.87990891  0.86285914  0.83674379  1
  H+  H67  1  0.87795182  0.28046397  0.98533540  1
  H+  H68  1  0.37726987  0.40909325  0.33511532  1
  H+  H69  1  0.48020741  0.11652312  0.50196502  1
  H+  H70  1  0.09127308  0.46326487  0.48829813  1
  H+  H71  1  0.46987801  0.36833327  0.65600983  1
  H+  H72  1  0.88800346  0.85088513  0.17052835  1
  H+  H73  1  0.23163188  0.10415224  0.50876891  1
  H+  H74  1  0.62771384  0.61660961  0.83937458  1
  H+  H75  1  0.13142336  0.86138496  0.66798540  1
  H+  H76  1  0.71651067  0.85297533  0.16652471  1
  H+  H77  1  0.04361978  0.15742501  0.35551074  1
  H+  H78  1  0.85013242  0.47844219  1.01027293  1
  H+  H79  1  0.11757244  0.73275651  0.99588138  1
  H+  H80  1  0.87985153  0.25135114  0.31205048  1
  H+  H81  1  0.36823237  0.39938857  0.16387581  1
  H+  H82  1  0.17288324  0.57199630  0.60314539  1
  H+  H83  1  0.87473690  0.40208488  0.16073979  1
  H+  H84  1  0.62373178  0.26180786  0.02489989  1
  H+  H85  1  0.94648777  0.36184499  0.49993563  1
  H+  H86  1  0.60896292  0.12715361  0.81844211  1
  H+  H87  1  0.15895736  0.07475821  0.60502574  1
  H+  H88  1  0.85794609  -0.04916338  0.14662328  1
  H+  H89  1  0.12663996  0.01600950  0.66557718  1
  H+  H90  1  0.38655277  0.61631317  0.51886690  1
  H+  H91  1  0.62546753  0.48303751  0.15511204  1
  H+  H92  1  0.37997913  0.02463776  0.66058076  1
  H+  H93  1  1.01760985  0.37290771  0.33129580  1
  H+  H94  1  0.53577924  0.40600327  0.32519667  1
  H+  H95  1  0.88502711  0.27706350  0.83573093  1
  H+  H96  1  0.14836458  0.13262132  0.17786233  1
  H+  H97  1  0.88763320  0.60662959  0.32755332  1
  H+  H98  1  0.70414888  0.09757743  0.51235018  1
  H+  H99  1  0.76121948  0.87049267  0.33998841  1
  H+  H100  1  0.46419271  0.10470631  0.17211660  1
  H+  H101  1  0.70972502  0.10400786  0.66851487  1
  H+  H102  1  0.96667836  0.86075309  0.83882575  1
  H+  H103  1  0.57210305  0.89243206  0.77401305  1
  H+  H104  1  0.62601086  0.26496814  0.66693120  1
  H+  H105  1  0.11321779  0.89799073  0.83660230  1
  H+  H106  1  0.14428730  0.61040796  0.16329569  1
  H+  H107  1  0.76382687  0.87275511  0.00042005  1
  H+  H108  1  0.36474735  0.13008869  0.82912477  1
  H+  H109  1  0.11538351  0.73902663  0.47609471  1
  H+  H110  1  0.90895856  0.58550150  0.57088186  1
  H+  H111  1  0.72123840  0.35365758  0.30364309  1
  H+  H112  1  0.63022326  0.85939535  0.16508880  1
  H+  H113  1  0.12915295  0.77905480  0.49459955  1
  H+  H114  1  0.12382716  0.24947844  0.16006935  1
  H+  H115  1  0.37926543  0.17065469  0.03121059  1
  H+  H116  1  0.77851590  0.08334945  0.34928514  1
  H+  H117  1  0.59930555  0.38094878  1.01389847  1
  H+  H118  1  0.63153139  0.53771784  0.50309188  1
  H+  H119  1  0.22790590  0.86757943  0.16340303  1
  H+  H120  1  0.61882760  0.51732774  0.98847326  1
  H+  H121  1  0.00677126  0.11795576  0.83020789  1
  H+  H122  1  0.51080378  0.63618329  0.15190185  1
  H+  H123  1  0.02628198  0.52090899  0.46336653  1
  H+  H124  1  0.01596581  0.61778644  0.33631101  1
  H+  H125  1  0.35291168  0.72058543  0.50712537  1
  H+  H126  1  0.39656813  0.53611375  0.16521904  1
  H+  H127  1  0.84767239  0.47701331  0.83076180  1
  H+  H128  1  0.87473981  0.72523932  0.33684655  1
  H+  H129  1  0.38543856  0.87132257  0.16331033  1
  H+  H130  1  0.51846963  0.12517157  0.82448535  1
  H+  H131  1  0.82218413  0.66386713  0.76890045  1
  H+  H132  1  0.38473569  0.77283024  0.99101671  1
  H+  H133  1  0.26857626  0.88442975  0.83417586  1
  H+  H134  1  0.22888512  0.11798483  0.83988849  1
  H+  H135  1  0.50996650  0.87337865  0.50326666  1
  H+  H136  1  0.91747637  0.07919005  0.08473279  1
  H+  H137  1  0.60824320  0.77375209  0.32538242  1
  H+  H138  1  0.61508056  0.97739288  0.15124683  1
  H+  H139  1  0.32969780  0.41155601  0.77351094  1
  H+  H140  1  0.11508942  0.64038352  0.98988315  1
  H+  H141  1  0.88840439  0.86176335  0.00814921  1
  H+  H142  1  0.48773640  0.94749828  0.63410764  1
  H+  H143  1  0.65581900  0.31760371  0.12340047  1
  H+  H144  1  0.84470525  0.48644715  0.50459242  1
  H+  H145  1  0.33479813  0.91808021  0.43483942  1
  H+  H146  1  1.00516079  0.91141842  0.34770778  1
  H+  H147  1  0.75957240  0.14183814  -0.01031511  1
  H+  H148  1  0.10792079  0.21932186  0.68126961  1
  H+  H149  1  0.38086317  0.09335520  0.97577877  1
  H+  H150  1  0.65435822  0.53107132  0.30356150  1
  H+  H151  1  0.14387109  0.89202808  0.36434761  1
  H+  H152  1  0.16042544  0.63435953  0.31898821  1
  H+  H153  1  0.19191292  0.26791723  0.52241730  1
  H+  H154  1  0.02615859  0.63564594  0.15504305  1
  H+  H155  1  0.12709097  0.79044173  0.86158716  1
  H+  H156  1  0.58467538  0.39553706  0.50402169  1
  H+  H157  1  0.87852702  0.76813017  0.66616822  1
  H+  H158  1  0.37324346  0.98045433  0.49282163  1
  H+  H159  1  0.28403576  0.64490684  0.15099485  1
  H+  H160  1  0.11352868  0.72791365  0.64078175  1
  H+  H161  1  0.84788808  -0.03411884  1.00552886  1
  H+  H162  1  0.50705910  0.87329757  0.38139975  1
  H+  H163  1  0.36118075  0.15324108  0.16252516  1
  H+  H164  1  0.13891827  0.52022597  0.66524455  1
  H+  H165  1  0.63661416  0.77565728  0.83994080  1
  H+  H166  1  0.73598954  0.37585182  0.16293051  1
  H+  H167  1  0.36248664  0.89037293  0.00700120  1
  H+  H168  1  0.39806696  0.62663635  0.15954249  1
  H+  H169  1  0.36150582  0.63521665  -0.00248371  1
  H+  H170  1  0.36748129  0.26782814  0.00788745  1
  H+  H171  1  0.58675456  0.84158300  0.68600869  1
  H+  H172  1  0.32854510  0.18283994  0.10227347  1
  H+  H173  1  0.70331281  0.04533374  0.20691639  1
  H+  H174  1  0.15588603  0.33577787  0.05262610  1
  H+  H175  1  0.35607318  0.47189242  0.68024324  1
  H+  H176  1  0.93662793  0.61422662  0.86384684  1
  H+  H177  1  0.85155478  0.62655908  0.17279839  1
  H+  H178  1  0.27935678  0.88235626  0.33518971  1
  H+  H179  1  0.36089271  0.72411595  0.67291330  1
  H+  H180  1  0.77959461  0.13725071  0.82424002  1
  H+  H181  1  0.13295005  0.02220197  0.51094068  1
  H+  H182  1  0.60722905  0.62732914  0.00340314  1
  H+  H183  1  0.71359433  0.61234189  0.83994024  1
  H+  H184  1  0.95223457  0.93178902  0.55595819  1
  H+  H185  1  0.72474174  0.34554712  0.85194239  1
  H+  H186  1  0.10541502  0.12817971  0.67605178  1
  H+  H187  1  0.52041146  0.63654286  0.00548009  1
  H+  H188  1  0.50835689  0.85984378  0.68607576  1
  H+  H189  1  0.56995928  0.18583255  0.43104046  1
  H+  H190  1  0.12248431  -0.01764053  1.00937557  1
  H+  H191  1  0.85791156  0.88163778  0.67719739  1
  H+  H192  1  -0.04306624  0.61518133  -0.00645351  1
  H+  H193  1  0.38826318  0.51991348  0.84059794  1
  H+  H194  1  -0.02155655  0.61322682  0.64721415  1
  H+  H195  1  0.27831971  0.15191563  0.34098144  1
  H+  H196  1  0.84802597  0.60812057  0.84850553  1
  H+  H197  1  0.86768229  0.65056768  0.49819259  1
  H+  H198  1  0.11141050  0.46524356  0.82650541  1
  H+  H199  1  0.32271547  0.63133337  0.34931281  1
  H+  H200  1  0.16776329  0.34262397  0.90737552  1
  H+  H201  1  0.62214772  0.00347916  0.51835621  1
  H+  H202  1  0.23458382  0.87336794  1.00283531  1
  H+  H203  1  0.15289177  0.52637130  0.16908404  1
  H+  H204  1  -0.02423512  0.36241207  0.16126658  1
  H+  H205  1  0.39221363  0.28909187  0.32855258  1
  H+  H206  1  0.74504820  0.61598620  0.31519166  1
  H+  H207  1  0.41595003  0.39258970  0.49533841  1
  H+  H208  1  0.62442844  0.10772820  0.97974375  1
  H+  H209  1  0.06502203  0.93550043  0.44132970  1
  H+  H210  1  0.85657772  0.38728284  0.67327926  1
  H+  H211  1  0.85574066  0.99808818  0.50185727  1
  H+  H212  1  0.62366273  0.76434428  0.50743766  1
  H+  H213  1  0.59543347  0.37829149  0.67554395  1
  H+  H214  1  0.39131516  0.61124849  0.83858773  1
  H+  H215  1  0.84270707  0.22058451  0.49178423  1
  H+  H216  1  0.64931952  0.58251823  0.93343525  1
  H+  H217  1  0.42380283  0.66872864  0.36657425  1
  H+  H218  1  0.71513212  0.85066855  0.50931872  1
  H+  H219  1  0.36750381  0.88882889  0.33672287  1
  H+  H220  1  0.72108909  0.85824157  0.66200003  1
  H+  H221  1  0.85779895  0.13566581  0.66996642  1
  H+  H222  1  0.60385513  0.12891172  0.67130029  1
  H+  H223  1  0.88245722  0.51427181  0.31925161  1
  H+  H224  1  0.30010118  0.40038155  0.49109360  1
  H+  H225  1  0.05496550  0.46865125  0.13342741  1
  H+  H226  1  0.38298181  0.60800458  0.66664665  1
  H+  H227  1  0.35599718  0.87938345  0.83025996  1
  H+  H228  1  0.37135225  0.98650672  -0.00171909  1
  H+  H229  1  0.28052792  0.40424437  0.16073180  1
  H+  H230  1  0.60424292  0.63803569  0.48621447  1
  H+  H231  1  0.91228550  0.31645524  0.25404996  1
  H+  H232  1  0.63601658  0.86488316  0.84373497  1
  H+  H233  1  0.59576415  0.14867849  0.33265950  1
  H+  H234  1  0.64250243  0.02231111  0.82980079  1
  H+  H235  1  0.89711745  0.10840346  0.34196661  1
  H+  H236  1  0.52231113  0.89042588  0.15200304  1
  H+  H237  1  0.44165288  0.54941663  0.33374401  1
  H+  H238  1  0.97056909  0.36182450  0.65785261  1
  H+  H239  1  0.86980764  0.73977056  0.49589290  1
  H+  H240  1  0.59591697  0.23535218  0.32791264  1
  H+  H241  1  0.66052049  0.32484932  0.24525234  1
  H+  H242  1  0.38154965  1.02633141  0.32449778  1
  H+  H243  1  0.13372946  0.38262244  0.16933859  1
  H+  H244  1  0.39451130  0.89793215  0.66307040  1
  H+  H245  1  0.35628984  0.98296434  0.15719795  1
  H+  H246  1  0.04166359  0.15586581  0.14672011  1
  H+  H247  1  0.12258964  0.90610600  0.16457126  1
  H+  H248  1  0.59520812  0.23767989  0.49397556  1
  H+  H249  1  0.51291255  0.83500155  0.37930877  1
  H+  H250  1  0.24443386  0.91263091  0.51700293  1
  H+  H251  1  0.11045201  0.98426637  0.83189610  1
  H+  H252  1  0.63191199  0.76632475  0.99146914  1
  H+  H253  1  0.58361194  0.91676570  0.05637153  1
  H+  H254  1  0.86313602  0.39638109  0.82466557  1
  H+  H255  1  0.87520310  0.84561573  0.32443315  1
  H+  H256  1  0.61796430  0.39689296  0.31439519  1
  H+  H257  1  0.17311192  0.10135188  0.27126566  1
  H+  H258  1  0.89321274  0.11770303  0.83869150  1
  H+  H259  1  0.75237651  0.13824160  0.15347596  1
  H+  H260  1  0.51306358  0.38015740  0.99639381  1
  H+  H261  1  0.26519804  0.88704702  0.67695225  1
  H+  H262  1  0.61141082  0.88317556  -0.00175929  1
  H+  H263  1  0.13112834  0.22284432  0.00381798  1
  H+  H264  1  0.10883663  0.39720041  0.00241890  1
  H+  H265  1  0.47947841  0.37862933  0.17518792  1
  H+  H266  1  0.38899393  0.28951037  0.17350782  1
  H+  H267  1  0.36371954  0.14724364  0.33780976  1
  H+  H268  1  0.37540881  0.35363832  0.84714719  1
  H+  H269  1  0.15541031  0.91400329  0.51843966  1
  H+  H270  1  0.10941568  0.12455683  0.83070260  1
  H+  H271  1  0.06563822  0.64831069  0.84270363  1
  H+  H272  1  0.15958000  0.30049973  0.32617670  1
  H+  H273  1  0.36267727  0.38729827  0.00919910  1
  H+  H274  1  0.52446091  0.64220735  0.83001876  1
  H+  H275  1  0.14107916  0.13677649  0.50150047  1
  H+  H276  1  0.85241929  0.95633854  0.34807356  1
  H+  H277  1  0.20571540  0.75590565  0.28749774  1
  H+  H278  1  0.38765338  0.52553458  0.99364294  1
  H+  H279  1  0.34115903  0.66521733  0.44725904  1
  H+  H280  1  0.22668660  0.59912052  0.51126014  1
  H+  H281  1  0.01463772  0.89827898  0.50498924  1
  H+  H282  1  0.09208846  1.00387224  0.34966944  1
  H+  H283  1  0.15127042  0.13880356  0.33089978  1
  H+  H284  1  0.63215455  0.02212696  0.98089981  1
  H+  H285  1  0.13391027  0.36052828  0.84604598  1
  H+  H286  1  0.70150845  0.36805442  0.52142721  1
  H+  H287  1  0.85796331  0.39315548  0.00455048  1
  H+  H288  1  0.14275764  0.87091375  1.00675040  1
  H+  H289  1  0.84040243  0.12990771  0.49279654  1
  H+  H290  1  0.64134477  0.32980694  0.57843204  1
  H+  H291  1  0.92533796  0.59028315  0.23092116  1
  H+  H292  1  0.32790148  0.15642325  0.43587318  1
  H+  H293  1  0.93874372  0.07813814  0.29143760  1
  H+  H294  1  0.27345635  0.13828950  0.66906667  1
  H+  H295  1  0.51233268  0.03174374  0.12243120  1
  H+  H296  1  0.65403032  0.82251245  0.26387338  1
  H+  H297  1  0.31398263  0.74948594  0.29197431  1
  H+  H298  1  0.17884826  0.81719272  0.25570364  1
  H+  H299  1  0.66303597  0.10562138  0.25329355  1
  H+  H300  1  0.43399828  0.35802126  0.55704634  1
  H+  H301  1  0.39676187  0.32419145  0.94396500  1
  H+  H302  1  0.65994569  0.82511742  0.60270425  1
  H+  H303  1  0.91145546  0.33817497  0.89434638  1
  H+  H304  1  0.58201902  0.67287426  0.76876770  1
  H+  H305  1  0.11397034  0.39288153  0.33798851  1
  H+  H306  1  0.47671664  0.61791438  0.51409474  1
  H+  H307  1  0.07464876  0.91425674  0.73951340  1
  H+  H308  1  0.40647193  0.84018177  0.57041745  1
  H+  H309  1  0.56534670  0.41577946  0.73044654  1
  H+  H310  1  0.88905957  0.08177042  0.15245396  1
  H+  H311  1  0.22703304  0.61330082  0.98852663  1
  H+  H312  1  0.66358669  0.82759810  0.93169332  1
  H+  H313  1  0.57231654  0.15789852  0.73044624  1
  H+  H314  1  0.67527556  0.57878712  0.59628060  1
  H+  H315  1  0.82891916  0.92131881  0.76808172  1
  H+  H316  1  0.71857989  0.59027760  0.22709857  1
  H+  H317  1  0.56507892  0.13415346  0.05343081  1
  H+  H318  1  0.91861870  0.83007321  0.26517487  1
  H+  H319  1  0.13819998  0.77947065  0.16132587  1
  H+  H320  1  0.33355233  0.66749999  0.05653225  1
  H+  H321  1  0.90805730  0.07637794  0.59556247  1
  H+  H322  1  0.60846699  0.72197358  0.67808733  1
  H+  H323  1  0.17668064  0.32369554  0.61431721  1
  H+  H324  1  0.86720242  0.64024065  0.67876274  1
  H+  H325  1  0.34204768  0.67018064  0.76796736  1
  H+  H326  1  0.40763768  0.82985488  0.22021610  1
  H+  H327  1  0.17452101  0.85606819  0.91352263  1
  H+  H328  1  0.23670819  0.13242334  0.17834471  1
  H+  H329  1  0.40695035  0.08528894  0.23223346  1
  H+  H330  1  0.78483675  0.43493650  0.44989660  1
  H+  H331  1  0.77470670  0.62881682  0.67215578  1
  H+  H332  1  0.71371876  0.35717697  0.66652903  1
  H+  H333  1  0.05459943  0.41884786  0.42257824  1
  H+  H334  1  0.81133953  0.17741163  0.05185660  1
  H+  H335  1  0.82928810  0.42152614  0.73151118  1
  H+  H336  1  0.41718399  0.34563517  0.26752564  1
  H+  H337  1  0.32448309  0.91508196  0.73758398  1
  H+  H338  1  0.82626217  0.15669102  0.39843498  1
  H+  H339  1  0.81912362  0.89432744  0.43951528  1
  H+  H340  1  0.17398197  0.57829662  0.89905678  1
  H+  H341  1  0.84373315  0.43037485  0.10076577  1
  H+  H342  1  0.12529404  0.64979885  0.76178453  1
  H+  H343  1  0.07876084  0.65787056  0.09301668  1
  H+  H344  1  0.37609328  0.49690803  0.49161699  1
  H+  H345  1  0.41327542  0.83353663  0.90154519  1
  H+  H346  1  0.34430438  0.42958960  0.06895223  1
  H+  H347  1  0.41906575  0.07846261  0.56223527  1
  H+  H348  1  0.17001843  0.35755848  0.22841598  1
  H+  H349  1  0.11357269  0.19320610  0.40779825  1
  H+  H350  1  0.91055418  0.83556770  0.60820540  1
  H+  H351  1  0.07272460  0.14840854  0.76530269  1
  H+  H352  1  0.88499502  0.02403380  0.83979392  1
  H+  H353  1  0.17854245  0.86602559  0.60612380  1
  H+  H354  1  0.59890473  0.09336992  0.15395935  1
  H+  H355  1  0.85832028  0.22481288  0.67175097  1
  H+  H356  1  0.65363821  0.07036141  0.60849222  1
  H+  H357  1  0.33526912  0.92778431  0.09428801  1
  H+  H358  1  0.17546996  0.09101868  0.90252239  1
  H+  H359  1  0.91124156  0.08163993  0.94769953  1
  H+  H360  1  0.41731493  0.58231207  0.93233796  1
  H+  H361  1  0.82807460  0.38899664  0.37978869  1
  H+  H362  1  0.58038499  0.66731787  0.08738473  1
  H+  H363  1  0.88087693  0.58326789  0.94476202  1
  H+  H364  1  0.11104011  0.17286574  0.06466291  1
  H+  H365  1  0.55501193  0.66168763  0.43264640  1
  H+  H366  1  0.38462619  1.01787440  0.83800132  1
  H+  H367  1  0.19737897  0.62149772  0.25581372  1
  H+  H368  1  0.33772731  0.16301174  0.76961644  1
  H+  H369  1  0.81632830  0.89009480  0.09165100  1
  H+  H370  1  0.07777762  0.63369222  0.75753955  1
  H+  H371  1  0.27668934  0.30943116  0.56202426  1
  H+  H372  1  0.41881867  0.07286133  0.89981940  1
  H+  H373  1  0.90605281  0.33207088  0.60049164  1
  H+  H374  1  0.05589466  0.60917062  0.42981845  1
  H+  H375  1  0.35051986  0.44500492  0.39220621  1
  H+  H376  1  0.82564796  0.67115916  0.08759772  1
  H+  H377  1  0.66846774  0.08341643  0.88753209  1
  H+  H378  1  0.84033863  0.16918524  0.76644976  1
  H+  H379  1  0.07572001  0.40915324  0.73245669  1
  H+  H380  1  0.41444525  0.57791419  0.60878099  1
  H+  H381  1  0.07347097  0.42219670  0.06175231  1
  H+  H382  1  0.85994629  0.88329192  0.50511724  1
  H+  H383  1  0.98682328  0.87782538  0.17582257  1
  O2-  O384  1  0.10473881  0.19022487  0.14451962  1
  O2-  O385  1  0.12145722  0.18057618  0.48590225  1
  O2-  O386  1  0.07032218  0.14533838  0.81197620  1
  O2-  O387  1  0.07009673  0.42364533  0.13150577  1
  O2-  O388  1  0.03790022  0.42813602  0.46475638  1
  O2-  O389  1  0.07775209  0.40562336  0.81109484  1
  O2-  O390  1  0.08577100  0.66092942  0.13737403  1
  O2-  O391  1  0.04075777  0.58140362  0.47073536  1
  O2-  O392  1  0.05030638  0.67945913  0.87157746  1
  O2-  O393  1  0.09414648  0.93793258  0.14992992  1
  O2-  O394  1  0.07394662  0.92633484  0.48542181  1
  O2-  O395  1  0.08024562  0.92337107  0.81809373  1
  O2-  O396  1  0.33166898  0.18508165  0.15056850  1
  O2-  O397  1  0.31837178  0.14135112  0.47966600  1
  O2-  O398  1  0.33302274  0.15984810  0.81451940  1
  O2-  O399  1  0.34080661  0.43215123  0.14632468  1
  O2-  O400  1  0.35258004  0.44110446  0.46880157  1
  O2-  O401  1  0.33251029  0.41520458  0.81891916  1
  O2-  O402  1  0.34289637  0.67606292  0.13315661  1
  O2-  O403  1  0.32886088  0.65996561  0.49200915  1
  O2-  O404  1  0.34561288  0.66994393  0.81333421  1
  O2-  O405  1  0.33244638  0.92329030  0.14050806  1
  O2-  O406  1  0.33526712  0.91796933  0.47989090  1
  O2-  O407  1  0.32588793  0.90955046  0.81423662  1
  O2-  O408  1  0.54919609  0.09196866  0.13317014  1
  O2-  O409  1  0.57031288  0.17959410  0.47554781  1
  O2-  O410  1  0.57671090  0.15605141  0.80524397  1
  O2-  O411  1  0.58097111  0.42247520  0.15133406  1
  O2-  O412  1  0.57138832  0.43724159  0.48422127  1
  O2-  O413  1  0.56555923  0.42006055  0.80393390  1
  O2-  O414  1  0.57777903  0.66829344  0.13516365  1
  O2-  O415  1  0.56802407  0.66505162  0.47685044  1
  O2-  O416  1  0.58477674  0.67645648  0.81538999  1
  O2-  O417  1  0.58230117  0.91669404  0.13581039  1
  O2-  O418  1  0.57070188  0.90622085  0.49053490  1
  O2-  O419  1  0.58430803  0.91470932  0.81762446  1
  O2-  O420  1  0.81054672  0.18534795  0.12896623  1
  O2-  O421  1  0.81551682  0.16215312  0.47319999  1
  O2-  O422  1  0.84198887  0.16935757  0.81208850  1
  O2-  O423  1  0.84680781  0.43515721  0.14650919  1
  O2-  O424  1  0.80962414  0.42610626  0.48660985  1
  O2-  O425  1  0.83011995  0.42279270  0.80830252  1
  O2-  O426  1  0.81224274  0.64919174  0.16136678  1
  O2-  O427  1  0.84051973  0.68162772  0.47911915  1
  O2-  O428  1  0.81778046  0.66491754  0.81439945  1
  O2-  O429  1  0.81762887  0.89018247  0.13764834  1
  O2-  O430  1  0.81828924  0.90176641  0.48421530  1
  O2-  O431  1  0.83157945  0.92536789  0.81359241  1
  O2-  O432  1  0.17521583  0.09998706  0.19424210  1
  O2-  O433  1  0.17084648  0.08283792  0.52706688  1
  O2-  O434  1  0.16911906  0.09212822  0.85686149  1
  O2-  O435  1  0.16693113  0.35497342  0.18291320  1
  O2-  O436  1  0.23143544  0.31990601  0.54732816  1
  O2-  O437  1  0.17143581  0.33981555  0.86338439  1
  O2-  O438  1  0.18085056  0.58817291  0.18057671  1
  O2-  O439  1  0.16699232  0.56265786  0.52801681  1
  O2-  O440  1  0.17944540  0.57271880  0.85333945  1
  O2-  O441  1  0.16789142  0.83709511  0.18028617  1
  O2-  O442  1  0.20199774  0.91606460  0.54382780  1
  O2-  O443  1  0.16913706  0.85205594  0.86787345  1
  O2-  O444  1  0.40520534  0.08520323  0.18634207  1
  O2-  O445  1  0.41886018  0.07602069  0.51703587  1
  O2-  O446  1  0.41657261  0.07807942  0.85298102  1
  O2-  O447  1  0.41786972  0.35005881  0.18911039  1
  O2-  O448  1  0.43409948  0.35286155  0.51208397  1
  O2-  O449  1  0.40519022  0.32456725  0.86500092  1
  O2-  O450  1  0.43104237  0.59920500  0.17438011  1
  O2-  O451  1  0.41751192  0.58595294  0.53268538  1
  O2-  O452  1  0.41965730  0.58057434  0.85620195  1
  O2-  O453  1  0.41677563  0.84040010  0.17546328  1
  O2-  O454  1  0.39722100  0.82279582  0.52701334  1
  O2-  O455  1  0.41520626  0.83568742  0.85589406  1
  O2-  O456  1  0.68092100  0.07690169  0.18466265  1
  O2-  O457  1  0.65242119  0.06273969  0.53659390  1
  O2-  O458  1  0.67376201  0.08425785  0.84222551  1
  O2-  O459  1  0.67292977  0.33634563  0.16660326  1
  O2-  O460  1  0.64043397  0.33581387  0.53306900  1
  O2-  O461  1  0.68174963  0.30353400  0.87995211  1
  O2-  O462  1  0.72744898  0.57969757  0.17971346  1
  O2-  O463  1  0.66338288  0.60025715  0.51611982  1
  O2-  O464  1  0.65322155  0.58197989  0.85508095  1
  O2-  O465  1  0.65572128  0.82512268  0.18130520  1
  O2-  O466  1  0.65549962  0.82289494  0.52612525  1
  O2-  O467  1  0.66872946  0.83588164  0.85725009  1
  O2-  O468  1  0.92951221  0.07396504  0.12777726  1
  O2-  O469  1  0.88688564  0.06254033  0.51334523  1
  O2-  O470  1  0.92164541  0.08536103  0.85473276  1
  O2-  O471  1  0.91633221  0.33830207  0.18100766  1
  O2-  O472  1  0.88922677  0.32639262  0.52032995  1
  O2-  O473  1  0.91518411  0.33860190  0.84885679  1
  O2-  O474  1  0.92590945  0.59492568  0.18560105  1
  O2-  O475  1  0.90494766  0.58363744  0.52483308  1
  O2-  O476  1  0.87432583  0.57606219  0.86994201  1
  O2-  O477  1  0.92841475  0.83774066  0.19147581  1
  O2-  O478  1  0.92522559  0.87372596  0.53931537  1
  O2-  O479  1  0.90525973  0.82763689  0.85004334  1
  O2-  O480  1  0.17397394  0.10131245  0.31685687  1
  O2-  O481  1  0.15579278  0.07689841  0.65042189  1
  O2-  O482  1  0.18330468  0.08217151  0.97816555  1
  O2-  O483  1  0.18393686  0.35818049  0.30729197  1
  O2-  O484  1  0.16236038  0.32487447  0.65789315  1
  O2-  O485  1  0.17399466  0.34574795  1.01018829  1
  O2-  O486  1  0.21381830  0.65342762  0.29499332  1
  O2-  O487  1  0.17367999  0.57971421  0.64859327  1
  O2-  O488  1  0.16664744  0.58538663  0.97190710  1
  O2-  O489  1  0.18987891  0.79991382  0.29655498  1
  O2-  O490  1  0.16714831  0.83983745  0.64864398  1
  O2-  O491  1  0.17212924  0.84078951  0.98924298  1
  O2-  O492  1  0.40608117  0.08520540  0.30729674  1
  O2-  O493  1  0.41186372  0.08278238  0.64197715  1
  O2-  O494  1  0.41624666  0.06711866  0.96967322  1
  O2-  O495  1  0.42027814  0.34923309  0.31287172  1
  O2-  O496  1  0.40951219  0.34023415  0.63851713  1
  O2-  O497  1  0.39740771  0.32974623  0.98909393  1
  O2-  O498  1  0.49563083  0.60151630  0.31886386  1
  O2-  O499  1  0.41047182  0.57433515  0.65437785  1
  O2-  O500  1  0.41596564  0.58609767  0.97792698  1
  O2-  O501  1  0.37379520  0.79876450  0.29394442  1
  O2-  O502  1  0.44061907  0.88950550  0.64242576  1
  O2-  O503  1  0.41341767  0.83420545  0.97782717  1
  O2-  O504  1  0.65788443  0.11277202  0.29843144  1
  O2-  O505  1  0.64974514  0.07438065  0.65426701  1
  O2-  O506  1  0.66004520  0.08191161  0.96491879  1
  O2-  O507  1  0.66082521  0.32807979  0.29036444  1
  O2-  O508  1  0.65247090  0.32665095  0.65390882  1
  O2-  O509  1  0.65069131  0.31918058  1.04490624  1
  O2-  O510  1  0.69443995  0.59158709  0.28793510  1
  O2-  O511  1  0.69133073  0.56664476  0.63646781  1
  O2-  O512  1  0.64567779  0.58042028  0.97878060  1
  O2-  O513  1  0.65678784  0.82773293  0.30885386  1
  O2-  O514  1  0.66033980  0.82515663  0.64825470  1
  O2-  O515  1  0.66303294  0.82783238  0.97768245  1
  O2-  O516  1  0.93231704  0.07956787  0.33527785  1
  O2-  O517  1  0.90918364  0.07823481  0.64063433  1
  O2-  O518  1  0.89112461  0.07356760  0.99021444  1
  O2-  O519  1  0.90879567  0.31227649  0.29985168  1
  O2-  O520  1  0.90880632  0.33161253  0.64572373  1
  O2-  O521  1  0.90920503  0.34192214  0.97190249  1
  O2-  O522  1  0.91658943  0.57608480  0.30901770  1
  O2-  O523  1  0.91381647  0.58545283  0.64495917  1
  O2-  O524  1  0.89393446  0.58774805  0.98990405  1
  O2-  O525  1  0.91475033  0.82527270  0.31105641  1
  O2-  O526  1  0.90936300  0.83057707  0.65442741  1
  O2-  O527  1  0.92039225  0.82951220  1.00565302  1
  O2-  O528  1  0.10570580  0.16417483  0.02007358  1
  O2-  O529  1  0.10580651  0.19566521  0.36313408  1
  O2-  O530  1  0.07443539  0.15716150  0.69366474  1
  O2-  O531  1  0.07563921  0.42537205  0.01405698  1
  O2-  O532  1  0.07278616  0.41089730  0.35177342  1
  O2-  O533  1  0.07733902  0.41247441  0.68699890  1
  O2-  O534  1  0.07904522  0.66838604  -0.00575193  1
  O2-  O535  1  0.07480859  0.64389953  0.35524605  1
  O2-  O536  1  0.08045911  0.66505312  0.63255828  1
  O2-  O537  1  0.08918819  0.92365964  0.02854018  1
  O2-  O538  1  0.04429121  0.95981033  0.37435786  1
  O2-  O539  1  0.07464266  0.91260785  0.69412669  1
  O2-  O540  1  0.33054340  0.17981814  0.03543369  1
  O2-  O541  1  0.33927520  0.18138393  0.35550674  1
  O2-  O542  1  0.33430617  0.17187001  0.68205405  1
  O2-  O543  1  0.33832425  0.42587805  0.02366418  1
  O2-  O544  1  0.35323897  0.44723024  0.34665024  1
  O2-  O545  1  0.32616658  0.41089036  0.69515565  1
  O2-  O546  1  0.32952522  0.66518983  0.01104813  1
  O2-  O547  1  0.37014866  0.67497060  0.37316106  1
  O2-  O548  1  0.33189579  0.66659901  0.69035586  1
  O2-  O549  1  0.33608136  0.92449576  0.02105812  1
  O2-  O550  1  0.33826676  0.91922607  0.35213335  1
  O2-  O551  1  0.32649879  0.91933309  0.69213088  1
  O2-  O552  1  0.57069128  0.15013473  0.01014863  1
  O2-  O553  1  0.56452377  0.17764489  0.34787469  1
  O2-  O554  1  0.57237164  0.16002895  0.68464377  1
  O2-  O555  1  0.57619962  0.41260980  -0.00831776  1
  O2-  O556  1  0.59907142  0.43629991  0.32961451  1
  O2-  O557  1  0.56650487  0.41204676  0.68443776  1
  O2-  O558  1  0.58094960  0.66493741  0.02056111  1
  O2-  O559  1  0.51058574  0.67082270  0.36010515  1
  O2-  O560  1  0.57908635  0.66498377  0.69853012  1
  O2-  O561  1  0.58192297  0.91550716  0.01105162  1
  O2-  O562  1  0.69287475  0.98935109  0.34676737  1
  O2-  O563  1  0.54131141  0.84184530  0.71180207  1
  O2-  O564  1  0.81951051  0.17371226  0.00722631  1
  O2-  O565  1  0.82809734  0.14434790  0.35379259  1
  O2-  O566  1  0.83015492  0.16564266  0.68917604  1
  O2-  O567  1  0.82842624  0.41959693  0.02663898  1
  O2-  O568  1  0.83109614  0.39776919  0.33595674  1
  O2-  O569  1  0.82754539  0.41959833  0.68590574  1
  O2-  O570  1  0.83869533  0.68406905  0.04297779  1
  O2-  O571  1  0.84642138  0.66495354  0.35360938  1
  O2-  O572  1  0.83267064  0.66640653  0.69275873  1
  O2-  O573  1  0.82400191  0.90445214  0.01762885  1
  O2-  O574  1  0.81962331  0.89469945  0.35815769  1
  O2-  O575  1  0.82718382  0.91298515  0.69054043  1
