# generated using pymatgen
data_H2O
_symmetry_space_group_name_H-M   'P 1'
_cell_length_a   17.99034949
_cell_length_b   17.97794527
_cell_length_c   21.96745754
_cell_angle_alpha   89.97639660
_cell_angle_beta   90.02947875
_cell_angle_gamma   119.98369839
_symmetry_Int_Tables_number   1
_chemical_formula_structural   H2O
_chemical_formula_sum   'H384 O192'
_cell_volume   6154.05443286
_cell_formula_units_Z   192
loop_
 _symmetry_equiv_pos_site_id
 _symmetry_equiv_pos_as_xyz
  1  'x, y, z'
loop_
 _atom_type_symbol
 _atom_type_oxidation_number
  H+  1.0
  O2-  -2.0
loop_
 _atom_site_type_symbol
 _atom_site_label
 _atom_site_symmetry_multiplicity
 _atom_site_fract_x
 _atom_site_fract_y
 _atom_site_fract_z
 _atom_site_occupancy
  H+  H0  1  0.83771637  0.74575686  -0.03292309  1
  H+  H1  1  0.89107202  0.60573529  0.85727324  1
  H+  H2  1  0.48626626  0.38326633  0.30638380  1
  H+  H3  1  0.61703089  0.48414729  0.14118494  1
  H+  H4  1  0.33542781  0.23676275  0.15193980  1
  H+  H5  1  0.11210764  0.88690740  0.49626723  1
  H+  H6  1  -0.02114546  0.86623312  0.17871442  1
  H+  H7  1  0.25269626  0.86366000  0.32212807  1
  H+  H8  1  0.40178801  -0.00484675  0.51116984  1
  H+  H9  1  0.73101359  0.61828261  0.36587092  1
  H+  H10  1  0.42419034  0.85322406  0.58987834  1
  H+  H11  1  0.86280824  0.38191787  0.15257193  1
  H+  H12  1  0.63101025  0.39754759  0.00050915  1
  H+  H13  1  0.24544882  0.66258810  0.51574445  1
  H+  H14  1  0.36271514  0.38849158  0.32822481  1
  H+  H15  1  0.87373839  0.10508638  0.50254840  1
  H+  H16  1  0.43234117  0.09216600  0.16087861  1
  H+  H17  1  0.51579461  0.89261381  0.48490620  1
  H+  H18  1  0.83276745  0.37317743  0.79157575  1
  H+  H19  1  0.35791465  0.87547158  0.66747346  1
  H+  H20  1  0.25374329  0.78179933  0.80315337  1
  H+  H21  1  0.63664034  0.02492990  0.15579670  1
  H+  H22  1  0.52616143  0.39933949  0.14977030  1
  H+  H23  1  0.37811175  0.51737264  0.83421814  1
  H+  H24  1  0.88817022  0.10128660  0.18481661  1
  H+  H25  1  0.67333070  0.83146624  0.23744791  1
  H+  H26  1  0.17004480  0.46605112  0.59915322  1
  H+  H27  1  0.10352977  0.22506874  0.67439702  1
  H+  H28  1  0.63227247  0.86723863  0.66560122  1
  H+  H29  1  0.02024891  0.59969017  0.01509946  1
  H+  H30  1  0.84007218  0.96954954  0.82945470  1
  H+  H31  1  0.10112423  0.91350309  0.40793907  1
  H+  H32  1  0.61591799  0.51064857  0.83395749  1
  H+  H33  1  0.97197431  0.10259473  0.83678749  1
  H+  H34  1  0.59802797  0.20877584  0.67609415  1
  H+  H35  1  0.36277393  0.31315785  0.49868163  1
  H+  H36  1  0.38794534  0.61175182  0.84280303  1
  H+  H37  1  0.21149922  0.01686270  0.39063087  1
  H+  H38  1  0.13765781  0.53381494  0.17776716  1
  H+  H39  1  0.63863824  0.10864667  0.83885320  1
  H+  H40  1  0.59101967  0.16671152  0.05531997  1
  H+  H41  1  0.32145503  0.48267264  0.03431870  1
  H+  H42  1  0.88957804  0.89429016  0.98576260  1
  H+  H43  1  0.87701047  0.22830679  1.00644130  1
  H+  H44  1  0.20945708  0.50537664  0.98423102  1
  H+  H45  1  0.89064250  0.26728178  0.85190114  1
  H+  H46  1  0.61941821  0.84775336  -0.01043512  1
  H+  H47  1  0.86205879  0.13248377  0.34122856  1
  H+  H48  1  0.77841591  0.64518079  0.50162960  1
  H+  H49  1  0.50397945  0.11360227  0.31787474  1
  H+  H50  1  0.61637341  0.99093335  0.82726824  1
  H+  H51  1  0.65171201  0.14499819  1.01732463  1
  H+  H52  1  0.29803058  0.10311143  0.37267951  1
  H+  H53  1  0.86673476  0.21964018  0.49112583  1
  H+  H54  1  0.51276889  0.42359368  0.97645563  1
  H+  H55  1  0.60478567  0.37879996  0.67399009  1
  H+  H56  1  0.46388812  0.09108519  0.66461346  1
  H+  H57  1  0.67804353  0.29276774  0.99902723  1
  H+  H58  1  0.72913677  0.61641892  0.97775965  1
  H+  H59  1  0.70339570  0.85016399  0.84075814  1
  H+  H60  1  0.40984286  0.79088508  0.64816852  1
  H+  H61  1  0.86861359  0.35925819  0.32511349  1
  H+  H62  1  0.07204350  0.86548840  0.00433967  1
  H+  H63  1  0.86408094  0.21567537  0.15657570  1
  H+  H64  1  0.88377054  0.61144610  0.33966157  1
  H+  H65  1  0.71201913  0.35497300  0.66240276  1
  H+  H66  1  0.86859170  0.14016500  0.83016882  1
  H+  H67  1  0.47231667  0.63015859  0.55064492  1
  H+  H68  1  0.13180672  0.89140177  0.83837655  1
  H+  H69  1  0.90826910  0.52569495  0.94807262  1
  H+  H70  1  0.85560304  0.13594065  0.67472945  1
  H+  H71  1  0.87360167  0.00589205  0.99799633  1
  H+  H72  1  0.34946541  0.08085199  1.01415088  1
  H+  H73  1  0.88180944  0.86381844  0.51231805  1
  H+  H74  1  0.61546488  0.48266134  0.34795903  1
  H+  H75  1  0.66152133  0.34617522  0.51337366  1
  H+  H76  1  0.63261626  0.77121072  0.31811344  1
  H+  H77  1  0.89774604  0.36063020  0.50249515  1
  H+  H78  1  0.60158830  0.96251809  -0.00344682  1
  H+  H79  1  0.74924509  0.87461265  0.01304289  1
  H+  H80  1  0.12804745  0.72241191  0.65387512  1
  H+  H81  1  0.63779441  0.37652772  0.84830764  1
  H+  H82  1  0.63584491  0.86368370  0.32193961  1
  H+  H83  1  0.64423492  0.25161301  0.50724696  1
  H+  H84  1  0.02767682  0.12326698  0.01112245  1
  H+  H85  1  0.38120349  0.60851834  0.32823636  1
  H+  H86  1  0.72865237  0.08578410  0.99242285  1
  H+  H87  1  0.34352956  0.42565923  0.75325221  1
  H+  H88  1  0.38597072  0.85486658  0.17069700  1
  H+  H89  1  0.13374961  0.36246282  0.80733065  1
  H+  H90  1  0.94814244  0.01319531  0.96298450  1
  H+  H91  1  0.12619742  0.25978816  1.04078447  1
  H+  H92  1  0.15846570  0.55606673  0.86288195  1
  H+  H93  1  0.65714448  0.12290300  0.14786641  1
  H+  H94  1  0.16805798  0.86859789  0.32669514  1
  H+  H95  1  0.14733831  0.36630993  0.32270729  1
  H+  H96  1  0.10087088  0.13815114  0.65931882  1
  H+  H97  1  0.90095219  0.90684840  0.68386452  1
  H+  H98  1  0.18385633  0.84405616  0.23130560  1
  H+  H99  1  0.60741191  0.72744766  1.00257507  1
  H+  H100  1  0.31532909  0.66516506  0.67797552  1
  H+  H101  1  0.58025841  0.91374248  0.42792988  1
  H+  H102  1  0.17568255  0.08936242  0.34751939  1
  H+  H103  1  0.73067313  0.61823592  0.15008852  1
  H+  H104  1  0.20808750  0.35871615  1.04788342  1
  H+  H105  1  0.10236380  0.10949802  0.33876265  1
  H+  H106  1  0.17431181  0.50504370  -0.03488289  1
  H+  H107  1  0.14958476  0.78633079  0.49373871  1
  H+  H108  1  0.26617129  0.38686197  0.80020902  1
  H+  H109  1  0.89330623  0.53024772  0.18210165  1
  H+  H110  1  0.40584245  0.63054165  0.65457094  1
  H+  H111  1  0.87231366  0.64301150  0.17122733  1
  H+  H112  1  0.51823438  0.38222186  0.66962929  1
  H+  H113  1  0.95349283  0.35535773  0.31311947  1
  H+  H114  1  0.72883067  0.10983378  0.31540412  1
  H+  H115  1  0.11103233  0.20628735  0.81085474  1
  H+  H116  1  0.10512958  0.62884441  0.34121601  1
  H+  H117  1  0.60213368  0.73873182  0.51434260  1
  H+  H118  1  0.25508475  0.32966941  0.48349218  1
  H+  H119  1  0.52888382  0.88242657  0.32838444  1
  H+  H120  1  0.61419270  0.98674751  0.67710432  1
  H+  H121  1  0.15045790  0.78718937  0.17060692  1
  H+  H122  1  0.85503985  0.21871957  0.33601820  1
  H+  H123  1  0.07521055  0.74510293  0.98520095  1
  H+  H124  1  0.52261102  0.90003596  0.67337100  1
  H+  H125  1  0.62430517  0.23156571  0.33171147  1
  H+  H126  1  0.75879516  0.88309131  0.50142215  1
  H+  H127  1  0.06379615  0.46094155  0.69567481  1
  H+  H128  1  0.57686606  0.23732382  0.17653832  1
  H+  H129  1  0.74559537  0.86232636  0.17640546  1
  H+  H130  1  0.45329335  0.50146932  0.96348681  1
  H+  H131  1  0.27587761  0.86956310  0.95373110  1
  H+  H132  1  0.10567317  0.20132817  0.16558415  1
  H+  H133  1  0.86207759  0.00257858  0.50723683  1
  H+  H134  1  0.51804533  0.90020095  0.82980054  1
  H+  H135  1  0.89311285  0.35509765  0.87075038  1
  H+  H136  1  0.97363467  0.09554437  0.18434769  1
  H+  H137  1  0.12551310  0.42650466  0.40737800  1
  H+  H138  1  0.61751005  0.63829640  0.66935640  1
  H+  H139  1  0.41228863  0.31925063  0.59441364  1
  H+  H140  1  0.24121803  0.36723039  0.66448805  1
  H+  H141  1  0.12333416  0.44579986  0.60871740  1
  H+  H142  1  0.64166279  0.61751229  0.14054550  1
  H+  H143  1  1.03808295  0.39897550  0.84853142  1
  H+  H144  1  0.76817483  0.88493150  0.34554006  1
  H+  H145  1  0.32747175  0.78048068  0.98476372  1
  H+  H146  1  0.15470886  0.54097080  0.32921595  1
  H+  H147  1  0.77906380  0.64244099  0.67295484  1
  H+  H148  1  0.73074639  0.11114039  0.83995530  1
  H+  H149  1  0.88153943  0.61362026  0.52634650  1
  H+  H150  1  0.13292489  0.92934483  0.68799013  1
  H+  H151  1  0.61848557  0.64362500  0.00584845  1
  H+  H152  1  0.77660797  0.12618855  0.15606114  1
  H+  H153  1  0.84292681  0.43634580  0.09156450  1
  H+  H154  1  0.63459888  0.36858528  0.32361919  1
  H+  H155  1  0.37602437  0.69255475  0.73539750  1
  H+  H156  1  0.37189445  0.00308906  0.66298053  1
  H+  H157  1  0.98857561  0.87016293  0.66470850  1
  H+  H158  1  0.62253713  0.75665136  0.84171774  1
  H+  H159  1  0.22091132  0.11047016  0.18886379  1
  H+  H160  1  0.10374697  0.22714093  0.35979655  1
  H+  H161  1  0.73092709  0.09771361  0.50953586  1
  H+  H162  1  0.52572337  0.89280221  0.15355905  1
  H+  H163  1  0.88763829  0.51786209  0.84437711  1
  H+  H164  1  0.64262991  0.76996912  0.17281336  1
  H+  H165  1  0.12159611  1.00351014  -0.01489855  1
  H+  H166  1  0.81026693  0.90495723  0.07397633  1
  H+  H167  1  0.40603893  0.27668379  1.04276609  1
  H+  H168  1  0.38490080  0.26689568  0.65562568  1
  H+  H169  1  0.98556676  0.91212568  0.98618566  1
  H+  H170  1  0.39951410  0.85204022  0.32217334  1
  H+  H171  1  0.35479838  0.12282808  0.66032545  1
  H+  H172  1  0.61492681  0.60640193  0.82947171  1
  H+  H173  1  0.67577354  0.34853677  0.26626755  1
  H+  H174  1  0.11074893  0.65402205  0.83197615  1
  H+  H175  1  0.15967935  0.32137988  0.13348922  1
  H+  H176  1  0.20745110  0.67799616  0.65612479  1
  H+  H177  1  0.87139438  0.84868390  0.33566304  1
  H+  H178  1  0.53006019  0.12860272  0.83129084  1
  H+  H179  1  0.24309132  0.85700649  0.82727460  1
  H+  H180  1  0.29103113  0.65234678  0.83215421  1
  H+  H181  1  0.40285362  0.29389670  0.29611106  1
  H+  H182  1  0.82262908  0.91762383  0.76896355  1
  H+  H183  1  0.15716737  0.33051475  0.74629141  1
  H+  H184  1  0.13357601  0.04471499  0.64742233  1
  H+  H185  1  0.52766429  0.12839957  0.48953828  1
  H+  H186  1  0.81164746  0.55311069  0.03327037  1
  H+  H187  1  0.62936233  0.14378883  0.32859124  1
  H+  H188  1  0.96324865  0.36532669  0.17448655  1
  H+  H189  1  0.96859784  0.12132526  0.65100016  1
  H+  H190  1  0.87547688  0.11516152  0.01165731  1
  H+  H191  1  0.37524179  0.85131403  0.84998449  1
  H+  H192  1  0.96058643  0.60755536  0.62367166  1
  H+  H193  1  0.34264811  0.42493850  0.07697548  1
  H+  H194  1  0.09876598  -0.05221939  0.34046968  1
  H+  H195  1  0.10376677  0.39188638  0.17655788  1
  H+  H196  1  0.26777168  0.37412017  0.32971025  1
  H+  H197  1  0.36261638  0.72163951  0.13954166  1
  H+  H198  1  0.76769235  0.38954954  0.34560837  1
  H+  H199  1  0.39701495  0.96805481  0.34523430  1
  H+  H200  1  0.39792788  0.76325741  0.32297211  1
  H+  H201  1  0.40353976  0.13582461  0.84845277  1
  H+  H202  1  0.72761295  0.38349344  0.83796142  1
  H+  H203  1  0.10364312  0.81105287  0.92880737  1
  H+  H204  1  0.40377690  0.48349070  0.16084370  1
  H+  H205  1  0.52365146  0.64439403  0.15922339  1
  H+  H206  1  0.64027041  0.01063877  0.50804217  1
  H+  H207  1  0.89839884  0.78064245  0.66416161  1
  H+  H208  1  0.96262839  0.33135466  1.01393060  1
  H+  H209  1  0.85696965  0.84653187  0.83433326  1
  H+  H210  1  0.13583058  0.13244519  0.54553508  1
  H+  H211  1  0.12165399  0.42525474  0.50733365  1
  H+  H212  1  0.36748034  0.36419760  0.82944860  1
  H+  H213  1  0.62645289  0.86486230  0.50905158  1
  H+  H214  1  0.11083090  0.97332250  0.16689807  1
  H+  H215  1  0.14835430  0.04829256  0.88839094  1
  H+  H216  1  0.37660527  0.51707190  0.32206161  1
  H+  H217  1  0.36803033  0.66582910  0.51518158  1
  H+  H218  1  0.37184377  0.95957658  0.20896168  1
  H+  H219  1  0.36353304  0.19034378  0.51101518  1
  H+  H220  1  0.37960550  0.75804426  1.02803957  1
  H+  H221  1  0.27257345  0.13588679  0.65635919  1
  H+  H222  1  0.64293758  0.53106386  -0.01724555  1
  H+  H223  1  0.61549393  0.97481268  0.32769356  1
  H+  H224  1  0.37792734  0.22820883  0.80258981  1
  H+  H225  1  0.77159386  0.39243225  0.15095834  1
  H+  H226  1  0.08878730  0.35553879  0.04353416  1
  H+  H227  1  0.11103553  0.79228810  0.83401790  1
  H+  H228  1  0.85882416  0.66335168  0.77556558  1
  H+  H229  1  0.12292786  0.08480455  0.82645740  1
  H+  H230  1  0.86204946  0.64027439  0.65532454  1
  H+  H231  1  0.66159487  0.59348884  0.44996720  1
  H+  H232  1  0.41013817  1.02695356  0.01293819  1
  H+  H233  1  0.59980537  0.40686641  0.48720151  1
  H+  H234  1  0.89137431  0.77668644  0.17542776  1
  H+  H235  1  0.66689294  0.07210768  0.60031651  1
  H+  H236  1  0.87980950  0.51877375  0.33742597  1
  H+  H237  1  0.89166181  0.03015139  0.66170074  1
  H+  H238  1  0.58967369  0.64433721  0.27226162  1
  H+  H239  1  0.38377974  0.60708118  0.16069213  1
  H+  H240  1  0.17177292  0.66733864  1.00031899  1
  H+  H241  1  0.50996530  0.38165139  0.82351029  1
  H+  H242  1  0.86071525  0.96872855  0.17276779  1
  H+  H243  1  0.57558931  0.65466923  0.75938313  1
  H+  H244  1  0.15855913  0.37396468  0.64694292  1
  H+  H245  1  0.79023127  0.42227809  0.00268866  1
  H+  H246  1  0.87249478  0.72204065  0.83235719  1
  H+  H247  1  0.24068830  0.08353136  0.01173515  1
  H+  H248  1  0.40485005  0.90629033  0.03373865  1
  H+  H249  1  0.01280552  0.62729434  0.49891343  1
  H+  H250  1  0.10860049  0.64080456  0.49723193  1
  H+  H251  1  0.10569448  0.11324707  0.16952829  1
  H+  H252  1  0.14337274  0.55159739  0.70261612  1
  H+  H253  1  0.50984017  0.87524677  0.00108957  1
  H+  H254  1  0.01558123  0.63559096  0.83905113  1
  H+  H255  1  0.86269634  0.46847855  0.50450834  1
  H+  H256  1  0.51466753  0.62651259  0.31655287  1
  H+  H257  1  0.37134440  0.09435165  0.51387896  1
  H+  H258  1  0.84980080  0.22172910  0.67329727  1
  H+  H259  1  0.27736570  0.64623997  0.34751151  1
  H+  H260  1  0.64060767  0.61724192  0.35365161  1
  H+  H261  1  0.40855745  0.09428501  0.32400084  1
  H+  H262  1  0.63389142  0.51781484  0.65925843  1
  H+  H263  1  0.11616066  0.64716047  0.16331505  1
  H+  H264  1  0.37445237  0.29241883  0.04249401  1
  H+  H265  1  0.87148433  0.73308893  0.96389856  1
  H+  H266  1  0.95092821  0.35159209  0.65687045  1
  H+  H267  1  0.78388708  0.37220757  0.50239225  1
  H+  H268  1  1.02278333  0.88532038  0.49081154  1
  H+  H269  1  0.08991936  0.46020241  0.79316297  1
  H+  H270  1  0.20653401  0.61250001  0.61204609  1
  H+  H271  1  0.86539510  0.88051492  0.16828350  1
  H+  H272  1  0.85034885  0.39150707  0.65559134  1
  H+  H273  1  0.36905216  0.17091347  0.16566074  1
  H+  H274  1  0.37798035  0.36579921  0.21746370  1
  H+  H275  1  0.84809439  0.47851232  0.64410776  1
  H+  H276  1  0.51136427  0.62075600  0.81897520  1
  H+  H277  1  0.58074075  0.48092341  0.48348843  1
  H+  H278  1  0.37377261  0.47921882  0.65484781  1
  H+  H279  1  0.72136228  0.11000881  0.66286992  1
  H+  H280  1  0.27584714  0.91073309  -0.05197843  1
  H+  H281  1  0.04889420  0.58645399  0.69783301  1
  H+  H282  1  0.38345085  0.73419062  0.83679100  1
  H+  H283  1  0.29497154  0.12201533  0.07525179  1
  H+  H284  1  0.45764747  0.33042051  0.50096631  1
  H+  H285  1  0.86172448  0.72251912  0.34854996  1
  H+  H286  1  0.13447233  0.09797719  0.98093708  1
  H+  H287  1  0.37287661  0.38837519  0.65925398  1
  H+  H288  1  0.10157032  0.33345825  0.48891874  1
  H+  H289  1  0.65408763  0.31107013  0.60635831  1
  H+  H290  1  0.42014515  0.05460742  0.57216531  1
  H+  H291  1  0.22692006  0.61839422  0.16498949  1
  H+  H292  1  0.43202132  0.56953056  0.92345216  1
  H+  H293  1  0.33827226  0.67113695  0.40664140  1
  H+  H294  1  0.07396265  0.91571036  0.06761624  1
  H+  H295  1  0.82560794  0.43516476  0.74685136  1
  H+  H296  1  0.48287410  0.19205322  0.88984001  1
  H+  H297  1  0.57330808  0.92858429  0.75989422  1
  H+  H298  1  0.83371555  0.16073376  0.43050194  1
  H+  H299  1  0.84534941  0.66099535  0.10692984  1
  H+  H300  1  0.23201898  0.34035549  0.18159116  1
  H+  H301  1  0.04577710  0.65594494  0.73674082  1
  H+  H302  1  0.30986609  0.88122400  0.72753322  1
  H+  H303  1  0.07440017  0.66178420  0.07001799  1
  H+  H304  1  0.20049626  0.69898805  0.56008222  1
  H+  H305  1  0.97266532  0.11181245  0.34877598  1
  H+  H306  1  0.44606824  0.12263778  0.22820317  1
  H+  H307  1  0.35038537  0.28561867  0.87299781  1
  H+  H308  1  0.65831942  0.84217574  0.57340330  1
  H+  H309  1  0.91562487  0.85180019  0.88797002  1
  H+  H310  1  0.31867592  0.37560379  0.42799725  1
  H+  H311  1  0.59111814  0.42160280  0.05700410  1
  H+  H312  1  0.92104807  0.84124584  0.57020272  1
  H+  H313  1  0.20146633  0.63609089  0.90855426  1
  H+  H314  1  0.57900554  0.91860882  0.09234399  1
  H+  H315  1  0.60329516  0.12282716  0.66992508  1
  H+  H316  1  0.83869161  0.17397644  0.77231130  1
  H+  H317  1  0.67283712  0.08722671  0.25368486  1
  H+  H318  1  0.49793854  0.60598046  -0.01275682  1
  H+  H319  1  0.84688611  0.67050256  0.41213250  1
  H+  H320  1  0.68920606  0.34798701  0.93673356  1
  H+  H321  1  0.88915990  0.32883235  0.22461614  1
  H+  H322  1  0.90250402  0.82182019  0.27571664  1
  H+  H323  1  0.65294777  0.81681342  0.93148036  1
  H+  H324  1  0.41233545  0.08762566  0.94972243  1
  H+  H325  1  0.17557703  0.31176711  0.92553796  1
  H+  H326  1  0.44644118  0.39546480  0.91932549  1
  H+  H327  1  0.08695718  0.43768368  0.01645491  1
  H+  H328  1  1.00429313  0.61965224  0.34341253  1
  H+  H329  1  0.08728264  0.17796270  0.42537300  1
  H+  H330  1  0.69602399  0.60551821  0.25397454  1
  H+  H331  1  0.15302851  0.07779072  0.24573828  1
  H+  H332  1  0.22335232  0.33368100  0.92969130  1
  H+  H333  1  0.34164833  0.15460259  0.75472753  1
  H+  H334  1  0.39611983  0.95519764  0.09155566  1
  H+  H335  1  0.37274382  0.75470522  0.49463093  1
  H+  H336  1  0.81946267  0.91116937  0.44102930  1
  H+  H337  1  0.02851398  0.64840483  0.16848509  1
  H+  H338  1  0.64162604  0.37299742  0.16477224  1
  H+  H339  1  0.67202800  0.07511094  0.93337553  1
  H+  H340  1  0.90895908  0.30222816  0.94791164  1
  H+  H341  1  0.41896417  0.83828886  0.90982024  1
  H+  H342  1  0.28549316  0.90429298  0.17152843  1
  H+  H343  1  0.16572169  0.81848843  0.56030495  1
  H+  H344  1  0.57134207  0.41204785  0.76453630  1
  H+  H345  1  0.98064814  0.34731843  0.50448441  1
  H+  H346  1  0.91644047  0.07543133  0.89794826  1
  H+  H347  1  0.84135649  0.14118453  0.07240828  1
  H+  H348  1  0.63732849  0.78170514  0.66149712  1
  H+  H349  1  0.90613975  0.32438210  0.59268913  1
  H+  H350  1  0.65685188  0.58143110  0.89312737  1
  H+  H351  1  0.86825524  0.73286132  0.50657659  1
  H+  H352  1  0.82981846  0.41280197  0.40503476  1
  H+  H353  1  0.09878220  0.96082261  0.74331118  1
  H+  H354  1  0.07197816  0.14243202  0.75747786  1
  H+  H355  1  0.14981112  0.27651786  0.56112799  1
  H+  H356  1  0.54222821  0.67018509  0.46481291  1
  H+  H357  1  0.74208159  0.57073155  0.06360174  1
  H+  H358  1  0.94938049  0.98164358  0.73030734  1
  H+  H359  1  0.56262319  0.40642677  0.39027250  1
  H+  H360  1  0.53020557  0.63980604  0.66324664  1
  H+  H361  1  0.66518840  0.57654903  0.60027067  1
  H+  H362  1  0.22530762  0.80736058  0.65126761  1
  H+  H363  1  0.66613277  0.55767840  0.25311057  1
  H+  H364  1  0.91674876  0.58282748  0.24460070  1
  H+  H365  1  0.17363002  0.59891798  0.26874751  1
  H+  H366  1  0.41633771  0.81674515  0.22383504  1
  H+  H367  1  0.21800939  0.47855813  0.38121257  1
  H+  H368  1  0.92253339  0.07846627  0.28430821  1
  H+  H369  1  0.11524456  0.88775480  0.16234971  1
  H+  H370  1  0.36873016  0.90604286  0.40429868  1
  H+  H371  1  0.14944499  0.31435012  0.26422488  1
  H+  H372  1  0.57643431  0.14347621  0.76647025  1
  H+  H373  1  0.57993381  0.67594873  0.09840132  1
  H+  H374  1  0.58457617  0.16650718  0.42851448  1
  H+  H375  1  0.89825526  0.07256465  0.56888097  1
  H+  H376  1  0.40839654  0.58482470  0.22631755  1
  H+  H377  1  0.85881909  0.97187582  0.35171073  1
  H+  H378  1  0.06707226  0.64876102  0.40776513  1
  H+  H379  1  0.08097297  0.13996254  0.07224454  1
  H+  H380  1  0.25558763  0.65832971  1.01401674  1
  H+  H381  1  0.62381239  0.62272132  0.50384708  1
  H+  H382  1  0.06910230  0.41374796  0.11709207  1
  H+  H383  1  0.29655903  0.10417765  0.46971525  1
  O2-  O384  1  0.07351935  0.14107705  0.15140150  1
  O2-  O385  1  0.11176512  0.18805269  0.49780402  1
  O2-  O386  1  0.07872649  0.14363012  0.80299719  1
  O2-  O387  1  0.07154529  0.41970791  0.16250936  1
  O2-  O388  1  0.08613359  0.37906424  0.47892526  1
  O2-  O389  1  0.09639425  0.43495781  0.83177928  1
  O2-  O390  1  0.08568180  0.67717197  0.14845456  1
  O2-  O391  1  0.06697951  0.65333305  0.47537789  1
  O2-  O392  1  0.07054637  0.67210184  0.81644313  1
  O2-  O393  1  0.08058367  0.91450604  0.14902898  1
  O2-  O394  1  0.08192557  0.91306437  0.47489436  1
  O2-  O395  1  0.10029603  0.96246335  0.81657963  1
  O2-  O396  1  0.31999806  0.17604897  0.14935383  1
  O2-  O397  1  0.33220325  0.12443733  0.50836333  1
  O2-  O398  1  0.35401274  0.16615099  0.79895756  1
  O2-  O399  1  0.40364515  0.43222739  0.14167318  1
  O2-  O400  1  0.31620789  0.36052082  0.47146270  1
  O2-  O401  1  0.33098101  0.41985745  0.79805837  1
  O2-  O402  1  0.32890180  0.65981440  0.12662164  1
  O2-  O403  1  0.34200760  0.68984859  0.48756959  1
  O2-  O404  1  0.35188704  0.67605125  0.81812635  1
  O2-  O405  1  0.35067825  0.93879706  0.16796624  1
  O2-  O406  1  0.37703573  0.90049691  0.48478924  1
  O2-  O407  1  0.28724405  0.84383621  0.80940583  1
  O2-  O408  1  0.63885257  0.25952328  0.16893216  1
  O2-  O409  1  0.58376997  0.17234793  0.47322190  1
  O2-  O410  1  0.58504449  0.14456081  0.81142242  1
  O2-  O411  1  0.58506276  0.41890438  0.13687851  1
  O2-  O412  1  0.55626759  0.41890396  0.47164969  1
  O2-  O413  1  0.57028251  0.41591980  0.81047340  1
  O2-  O414  1  0.58440203  0.67583265  0.14390241  1
  O2-  O415  1  0.56445190  0.67378640  0.50589197  1
  O2-  O416  1  0.57276484  0.64868742  0.80534981  1
  O2-  O417  1  0.58413761  0.92932334  0.13688666  1
  O2-  O418  1  0.57710095  0.91160291  0.47306671  1
  O2-  O419  1  0.57546800  0.93038871  0.80887241  1
  O2-  O420  1  0.84006895  0.15473652  0.14527677  1
  O2-  O421  1  0.83794647  0.15917179  0.47606647  1
  O2-  O422  1  0.84017800  0.17402679  0.81797382  1
  O2-  O423  1  0.83508652  0.41974492  0.13725028  1
  O2-  O424  1  0.84206668  0.41212543  0.48450913  1
  O2-  O425  1  0.82691874  0.42415666  0.79147423  1
  O2-  O426  1  0.84488600  0.67304319  0.15111227  1
  O2-  O427  1  0.84042972  0.67029893  0.49373223  1
  O2-  O428  1  0.85756714  0.66251665  0.82016845  1
  O2-  O429  1  0.83012553  0.90850803  0.15566237  1
  O2-  O430  1  0.82034279  0.91389022  0.48701556  1
  O2-  O431  1  0.80464426  0.91123011  0.81218412  1
  O2-  O432  1  0.15966417  0.07436886  0.20050163  1
  O2-  O433  1  0.14670770  0.08581510  0.56403743  1
  O2-  O434  1  0.15236265  0.05207952  0.84153853  1
  O2-  O435  1  0.17004451  0.32174007  0.17866902  1
  O2-  O436  1  0.14875424  0.27965815  0.51642626  1
  O2-  O437  1  0.15928730  0.32815876  0.79144437  1
  O2-  O438  1  0.17258922  0.59538623  0.18896990  1
  O2-  O439  1  0.19057265  0.64670589  0.53831486  1
  O2-  O440  1  0.19008654  0.61946110  0.86426118  1
  O2-  O441  1  0.18155850  0.84782629  0.18512873  1
  O2-  O442  1  0.16938582  0.83832540  0.51824659  1
  O2-  O443  1  0.15047574  0.84921059  0.85183963  1
  O2-  O444  1  0.44822904  0.14322424  0.18564686  1
  O2-  O445  1  0.42101730  0.05621369  0.52617370  1
  O2-  O446  1  0.44300113  0.13204731  0.87973426  1
  O2-  O447  1  0.34394494  0.35782282  0.17961208  1
  O2-  O448  1  0.40003749  0.29110102  0.51796418  1
  O2-  O449  1  0.39582678  0.33418437  0.85077613  1
  O2-  O450  1  0.41744337  0.58397714  0.18153401  1
  O2-  O451  1  0.41338754  0.60801950  0.56805955  1
  O2-  O452  1  0.41418581  0.57517629  0.85358352  1
  O2-  O453  1  0.41413349  0.82064436  0.17843436  1
  O2-  O454  1  0.41650016  0.85838068  0.50994662  1
  O2-  O455  1  0.42227578  0.84148552  0.86496007  1
  O2-  O456  1  0.67541340  0.08768837  0.17016518  1
  O2-  O457  1  0.67545183  0.06517783  0.53065171  1
  O2-  O458  1  0.67048650  0.07820242  0.85525843  1
  O2-  O459  1  0.68073140  0.35322650  0.18329198  1
  O2-  O460  1  0.68316867  0.31011211  0.52922389  1
  O2-  O461  1  0.67610597  0.35651203  0.86400363  1
  O2-  O462  1  0.67181636  0.58490125  0.13258899  1
  O2-  O463  1  0.65311932  0.58880481  0.49556180  1
  O2-  O464  1  0.64640414  0.57391287  0.84711224  1
  O2-  O465  1  0.67934574  0.82993773  0.19079894  1
  O2-  O466  1  0.65759347  0.83656735  0.52696815  1
  O2-  O467  1  0.64658259  0.81381163  0.86053955  1
  O2-  O468  1  0.91436196  0.06856262  0.20216373  1
  O2-  O469  1  0.89568047  0.06725326  0.52225908  1
  O2-  O470  1  0.91308166  0.08111920  0.85304306  1
  O2-  O471  1  0.89891354  0.33366519  0.17928864  1
  O2-  O472  1  0.92055841  0.32392738  0.51912095  1
  O2-  O473  1  0.92230662  0.32230519  0.87721935  1
  O2-  O474  1  0.92200381  0.58846728  0.19917665  1
  O2-  O475  1  0.90938338  0.57912733  0.54066704  1
  O2-  O476  1  0.91489693  0.56791580  0.87186039  1
  O2-  O477  1  0.91730848  0.83617507  0.19243252  1
  O2-  O478  1  0.91398087  0.83483777  0.52505408  1
  O2-  O479  1  0.89425557  0.82415981  0.84806344  1
  O2-  O480  1  0.12792343  0.07678750  0.31970838  1
  O2-  O481  1  0.16212694  0.10428684  0.62967379  1
  O2-  O482  1  0.15626026  0.06147472  0.96358865  1
  O2-  O483  1  0.15922138  0.32092593  0.30844389  1
  O2-  O484  1  0.17604644  0.33547521  0.66527306  1
  O2-  O485  1  0.14460212  0.31826895  1.05805409  1
  O2-  O486  1  0.17014933  0.59916452  0.31439537  1
  O2-  O487  1  0.21551345  0.62674002  0.65631870  1
  O2-  O488  1  0.22590348  0.67495802  0.98208122  1
  O2-  O489  1  0.19505955  0.84023497  0.30417003  1
  O2-  O490  1  0.18148484  0.75438521  0.62923588  1
  O2-  O491  1  0.06785619  0.79064535  0.96586073  1
  O2-  O492  1  0.44303084  0.07633073  0.30079780  1
  O2-  O493  1  0.40483109  0.06237316  0.64619824  1
  O2-  O494  1  0.40468358  0.07797612  0.99500997  1
  O2-  O495  1  0.42685917  0.35498517  0.28795246  1
  O2-  O496  1  0.41545240  0.32729694  0.63968952  1
  O2-  O497  1  0.46712065  0.43102881  0.95648127  1
  O2-  O498  1  0.40750070  0.57791892  0.30713361  1
  O2-  O499  1  0.42561461  0.59358701  0.63278318  1
  O2-  O500  1  0.44387186  0.55576900  0.96648108  1
  O2-  O501  1  0.42642753  0.82047067  0.30263252  1
  O2-  O502  1  0.42715809  0.85051465  0.63559867  1
  O2-  O503  1  0.38734850  0.80839408  1.00058358  1
  O2-  O504  1  0.66915856  0.08370728  0.29886800  1
  O2-  O505  1  0.66184012  0.07760500  0.64652922  1
  O2-  O506  1  0.66997450  0.06879110  0.97882000  1
  O2-  O507  1  0.67013119  0.34249512  0.31113915  1
  O2-  O508  1  0.65041917  0.31834312  0.65101239  1
  O2-  O509  1  0.69663007  0.35118681  0.98264485  1
  O2-  O510  1  0.66716153  0.58708805  0.37434376  1
  O2-  O511  1  0.66546360  0.57895375  0.64476600  1
  O2-  O512  1  0.66844467  0.59034509  0.96487834  1
  O2-  O513  1  0.66754180  0.83317138  0.30745874  1
  O2-  O514  1  0.66257350  0.84088644  0.64547908  1
  O2-  O515  1  0.65234663  0.81831797  0.97830755  1
  O2-  O516  1  0.91448070  0.07898442  0.32913486  1
  O2-  O517  1  0.90620315  0.08502196  0.64008254  1
  O2-  O518  1  0.92478344  0.05239294  0.97522041  1
  O2-  O519  1  0.89267039  0.32668497  0.30262328  1
  O2-  O520  1  0.89452019  0.32553013  0.63785179  1
  O2-  O521  1  0.90293801  0.29390667  0.99422645  1
  O2-  O522  1  0.91306510  0.57990968  0.32255138  1
  O2-  O523  1  0.90080998  0.57926025  0.60753999  1
  O2-  O524  1  0.91900782  0.49963626  0.98560008  1
  O2-  O525  1  0.89697962  0.81453197  0.32047500  1
  O2-  O526  1  0.92863481  0.84164457  0.64961718  1
  O2-  O527  1  0.94224581  0.91770362  0.96073308  1
  O2-  O528  1  0.08705052  0.15283521  0.02752431  1
  O2-  O529  1  0.07186200  0.17047474  0.37986270  1
  O2-  O530  1  0.06844470  0.16231300  0.68163767  1
  O2-  O531  1  0.05257206  0.38624307  0.04123865  1
  O2-  O532  1  0.15791341  0.45386819  0.36907916  1
  O2-  O533  1  0.08862212  0.50931973  0.72371169  1
  O2-  O534  1  0.07327251  0.65386547  0.02491406  1
  O2-  O535  1  0.06684482  0.64952620  0.36022752  1
  O2-  O536  1  0.04185691  0.63721863  0.69334780  1
  O2-  O537  1  0.06961039  0.91667505  0.02247665  1
  O2-  O538  1  0.13027417  0.92755895  0.36553140  1
  O2-  O539  1  0.09594794  0.95335863  0.69639064  1
  O2-  O540  1  0.28257262  0.08163756  0.04087186  1
  O2-  O541  1  0.25208117  0.07947331  0.40257610  1
  O2-  O542  1  0.33039762  0.15912825  0.67457836  1
  O2-  O543  1  0.30594552  0.42334256  0.04243248  1
  O2-  O544  1  0.32686613  0.41044447  0.34648765  1
  O2-  O545  1  0.34543119  0.42191370  0.67465675  1
  O2-  O546  1  0.33622975  0.66261314  0.05873760  1
  O2-  O547  1  0.33650410  0.66423553  0.36147618  1
  O2-  O548  1  0.37740494  0.69378264  0.69016975  1
  O2-  O549  1  0.42143866  0.96410479  0.05045374  1
  O2-  O550  1  0.36240855  0.90798254  0.35887599  1
  O2-  O551  1  0.31418287  0.89036002  0.68291468  1
  O2-  O552  1  0.64995622  0.19141145  0.04099492  1
  O2-  O553  1  0.59621285  0.17063233  0.34535007  1
  O2-  O554  1  0.56859063  0.14705686  0.68796530  1
  O2-  O555  1  0.60179267  0.43025086  0.01230597  1
  O2-  O556  1  0.57797885  0.41854252  0.34648663  1
  O2-  O557  1  0.57735630  0.41273468  0.68776232  1
  O2-  O558  1  0.58017090  0.66536632  0.01971718  1
  O2-  O559  1  0.57943056  0.65651630  0.31378044  1
  O2-  O560  1  0.58630902  0.66726395  0.68492046  1
  O2-  O561  1  0.57075011  0.90212457  0.01226245  1
  O2-  O562  1  0.58898928  0.91560813  0.34481985  1
  O2-  O563  1  0.57872171  0.92659367  0.69572133  1
  O2-  O564  1  0.84111182  0.14049487  0.02590038  1
  O2-  O565  1  0.82702662  0.15995405  0.35312780  1
  O2-  O566  1  0.82614069  0.16500084  0.69357277  1
  O2-  O567  1  0.84211202  0.47243804  0.02504026  1
  O2-  O568  1  0.82899196  0.41542180  0.35954633  1
  O2-  O569  1  0.82283880  0.42496833  0.66894475  1
  O2-  O570  1  0.79540559  0.59775641  0.03981752  1
  O2-  O571  1  0.83742891  0.66239169  0.36732534  1
  O2-  O572  1  0.84135939  0.67075383  0.68151532  1
  O2-  O573  1  0.80904110  0.91035332  0.02922032  1
  O2-  O574  1  0.82529343  0.91076225  0.36570818  1
  O2-  O575  1  0.89671300  0.95374505  0.70619373  1
