# generated using pymatgen
data_H2O
_symmetry_space_group_name_H-M   'P 1'
_cell_length_a   17.98517771
_cell_length_b   17.98988289
_cell_length_c   22.00429816
_cell_angle_alpha   90.00747646
_cell_angle_beta   89.99754812
_cell_angle_gamma   119.99813306
_symmetry_Int_Tables_number   1
_chemical_formula_structural   H2O
_chemical_formula_sum   'H384 O192'
_cell_volume   6165.79936029
_cell_formula_units_Z   192
loop_
 _symmetry_equiv_pos_site_id
 _symmetry_equiv_pos_as_xyz
  1  'x, y, z'
loop_
 _atom_type_symbol
 _atom_type_oxidation_number
  H+  1.0
  O2-  -2.0
loop_
 _atom_site_type_symbol
 _atom_site_label
 _atom_site_symmetry_multiplicity
 _atom_site_fract_x
 _atom_site_fract_y
 _atom_site_fract_z
 _atom_site_occupancy
  H+  H0  1  0.92186604  0.08175755  0.56883789  1
  H+  H1  1  0.62561917  0.08285218  0.80810626  1
  H+  H2  1  0.40631188  0.87552923  0.98729930  1
  H+  H3  1  0.36155084  0.97297533  0.15141438  1
  H+  H4  1  0.83811850  0.88661609  0.15449619  1
  H+  H5  1  0.58102817  0.66486971  0.73363392  1
  H+  H6  1  0.89493588  0.77182508  0.32928862  1
  H+  H7  1  0.87127951  0.13764529  0.49605847  1
  H+  H8  1  0.11277441  0.72241800  0.82714013  1
  H+  H9  1  0.36238861  0.37823315  0.82326147  1
  H+  H10  1  0.39528494  0.13864755  0.35952582  1
  H+  H11  1  0.97860014  0.60784839  0.19700811  1
  H+  H12  1  0.10436349  0.63639935  0.66649186  1
  H+  H13  1  0.40592510  0.77374091  0.69734965  1
  H+  H14  1  0.36737983  0.72693548  0.49550605  1
  H+  H15  1  0.60519968  0.47034883  0.16097247  1
  H+  H16  1  0.11819534  0.13491393  0.15984743  1
  H+  H17  1  0.34562730  0.73979261  0.00661646  1
  H+  H18  1  0.17509734  0.83998689  0.26719996  1
  H+  H19  1  0.22626995  0.85825346  0.65905271  1
  H+  H20  1  0.61109041  0.21585782  0.16704418  1
  H+  H21  1  0.14921285  0.85456262  1.00914264  1
  H+  H22  1  0.87350378  0.53007208  0.50533957  1
  H+  H23  1  0.81110153  0.66887782  0.27301994  1
  H+  H24  1  0.20476737  0.61927784  0.99779833  1
  H+  H25  1  -0.02084386  0.11325605  0.50850678  1
  H+  H26  1  0.71273289  0.60449775  0.83500018  1
  H+  H27  1  0.86191400  0.47089282  0.66763057  1
  H+  H28  1  0.13706475  0.36734606  0.50286356  1
  H+  H29  1  0.75814667  0.07463988  0.15568393  1
  H+  H30  1  0.12427422  0.72973181  0.02047708  1
  H+  H31  1  0.88436397  0.10902151  0.85583003  1
  H+  H32  1  0.52228877  0.88489438  0.49028217  1
  H+  H33  1  0.64309917  0.86806406  0.99102915  1
  H+  H34  1  0.01860184  0.13596535  0.00921908  1
  H+  H35  1  0.58771344  0.06847587  0.18567402  1
  H+  H36  1  0.63360667  0.26167318  0.83988685  1
  H+  H37  1  0.99636742  0.63450911  0.30352893  1
  H+  H38  1  0.39186359  0.50208064  0.99139476  1
  H+  H39  1  0.50148309  0.90728778  0.64469923  1
  H+  H40  1  0.11465395  0.22250548  0.16515072  1
  H+  H41  1  0.61690353  0.65356916  0.18189485  1
  H+  H42  1  0.08113687  0.17043585  0.73603891  1
  H+  H43  1  0.64359195  0.60897146  0.99127172  1
  H+  H44  1  0.39577952  0.15088533  0.32668871  1
  H+  H45  1  0.13956460  0.86278474  0.66100440  1
  H+  H46  1  0.39525650  0.27181440  0.97967038  1
  H+  H47  1  0.15472097  0.57602826  0.22940296  1
  H+  H48  1  0.71402060  0.35405201  0.19017055  1
  H+  H49  1  0.73111460  0.87674354  0.83683743  1
  H+  H50  1  0.12532140  0.38541983  0.67407194  1
  H+  H51  1  0.71288646  0.59724226  0.32816652  1
  H+  H52  1  0.65013460  0.11172424  0.51829883  1
  H+  H53  1  0.09534283  0.21752406  0.33425083  1
  H+  H54  1  0.86382006  0.64469187  0.48820041  1
  H+  H55  1  0.37247500  0.50476475  0.66822359  1
  H+  H56  1  0.47427698  0.36730765  0.32329474  1
  H+  H57  1  0.17472379  0.31966263  0.36676143  1
  H+  H58  1  0.52702588  0.38373079  1.00282692  1
  H+  H59  1  0.65474196  1.01243298  0.66002298  1
  H+  H60  1  0.03233365  0.89376301  0.83269126  1
  H+  H61  1  0.10857170  0.22685522  0.67545638  1
  H+  H62  1  0.53267356  0.13981556  0.67602915  1
  H+  H63  1  0.11005361  0.72817210  0.67037657  1
  H+  H64  1  0.10619676  0.62841747  0.16589132  1
  H+  H65  1  0.39502951  0.11824224  0.99959931  1
  H+  H66  1  0.88876569  0.61383498  0.82688547  1
  H+  H67  1  0.32146943  0.58929104  0.68998369  1
  H+  H68  1  0.12972350  0.39167283  0.00907914  1
  H+  H69  1  0.46442508  0.72347400  0.02229066  1
  H+  H70  1  0.76472735  0.88193063  0.33592779  1
  H+  H71  1  0.36503677  0.38816190  0.48372312  1
  H+  H72  1  0.12142452  0.72972149  0.33929493  1
  H+  H73  1  0.12172216  0.48518290  1.01239054  1
  H+  H74  1  0.62005408  0.51333723  0.32929693  1
  H+  H75  1  0.68693136  0.07139008  0.59382737  1
  H+  H76  1  0.51742996  0.63349560  0.67685061  1
  H+  H77  1  0.38128368  0.59859933  0.84438285  1
  H+  H78  1  0.02278272  0.38823359  0.48864133  1
  H+  H79  1  -0.01389822  0.11468321  0.66281004  1
  H+  H80  1  0.37390160  0.11356906  0.82423276  1
  H+  H81  1  0.38779333  0.61686880  0.32403248  1
  H+  H82  1  0.15970961  0.58472031  0.55133085  1
  H+  H83  1  0.23922935  0.85959067  -0.00080209  1
  H+  H84  1  0.12582048  0.11515275  0.99567498  1
  H+  H85  1  0.50450177  0.02885265  0.26227528  1
  H+  H86  1  0.10425360  0.37553152  0.83649295  1
  H+  H87  1  0.10296089  0.62748504  0.01736794  1
  H+  H88  1  0.84649537  0.46105707  0.20322927  1
  H+  H89  1  0.61573049  0.47133475  1.00764982  1
  H+  H90  1  0.22459333  0.12048297  0.50604832  1
  H+  H91  1  0.10449784  0.51227928  0.64017766  1
  H+  H92  1  0.72342303  0.11288569  0.34015959  1
  H+  H93  1  0.66523674  0.32506028  0.93587218  1
  H+  H94  1  0.36583085  0.63692880  0.49565322  1
  H+  H95  1  0.62799191  0.51193457  0.83481357  1
  H+  H96  1  0.36382049  0.37968563  0.67021221  1
  H+  H97  1  0.38542359  0.85721710  0.49689404  1
  H+  H98  1  0.11908872  -0.01494596  0.50213818  1
  H+  H99  1  0.39228357  0.53087384  0.32034355  1
  H+  H100  1  0.36201960  0.37227235  -0.00100100  1
  H+  H101  1  0.87710898  0.35392633  0.50308208  1
  H+  H102  1  0.61646197  0.48678968  0.48691750  1
  H+  H103  1  0.08226809  0.90951378  0.09365907  1
  H+  H104  1  0.62737319  1.00450739  0.21002514  1
  H+  H105  1  0.89369367  0.78788951  0.84165638  1
  H+  H106  1  0.14063246  0.61974498  0.32005072  1
  H+  H107  1  0.08554037  0.66667669  0.76550799  1
  H+  H108  1  1.02884197  0.89597657  0.49758040  1
  H+  H109  1  0.37695670  0.26272987  0.83121199  1
  H+  H110  1  0.62954957  0.40584327  0.48551754  1
  H+  H111  1  0.39098677  0.28421040  0.49825558  1
  H+  H112  1  0.35723593  0.97053442  0.81917679  1
  H+  H113  1  0.77195641  0.39645618  0.34559744  1
  H+  H114  1  0.87626141  0.48808150  1.00393559  1
  H+  H115  1  0.31624754  0.24375500  0.33232088  1
  H+  H116  1  0.52450164  0.38324410  0.66781085  1
  H+  H117  1  0.04071663  0.90640402  0.67516006  1
  H+  H118  1  0.83938084  0.37639027  0.17394223  1
  H+  H119  1  0.78085342  0.13377563  0.49565420  1
  H+  H120  1  0.63793641  0.77765814  0.50323242  1
  H+  H121  1  0.10676570  0.63718160  0.48533309  1
  H+  H122  1  0.35928956  0.38422507  0.16002330  1
  H+  H123  1  0.11569472  0.50816322  0.84983536  1
  H+  H124  1  0.12229076  0.00155612  0.33134951  1
  H+  H125  1  0.63674592  0.77122325  0.66162324  1
  H+  H126  1  0.85479502  0.25386998  0.15163557  1
  H+  H127  1  0.33495546  0.70564664  0.17148680  1
  H+  H128  1  0.36625980  -0.02197985  1.00533668  1
  H+  H129  1  0.64511868  0.98954371  -0.00036430  1
  H+  H130  1  0.10567589  0.72528557  0.49038468  1
  H+  H131  1  0.63866304  0.35703138  0.99558431  1
  H+  H132  1  0.15669391  0.87074709  0.33288416  1
  H+  H133  1  0.96003428  0.10528267  0.32513854  1
  H+  H134  1  0.59764002  0.37993051  0.33752081  1
  H+  H135  1  0.52430687  0.64072268  0.82466144  1
  H+  H136  1  0.23036773  0.15364619  0.33468143  1
  H+  H137  1  0.39332731  1.01127012  0.50780985  1
  H+  H138  1  0.54929017  0.90823371  -0.00200432  1
  H+  H139  1  0.88985761  0.78377732  0.50295611  1
  H+  H140  1  0.27231439  0.37385249  1.00272656  1
  H+  H141  1  0.84203897  0.71670561  0.14534279  1
  H+  H142  1  0.71993427  0.35222340  0.83751416  1
  H+  H143  1  0.25258932  0.13744916  0.01310686  1
  H+  H144  1  0.12366129  0.98024373  0.83155804  1
  H+  H145  1  0.10118449  0.37704897  0.16249113  1
  H+  H146  1  0.85310355  0.88071769  0.34523456  1
  H+  H147  1  0.22593257  0.36644867  0.50040428  1
  H+  H148  1  0.54149075  0.63183512  -0.00007480  1
  H+  H149  1  0.39279618  0.27244469  0.17780813  1
  H+  H150  1  0.11133241  0.47803162  0.48549589  1
  H+  H151  1  0.22611815  0.36009128  0.84005704  1
  H+  H152  1  0.77317170  0.88959114  0.67556735  1
  H+  H153  1  0.08621594  0.89949319  -0.03074076  1
  H+  H154  1  -0.02086622  0.10976019  0.17219727  1
  H+  H155  1  0.61863988  0.88678085  0.67627109  1
  H+  H156  1  0.86319312  0.38331602  0.66687116  1
  H+  H157  1  0.32819458  0.90378124  0.72969953  1
  H+  H158  1  0.22528686  0.86039353  0.17251656  1
  H+  H159  1  0.77068626  0.62621632  1.00121150  1
  H+  H160  1  0.63631567  0.28528050  0.33764553  1
  H+  H161  1  0.54636140  0.13822468  0.51406796  1
  H+  H162  1  0.40388595  0.75715755  0.66535189  1
  H+  H163  1  0.39568276  0.27314786  0.65513064  1
  H+  H164  1  0.25579573  0.61412597  0.84870917  1
  H+  H165  1  0.23317787  0.11805150  0.84139932  1
  H+  H166  1  0.27809849  0.39693976  0.32910361  1
  H+  H167  1  0.61168805  0.88413653  0.49309715  1
  H+  H168  1  0.58807032  0.16648510  0.76374903  1
  H+  H169  1  0.28985203  0.18690959  0.77570093  1
  H+  H170  1  0.61686618  0.64599311  0.48098869  1
  H+  H171  1  0.36578781  0.47643476  0.48007687  1
  H+  H172  1  0.13842201  0.86510035  0.50916818  1
  H+  H173  1  0.75462519  0.10761850  0.65737419  1
  H+  H174  1  0.96866997  0.86514235  0.15489429  1
  H+  H175  1  0.85451926  0.71882301  0.00700323  1
  H+  H176  1  0.36504246  0.88679604  0.15777684  1
  H+  H177  1  0.88612486  0.27018972  0.50195840  1
  H+  H178  1  0.11385450  0.97145317  0.15118279  1
  H+  H179  1  0.82751007  0.92021493  0.43522636  1
  H+  H180  1  0.48565911  0.36739171  0.17205753  1
  H+  H181  1  0.13789375  0.86012583  0.84535008  1
  H+  H182  1  0.79206606  0.39954912  0.00904219  1
  H+  H183  1  0.16492201  0.03260123  0.66644690  1
  H+  H184  1  0.76557154  0.88390645  1.00055120  1
  H+  H185  1  0.35074154  0.15316515  0.45134139  1
  H+  H186  1  0.60697843  0.97457234  0.34639131  1
  H+  H187  1  0.63253385  0.86551729  0.32391698  1
  H+  H188  1  0.71586378  0.60228243  0.65443744  1
  H+  H189  1  0.11135197  0.72182552  0.16865632  1
  H+  H190  1  0.38006754  0.95976737  0.32149832  1
  H+  H191  1  0.35992181  0.17401474  0.72729232  1
  H+  H192  1  0.88303500  0.10243137  0.99269009  1
  H+  H193  1  0.88193203  0.27669286  0.33491923  1
  H+  H194  1  0.22731212  0.35729896  0.65660559  1
  H+  H195  1  0.15633550  0.47305797  0.70808338  1
  H+  H196  1  0.44834686  0.56762331  0.54962907  1
  H+  H197  1  0.54547725  0.15406525  0.38929532  1
  H+  H198  1  0.22550682  0.61608543  0.49576874  1
  H+  H199  1  0.85513859  0.68663308  0.65716977  1
  H+  H200  1  0.87010309  0.98301366  0.83095025  1
  H+  H201  1  0.85474647  0.46779410  0.81818646  1
  H+  H202  1  0.08425215  0.66654292  0.08557362  1
  H+  H203  1  0.86918083  0.34824721  0.83589400  1
  H+  H204  1  0.61031812  0.63775830  0.82632068  1
  H+  H205  1  0.09662852  0.46418315  0.16106164  1
  H+  H206  1  0.36539383  0.72231802  0.34169319  1
  H+  H207  1  0.89541909  0.87653147  0.84355976  1
  H+  H208  1  0.20549402  0.59597639  0.16688212  1
  H+  H209  1  0.63937006  0.36659148  0.64850249  1
  H+  H210  1  0.13543522  0.85912402  0.17239854  1
  H+  H211  1  0.35926146  0.97058173  0.67498532  1
  H+  H212  1  0.45534747  0.69710961  1.05071513  1
  H+  H213  1  0.72496818  0.90595536  0.17245730  1
  H+  H214  1  0.97774451  0.61161049  0.65698623  1
  H+  H215  1  0.03766270  0.87644635  0.35944343  1
  H+  H216  1  0.81739986  0.64612875  0.09693119  1
  H+  H217  1  0.00191607  0.88101787  0.00253284  1
  H+  H218  1  0.61078258  0.37658960  0.82387884  1
  H+  H219  1  0.09320616  0.92085679  0.73728757  1
  H+  H220  1  0.64280339  1.01846207  0.50669221  1
  H+  H221  1  0.40018328  0.10075414  0.52196076  1
  H+  H222  1  0.29679154  0.13940018  0.66955587  1
  H+  H223  1  0.85307189  0.60317042  0.67214134  1
  H+  H224  1  0.10304188  0.92083774  0.41356857  1
  H+  H225  1  0.88790292  0.87208425  0.50178959  1
  H+  H226  1  0.39981139  0.11061054  0.66167806  1
  H+  H227  1  0.88595983  1.01547425  -0.00421680  1
  H+  H228  1  0.09495933  0.41804970  0.07868394  1
  H+  H229  1  0.86809370  0.90249645  0.67098704  1
  H+  H230  1  0.62671613  0.14357171  0.00979099  1
  H+  H231  1  0.09679434  0.13003581  0.33988868  1
  H+  H232  1  0.37243028  0.13873236  0.15985090  1
  H+  H233  1  0.11536373  0.13593476  0.82953116  1
  H+  H234  1  0.38336240  0.57430393  0.61763551  1
  H+  H235  1  0.19584991  0.58860698  0.65249966  1
  H+  H236  1  0.13114257  0.27335662  -0.00553592  1
  H+  H237  1  0.85595174  0.12010011  0.14734702  1
  H+  H238  1  0.71667578  0.60122575  0.16939022  1
  H+  H239  1  0.46698760  0.83758882  0.16502126  1
  H+  H240  1  0.61217138  0.64350216  0.33051486  1
  H+  H241  1  0.61025684  0.47344339  0.66687458  1
  H+  H242  1  0.72554242  0.62151653  0.50053279  1
  H+  H243  1  0.40848418  0.89871421  0.64472768  1
  H+  H244  1  0.47197415  0.35402175  0.83248790  1
  H+  H245  1  0.83994874  0.92381901  0.77078462  1
  H+  H246  1  -0.01653264  0.37085462  0.65748450  1
  H+  H247  1  0.48149990  0.11088766  0.15786358  1
  H+  H248  1  -0.02396976  0.61145827  0.82730487  1
  H+  H249  1  0.62464147  0.72422569  -0.00173626  1
  H+  H250  1  0.90330293  0.81250371  0.65631362  1
  H+  H251  1  0.11341951  0.23088212  0.49321526  1
  H+  H252  1  0.22109125  0.35832206  0.17651339  1
  H+  H253  1  0.85118554  0.13029332  0.33790066  1
  H+  H254  1  0.12186513  0.60068486  0.84423183  1
  H+  H255  1  0.49216484  0.09273177  0.30448100  1
  H+  H256  1  0.48793570  0.61806518  0.49004217  1
  H+  H257  1  0.48175658  0.86347971  0.33099716  1
  H+  H258  1  0.02658507  0.13739194  0.83166796  1
  H+  H259  1  -0.04469472  0.34334281  0.84120476  1
  H+  H260  1  0.87360956  0.86076762  -0.00089133  1
  H+  H261  1  0.63375604  0.77866866  0.30979184  1
  H+  H262  1  0.26781534  0.88181977  0.49160234  1
  H+  H263  1  0.89068229  0.61650924  0.98319133  1
  H+  H264  1  0.89333137  1.02514184  0.66254285  1
  H+  H265  1  0.72619547  0.86677270  0.50768025  1
  H+  H266  1  0.37744063  0.75988964  0.84436929  1
  H+  H267  1  0.61583832  0.23256612  0.67120088  1
  H+  H268  1  0.72693625  0.36340857  0.65141345  1
  H+  H269  1  0.80700005  0.41000025  0.55997617  1
  H+  H270  1  0.63067937  0.61066170  0.65699664  1
  H+  H271  1  0.31143426  0.67013722  0.69568642  1
  H+  H272  1  0.37317918  0.86416226  0.32851650  1
  H+  H273  1  0.48259258  0.37057978  0.50151024  1
  H+  H274  1  0.53507192  0.66038097  0.17870210  1
  H+  H275  1  0.22850779  0.61767033  0.31964472  1
  H+  H276  1  0.52293811  0.12668279  0.81936317  1
  H+  H277  1  0.23534307  0.10950389  0.17047667  1
  H+  H278  1  0.62315624  0.23015509  0.00880292  1
  H+  H279  1  0.89274333  0.27199175  0.99833617  1
  H+  H280  1  0.38847357  0.37904865  0.31528113  1
  H+  H281  1  0.62597357  0.14837988  0.36264204  1
  H+  H282  1  0.87222174  0.01592377  0.32321420  1
  H+  H283  1  0.65068509  0.08226429  0.28801288  1
  H+  H284  1  0.88748583  0.36741444  0.34049220  1
  H+  H285  1  0.37747873  0.52223645  0.16810047  1
  H+  H286  1  0.96927917  0.61314990  0.49863449  1
  H+  H287  1  0.86345610  0.98043399  0.49491318  1
  H+  H288  1  0.59416011  0.93236692  0.73134309  1
  H+  H289  1  0.75910496  0.11315522  0.84123927  1
  H+  H290  1  0.57405595  0.40862611  0.10111541  1
  H+  H291  1  0.48144664  0.11597471  0.99539799  1
  H+  H292  1  0.32697469  0.40510740  0.09877344  1
  H+  H293  1  0.33631304  0.41957897  0.38921152  1
  H+  H294  1  0.66644100  0.83163192  0.60256814  1
  H+  H295  1  0.92000909  0.32494348  0.93960985  1
  H+  H296  1  0.30122254  0.62784141  0.78598342  1
  H+  H297  1  0.07741776  0.66603525  0.39514366  1
  H+  H298  1  0.65829148  0.56988432  0.23037906  1
  H+  H299  1  0.81791208  0.91581961  0.06367197  1
  H+  H300  1  0.63612108  0.93993687  0.82648778  1
  H+  H301  1  0.84717542  0.16807253  0.72214211  1
  H+  H302  1  0.52553915  0.64667128  0.32835803  1
  H+  H303  1  0.13800932  0.27034815  0.84250528  1
  H+  H304  1  0.16938701  0.06941112  0.22540549  1
  H+  H305  1  0.40672362  0.58319287  0.22673404  1
  H+  H306  1  0.36413703  0.46844291  0.82202083  1
  H+  H307  1  0.42885107  0.06895651  0.60848145  1
  H+  H308  1  0.92874114  0.85856883  0.59233541  1
  H+  H309  1  0.89805895  0.81841537  0.20538175  1
  H+  H310  1  0.68410664  0.34981773  0.55615294  1
  H+  H311  1  0.65187709  0.33044224  0.27222450  1
  H+  H312  1  0.63861192  0.79369489  0.83375430  1
  H+  H313  1  0.07244669  0.40155524  0.77762880  1
  H+  H314  1  0.66588897  0.87261371  0.23552529  1
  H+  H315  1  0.38594528  0.85148420  0.83722933  1
  H+  H316  1  0.90710242  0.83431682  0.93923762  1
  H+  H317  1  0.30802600  0.68209437  0.06697354  1
  H+  H318  1  0.42316619  0.56742834  0.89473901  1
  H+  H319  1  0.77996879  0.72317467  0.78405324  1
  H+  H320  1  0.29936902  0.19365498  0.42283809  1
  H+  H321  1  0.87806896  0.13138581  0.66671341  1
  H+  H322  1  0.32705532  0.91117008  0.43159029  1
  H+  H323  1  0.92515400  0.07830053  0.90475977  1
  H+  H324  1  0.66322829  0.56979603  0.93214220  1
  H+  H325  1  0.81130500  0.40574317  0.40965745  1
  H+  H326  1  0.30111225  0.22941839  0.04008594  1
  H+  H327  1  0.91334785  0.58287564  0.92342836  1
  H+  H328  1  0.08155248  0.40990425  0.39444378  1
  H+  H329  1  0.49813337  0.92762381  0.19628532  1
  H+  H330  1  0.83345929  0.67414377  0.42967493  1
  H+  H331  1  0.91877433  0.58350728  0.59605471  1
  H+  H332  1  0.16721696  0.82570134  0.90274468  1
  H+  H333  1  0.87582451  0.64678941  0.30263459  1
  H+  H334  1  0.07898001  0.16761807  0.43564350  1
  H+  H335  1  0.16984209  0.08639068  0.90036308  1
  H+  H336  1  0.42006651  0.33068753  0.92007317  1
  H+  H337  1  0.16445133  0.32928105  0.23696687  1
  H+  H338  1  0.41941235  0.33535903  0.59664047  1
  H+  H339  1  0.16434602  0.33250784  0.93416834  1
  H+  H340  1  0.83132416  0.16116285  0.40139329  1
  H+  H341  1  0.16720266  0.83019102  0.56577726  1
  H+  H342  1  0.43047358  0.85303104  0.55738130  1
  H+  H343  1  0.12252158  0.02400002  0.99507433  1
  H+  H344  1  0.42283902  0.06953499  0.21477937  1
  H+  H345  1  0.13544830  0.11729972  0.51123332  1
  H+  H346  1  0.40337426  0.59512223  0.99064443  1
  H+  H347  1  0.92807896  0.34312027  0.59643119  1
  H+  H348  1  0.62201183  0.34682309  0.17845799  1
  H+  H349  1  0.58536751  0.40880169  0.76312763  1
  H+  H350  1  0.40382223  0.08648001  0.88364336  1
  H+  H351  1  0.33426419  0.66294631  0.40076866  1
  H+  H352  1  0.08086675  0.16841011  0.06779283  1
  H+  H353  1  0.82311316  0.40597097  0.76077430  1
  H+  H354  1  0.16683921  0.33306303  0.59738061  1
  H+  H355  1  0.27239805  0.87983103  0.82577999  1
  H+  H356  1  0.80157850  0.12940258  0.06032486  1
  H+  H357  1  0.85583442  0.98265891  0.15721134  1
  H+  H358  1  0.18666653  0.09104520  0.60763153  1
  H+  H359  1  0.81976599  0.67139431  0.75619190  1
  H+  H360  1  0.83786376  0.20638814  0.86052406  1
  H+  H361  1  0.34804919  0.62578468  0.15887482  1
  H+  H362  1  0.42827185  0.83505020  0.26688545  1
  H+  H363  1  1.01549836  0.37520586  0.33806023  1
  H+  H364  1  0.33072918  0.40467911  0.73165073  1
  H+  H365  1  0.66234415  0.58941968  0.55821195  1
  H+  H366  1  0.33878491  0.91417161  0.06273089  1
  H+  H367  1  0.59358832  0.16383106  0.10386055  1
  H+  H368  1  0.75958954  0.11910292  0.93918414  1
  H+  H369  1  0.62107763  0.19560029  0.46831881  1
  H+  H370  1  0.42097205  0.34016183  0.24598770  1
  H+  H371  1  0.42852350  0.83541430  0.93029671  1
  H+  H372  1  0.12095383  0.36173140  0.33443180  1
  H+  H373  1  0.13918504  0.57363129  0.94117475  1
  H+  H374  1  0.07138019  0.02824102  0.28664122  1
  H+  H375  1  0.27582403  0.87710027  0.32695761  1
  H+  H376  1  0.58805843  0.67839243  0.42123507  1
  H+  H377  1  0.94977987  0.85835897  0.29372274  1
  H+  H378  1  0.94382305  0.33945690  0.15280567  1
  H+  H379  1  0.56766341  0.41117208  0.39703192  1
  H+  H380  1  0.57792419  0.90925689  0.40190424  1
  H+  H381  1  0.91270149  0.08041718  0.22880487  1
  H+  H382  1  0.33471472  0.17159364  0.10641502  1
  H+  H383  1  0.66927410  0.84026098  0.92930230  1
  O2-  O384  1  0.08550706  0.16338125  0.14729211  1
  O2-  O385  1  0.08417035  0.16908819  0.48058728  1
  O2-  O386  1  0.08702751  0.16899831  0.81643242  1
  O2-  O387  1  0.07284923  0.40563310  0.14205193  1
  O2-  O388  1  0.08366366  0.41587203  0.47476522  1
  O2-  O389  1  0.07067485  0.40309572  0.82240603  1
  O2-  O390  1  0.07782927  0.66250123  0.15200376  1
  O2-  O391  1  0.07324316  0.66576530  0.47343270  1
  O2-  O392  1  0.08228295  0.66248328  0.81078959  1
  O2-  O393  1  0.07964363  0.90984747  0.13845730  1
  O2-  O394  1  0.09098525  0.92425103  0.48638124  1
  O2-  O395  1  0.09236745  0.91855808  0.81753425  1
  O2-  O396  1  0.34166675  0.17173839  0.15152541  1
  O2-  O397  1  0.32149722  0.18428063  0.46296989  1
  O2-  O398  1  0.32439482  0.17775895  0.80580116  1
  O2-  O399  1  0.32501171  0.40892450  0.14408998  1
  O2-  O400  1  0.33324811  0.41573177  0.46593202  1
  O2-  O401  1  0.33083164  0.40767118  0.80736341  1
  O2-  O402  1  0.31372530  0.65462972  0.14619536  1
  O2-  O403  1  0.33554342  0.66595310  0.47993679  1
  O2-  O404  1  0.31391941  0.63903819  0.82971440  1
  O2-  O405  1  0.32904505  0.90990691  0.14181428  1
  O2-  O406  1  0.32899024  0.91206687  0.47615710  1
  O2-  O407  1  0.33082479  0.90886733  0.80769502  1
  O2-  O408  1  0.58309502  0.15656717  0.14870599  1
  O2-  O409  1  0.60943140  0.17163802  0.50961732  1
  O2-  O410  1  0.58464228  0.15390016  0.80932447  1
  O2-  O411  1  0.57007657  0.40794048  0.14691450  1
  O2-  O412  1  0.58883851  0.42528720  0.47356411  1
  O2-  O413  1  0.58292135  0.40926623  0.80839384  1
  O2-  O414  1  0.59563226  0.69331470  0.19059802  1
  O2-  O415  1  0.58580335  0.67613104  0.46702364  1
  O2-  O416  1  0.58514035  0.67207375  0.80986380  1
  O2-  O417  1  0.69792735  0.99319347  0.20863264  1
  O2-  O418  1  0.58367874  0.91564950  0.47574350  1
  O2-  O419  1  0.60286896  0.96316856  0.80565191  1
  O2-  O420  1  0.80554180  0.12419219  0.13341810  1
  O2-  O421  1  0.84080761  0.16724839  0.47950241  1
  O2-  O422  1  0.80920760  0.14294805  0.86896555  1
  O2-  O423  1  0.80849290  0.40895168  0.18044888  1
  O2-  O424  1  0.79814789  0.41345762  0.51607597  1
  O2-  O425  1  0.82267826  0.40633393  0.80609292  1
  O2-  O426  1  0.81460674  0.65413727  0.14175316  1
  O2-  O427  1  0.83390327  0.67645165  0.47404035  1
  O2-  O428  1  0.80983980  0.69248594  0.79566675  1
  O2-  O429  1  0.81265479  0.92247726  0.14332949  1
  O2-  O430  1  0.83116826  0.91907029  0.48041971  1
  O2-  O431  1  0.84024554  0.92165938  0.81615818  1
  O2-  O432  1  0.17256983  0.07541921  0.18073668  1
  O2-  O433  1  0.16707768  0.08771003  0.52503768  1
  O2-  O434  1  0.17053483  0.08319704  0.85538570  1
  O2-  O435  1  0.16089991  0.32691906  0.19231953  1
  O2-  O436  1  0.16709537  0.33635405  0.51790279  1
  O2-  O437  1  0.16696012  0.33141308  0.85765011  1
  O2-  O438  1  0.14584921  0.56814934  0.18328556  1
  O2-  O439  1  0.16302528  0.58644859  0.50617168  1
  O2-  O440  1  0.14597740  0.56844182  0.86572904  1
  O2-  O441  1  0.16657024  0.83196782  0.19106480  1
  O2-  O442  1  0.16675563  0.83120169  0.52004108  1
  O2-  O443  1  0.16544361  0.82588714  0.85788835  1
  O2-  O444  1  0.41831394  0.07901207  0.17098904  1
  O2-  O445  1  0.43056376  0.06905632  0.52686198  1
  O2-  O446  1  0.40283286  0.08200410  0.83912683  1
  O2-  O447  1  0.42207974  0.33454590  0.19162763  1
  O2-  O448  1  0.42165293  0.34317531  0.51555206  1
  O2-  O449  1  0.41263145  0.32712440  0.84905018  1
  O2-  O450  1  0.40209293  0.58266623  0.18141489  1
  O2-  O451  1  0.43038432  0.58099182  0.51126123  1
  O2-  O452  1  0.41926586  0.57321149  0.84986390  1
  O2-  O453  1  0.44681730  0.86680540  0.19220180  1
  O2-  O454  1  0.41879413  0.83135043  0.51334700  1
  O2-  O455  1  0.41328380  0.82083421  0.85546865  1
  O2-  O456  1  0.57542546  0.02083523  0.21436455  1
  O2-  O457  1  0.67940968  0.07634272  0.52535542  1
  O2-  O458  1  0.66294356  0.05611680  0.80134178  1
  O2-  O459  1  0.64828123  0.31595014  0.19793402  1
  O2-  O460  1  0.70255833  0.36787502  0.51217856  1
  O2-  O461  1  0.66023412  0.32235351  0.85433215  1
  O2-  O462  1  0.65572359  0.56792963  0.18546038  1
  O2-  O463  1  0.66394805  0.59111808  0.51270172  1
  O2-  O464  1  0.65379928  0.57214083  0.85115715  1
  O2-  O465  1  0.67116020  0.90167506  0.19329431  1
  O2-  O466  1  0.66553240  0.83540987  0.52285501  1
  O2-  O467  1  0.66993185  0.85339641  0.84903703  1
  O2-  O468  1  0.91720550  0.07967310  0.18352250  1
  O2-  O469  1  0.91842759  0.08162475  0.52299966  1
  O2-  O470  1  0.92181778  0.08278535  0.85943287  1
  O2-  O471  1  0.88440537  0.31271461  0.16725921  1
  O2-  O472  1  0.91532846  0.33229252  0.51497710  1
  O2-  O473  1  0.89385592  0.31372773  0.85255353  1
  O2-  O474  1  0.93344793  0.57473243  0.22798867  1
  O2-  O475  1  0.91040053  0.59115738  0.51666267  1
  O2-  O476  1  0.91307886  0.57789665  0.83737952  1
  O2-  O477  1  0.90572016  0.83832387  0.16357220  1
  O2-  O478  1  0.92067111  0.84416151  0.51780918  1
  O2-  O479  1  0.92504739  0.84551395  0.86005009  1
  O2-  O480  1  0.12798155  0.05118883  0.30537713  1
  O2-  O481  1  0.20067989  0.09192768  0.65110595  1
  O2-  O482  1  0.15775875  0.08492805  0.98230157  1
  O2-  O483  1  0.16146453  0.32970346  0.32553217  1
  O2-  O484  1  0.16660076  0.33295835  0.64280549  1
  O2-  O485  1  0.16565422  0.33425378  0.98002698  1
  O2-  O486  1  0.17368921  0.59775512  0.29806867  1
  O2-  O487  1  0.14198732  0.57342374  0.63002116  1
  O2-  O488  1  0.14249799  0.57651057  0.98703425  1
  O2-  O489  1  0.18567559  0.84201581  0.31246451  1
  O2-  O490  1  0.16499409  0.82894530  0.64372515  1
  O2-  O491  1  0.17500872  0.82402650  0.98954989  1
  O2-  O492  1  0.45974758  0.03814232  0.28303843  1
  O2-  O493  1  0.42495067  0.07266634  0.65310116  1
  O2-  O494  1  0.42027616  0.08627247  0.98171732  1
  O2-  O495  1  0.41527341  0.34332636  0.30151866  1
  O2-  O496  1  0.41988503  0.33472214  0.64190386  1
  O2-  O497  1  0.42219030  0.33213015  0.96693453  1
  O2-  O498  1  0.42044114  0.59095338  0.30511894  1
  O2-  O499  1  0.39574954  0.56919740  0.66009415  1
  O2-  O500  1  0.42630428  0.56089876  0.97315844  1
  O2-  O501  1  0.42063203  0.83118660  0.31231440  1
  O2-  O502  1  0.45591487  0.90471880  0.61821237  1
  O2-  O503  1  0.43430372  0.84219058  0.97597491  1
  O2-  O504  1  0.65855142  0.08451649  0.33231037  1
  O2-  O505  1  0.69102142  0.07280582  0.64065533  1
  O2-  O506  1  0.73521593  0.10547768  0.98188506  1
  O2-  O507  1  0.65556158  0.34137084  0.31761944  1
  O2-  O508  1  0.66956763  0.33758375  0.63076734  1
  O2-  O509  1  0.66649570  0.32441776  0.98115224  1
  O2-  O510  1  0.65325859  0.57403229  0.31442861  1
  O2-  O511  1  0.65750722  0.57953762  0.63727692  1
  O2-  O512  1  0.66774088  0.57124985  0.97717548  1
  O2-  O513  1  0.66472721  0.84220936  0.30134961  1
  O2-  O514  1  0.66807745  0.83229362  0.64806723  1
  O2-  O515  1  0.67033153  0.83459431  0.97428194  1
  O2-  O516  1  0.90128951  0.07584174  0.30723009  1
  O2-  O517  1  0.92561100  0.08322203  0.64376483  1
  O2-  O518  1  0.91957072  0.07693728  0.98174861  1
  O2-  O519  1  0.91800451  0.33808567  0.32511701  1
  O2-  O520  1  0.92639360  0.35137720  0.64080293  1
  O2-  O521  1  0.94340520  0.31736283  0.97793120  1
  O2-  O522  1  0.95407382  0.63879968  0.27582747  1
  O2-  O523  1  0.91733016  0.57592902  0.64109588  1
  O2-  O524  1  0.92608594  0.59278466  0.96702557  1
  O2-  O525  1  0.93034960  0.83629296  0.33459827  1
  O2-  O526  1  0.93451966  0.86902233  0.63788889  1
  O2-  O527  1  0.90628337  0.83166311  0.98457412  1
  O2-  O528  1  0.08061226  0.16957607  0.02241726  1
  O2-  O529  1  0.06523978  0.15890079  0.35300088  1
  O2-  O530  1  0.07614920  0.16746519  0.69104959  1
  O2-  O531  1  0.11583302  0.43176080  0.03295395  1
  O2-  O532  1  0.07893980  0.40099873  0.34973567  1
  O2-  O533  1  0.10390176  0.42244917  0.69397862  1
  O2-  O534  1  0.08764482  0.66971519  0.03771191  1
  O2-  O535  1  0.08387788  0.66857270  0.34985628  1
  O2-  O536  1  0.07731839  0.66707247  0.68576913  1
  O2-  O537  1  0.06807048  0.91136342  0.00816672  1
  O2-  O538  1  0.10024487  0.91348837  0.36753700  1
  O2-  O539  1  0.09788333  0.92309661  0.69193372  1
  O2-  O540  1  0.30983173  0.18085244  0.03199539  1
  O2-  O541  1  0.26587621  0.20663616  0.35761688  1
  O2-  O542  1  0.36044163  0.17325742  0.68192850  1
  O2-  O543  1  0.33197313  0.39989086  0.01950440  1
  O2-  O544  1  0.33880130  0.42366053  0.34334031  1
  O2-  O545  1  0.33134845  0.40802935  0.68570038  1
  O2-  O546  1  0.29336766  0.69204522  0.02565569  1
  O2-  O547  1  0.33429530  0.66194422  0.35529649  1
  O2-  O548  1  0.27961357  0.60798974  0.70336052  1
  O2-  O549  1  0.33804070  0.91631372  0.01740422  1
  O2-  O550  1  0.34069796  0.90233970  0.34143125  1
  O2-  O551  1  0.32713762  0.90736599  0.68425032  1
  O2-  O552  1  0.59242203  0.16821873  0.02473970  1
  O2-  O553  1  0.60572763  0.18831444  0.37799863  1
  O2-  O554  1  0.59162084  0.17667547  0.69209218  1
  O2-  O555  1  0.58351484  0.41084111  0.02382821  1
  O2-  O556  1  0.56279354  0.40789154  0.35156105  1
  O2-  O557  1  0.58562714  0.41359077  0.68203447  1
  O2-  O558  1  0.60177184  0.66452259  0.01306395  1
  O2-  O559  1  0.58618703  0.67848366  0.34381724  1
  O2-  O560  1  0.57898258  0.66250141  0.68766987  1
  O2-  O561  1  0.60808496  0.93061400  0.01447362  1
  O2-  O562  1  0.57555021  0.91157614  0.35580416  1
  O2-  O563  1  0.59595093  0.92598495  0.68610678  1
  O2-  O564  1  0.81704652  0.14206785  0.01540701  1
  O2-  O565  1  0.82197801  0.15956319  0.35641427  1
  O2-  O566  1  0.84162803  0.15804919  0.67848462  1
  O2-  O567  1  0.84999093  0.43261931  0.02589641  1
  O2-  O568  1  0.82716647  0.41745163  0.36704500  1
  O2-  O569  1  0.82744656  0.40969025  0.68011880  1
  O2-  O570  1  0.83016504  0.65784260  0.01866630  1
  O2-  O571  1  0.83356706  0.66715577  0.31321593  1
  O2-  O572  1  0.82284825  0.63654127  0.68298524  1
  O2-  O573  1  0.82584350  0.91368031  0.01904626  1
  O2-  O574  1  0.82309313  0.91250475  0.35510072  1
  O2-  O575  1  0.83288601  0.92302941  0.69214626  1
