# generated using pymatgen
data_H2O
_symmetry_space_group_name_H-M   'P 1'
_cell_length_a   17.99392854
_cell_length_b   17.99107982
_cell_length_c   22.00275666
_cell_angle_alpha   90.02414113
_cell_angle_beta   89.97257099
_cell_angle_gamma   120.00244744
_symmetry_Int_Tables_number   1
_chemical_formula_structural   H2O
_chemical_formula_sum   'H384 O192'
_cell_volume   6168.50865793
_cell_formula_units_Z   192
loop_
 _symmetry_equiv_pos_site_id
 _symmetry_equiv_pos_as_xyz
  1  'x, y, z'
loop_
 _atom_type_symbol
 _atom_type_oxidation_number
  H+  1.0
  O2-  -2.0
loop_
 _atom_site_type_symbol
 _atom_site_label
 _atom_site_symmetry_multiplicity
 _atom_site_fract_x
 _atom_site_fract_y
 _atom_site_fract_z
 _atom_site_occupancy
  H+  H0  1  0.63549087  0.35656612  0.33168393  1
  H+  H1  1  0.63118843  0.76658098  0.17690627  1
  H+  H2  1  0.52184803  0.13107485  0.34641270  1
  H+  H3  1  0.59518420  0.22011532  0.50607816  1
  H+  H4  1  0.14409162  0.52418423  0.16825258  1
  H+  H5  1  0.57951149  0.61372431  0.81707358  1
  H+  H6  1  0.72876464  0.11403095  0.32706793  1
  H+  H7  1  0.52588106  0.13731796  0.00019991  1
  H+  H8  1  0.57579506  0.66468317  0.40357956  1
  H+  H9  1  0.24278146  0.36395182  -0.00602370  1
  H+  H10  1  0.86249550  0.21937096  0.14052234  1
  H+  H11  1  0.16871191  0.58238637  0.26553513  1
  H+  H12  1  0.75480409  0.28609131  0.77902710  1
  H+  H13  1  0.86166408  0.62676482  0.15203865  1
  H+  H14  1  0.88366021  0.70015242  0.50911056  1
  H+  H15  1  0.15253027  0.76093262  0.51963698  1
  H+  H16  1  0.38826628  1.10805327  0.32795537  1
  H+  H17  1  0.85160358  0.88278171  0.00999485  1
  H+  H18  1  0.22585958  0.10884133  0.00181241  1
  H+  H19  1  0.52748925  0.38856990  0.31562729  1
  H+  H20  1  0.86685345  0.22116003  0.33942393  1
  H+  H21  1  0.60463465  0.42797309  0.27119492  1
  H+  H22  1  0.15160196  0.31588158  -0.08771285  1
  H+  H23  1  0.28363118  0.12234013  0.16412112  1
  H+  H24  1  0.85617551  0.38273754  0.66390749  1
  H+  H25  1  0.27018541  0.13195299  0.67393155  1
  H+  H26  1  0.38110187  0.09668317  0.66016818  1
  H+  H27  1  0.14443538  0.61538373  0.32635134  1
  H+  H28  1  0.48807976  0.11320132  0.17307660  1
  H+  H29  1  0.88240200  0.50413580  0.52276060  1
  H+  H30  1  0.41216674  0.57906337  0.56901726  1
  H+  H31  1  0.74381435  0.85603349  0.85089596  1
  H+  H32  1  0.14081802  0.37807247  0.16742347  1
  H+  H33  1  0.18840592  0.21629784  0.20693288  1
  H+  H34  1  -0.01025784  0.61491492  0.16068002  1
  H+  H35  1  0.22660983  0.11689883  0.51195231  1
  H+  H36  1  0.16639287  0.84602375  0.97866298  1
  H+  H37  1  0.46148919  0.61464621  0.83471575  1
  H+  H38  1  0.60104963  0.72457510  0.34255123  1
  H+  H39  1  0.38086357  0.51664595  0.34249252  1
  H+  H40  1  0.11961169  0.37484893  0.99297707  1
  H+  H41  1  0.47214159  0.85921126  0.32253065  1
  H+  H42  1  0.77244255  0.62499803  0.15639641  1
  H+  H43  1  0.12922164  0.02989763  0.66534438  1
  H+  H44  1  0.47987940  0.85848342  0.17105544  1
  H+  H45  1  -0.00983875  0.14775786  0.14019396  1
  H+  H46  1  0.35063569  0.36835652  0.15345793  1
  H+  H47  1  0.90291040  0.35576206  0.29486699  1
  H+  H48  1  0.28982099  0.87620588  0.49961955  1
  H+  H49  1  0.11688419  0.14639656  0.49015389  1
  H+  H50  1  0.64772165  0.53918451  0.33045556  1
  H+  H51  1  0.61332243  0.09096481  0.84604842  1
  H+  H52  1  0.13674975  0.47185838  -0.00488247  1
  H+  H53  1  0.92781205  0.60449484  0.90223159  1
  H+  H54  1  0.84594998  0.62758657  0.83324878  1
  H+  H55  1  0.12655184  0.39876418  0.81318019  1
  H+  H56  1  0.37460880  0.61761855  0.85375591  1
  H+  H57  1  0.87915274  0.60987420  0.66438370  1
  H+  H58  1  0.63227248  0.28164344  -0.00902146  1
  H+  H59  1  0.37491323  0.35654981  0.99321089  1
  H+  H60  1  0.21568957  0.59137497  0.92587836  1
  H+  H61  1  0.38970770  0.01048232  0.50647509  1
  H+  H62  1  0.35994567  0.12222982  0.49475273  1
  H+  H63  1  0.44281221  0.42159004  0.29026597  1
  H+  H64  1  0.99037462  0.63406889  0.84633573  1
  H+  H65  1  -0.03244912  0.59357343  -0.00609073  1
  H+  H66  1  0.67484481  0.34183665  0.51883156  1
  H+  H67  1  0.65207644  0.82718788  0.26990402  1
  H+  H68  1  0.90329183  0.64616239  0.32517854  1
  H+  H69  1  0.88734576  0.11080206  0.66261349  1
  H+  H70  1  0.62155857  0.36257960  0.83612792  1
  H+  H71  1  0.14937848  0.36837396  0.50726875  1
  H+  H72  1  0.76364109  0.12154497  0.67746318  1
  H+  H73  1  0.85950243  0.76910766  0.49329043  1
  H+  H74  1  0.52172233  0.64625176  0.66159923  1
  H+  H75  1  0.71838590  0.35387632  0.35281659  1
  H+  H76  1  0.40600715  0.77001495  0.49872229  1
  H+  H77  1  0.62123630  0.63813276  1.01045562  1
  H+  H78  1  0.38216965  0.36017232  0.66041774  1
  H+  H79  1  0.42322206  0.08142004  0.26921137  1
  H+  H80  1  0.85847116  0.38694880  0.37845275  1
  H+  H81  1  0.63431403  0.62286979  0.65439376  1
  H+  H82  1  0.11338816  0.38816316  0.33976015  1
  H+  H83  1  0.68792679  0.88664426  0.62186637  1
  H+  H84  1  0.11921966  0.23534122  0.48874350  1
  H+  H85  1  0.33060607  0.84925550  0.66134218  1
  H+  H86  1  0.63618089  0.61631639  0.50229287  1
  H+  H87  1  0.83495974  0.16696280  -0.03758184  1
  H+  H88  1  0.61773268  0.87366077  0.68071343  1
  H+  H89  1  0.46149800  0.79863585  0.68670333  1
  H+  H90  1  0.38928404  0.51607012  0.16565916  1
  H+  H91  1  0.61963016  0.22612758  0.15244926  1
  H+  H92  1  0.61015172  0.73700607  0.67056843  1
  H+  H93  1  0.15487970  0.59906062  0.97632183  1
  H+  H94  1  0.23532311  0.36332599  0.50948557  1
  H+  H95  1  0.14375982  0.75636334  0.82475957  1
  H+  H96  1  0.37624493  0.13067954  0.16249586  1
  H+  H97  1  0.88984822  0.11623690  0.32352459  1
  H+  H98  1  0.13727481  0.12256291  0.66832304  1
  H+  H99  1  1.01734551  0.62876300  0.67714802  1
  H+  H100  1  0.63292908  0.09327074  0.67243004  1
  H+  H101  1  0.46907036  0.35935583  0.83846049  1
  H+  H102  1  0.76720358  0.88933215  0.32980119  1
  H+  H103  1  0.78401559  0.63841889  0.00056224  1
  H+  H104  1  0.72590629  0.11098764  0.16355742  1
  H+  H105  1  0.89440507  0.87707916  0.83895486  1
  H+  H106  1  0.38606240  0.61492392  0.66462094  1
  H+  H107  1  0.70175677  0.34706635  0.83255404  1
  H+  H108  1  0.17331840  0.66277881  0.65568780  1
  H+  H109  1  0.63792901  0.77445956  1.00031788  1
  H+  H110  1  0.76273049  0.63003554  0.67289699  1
  H+  H111  1  0.37557650  0.09932434  0.83727793  1
  H+  H112  1  0.36318489  0.88013708  0.33754431  1
  H+  H113  1  0.84515420  0.21794436  0.87572275  1
  H+  H114  1  0.62738436  0.86151937  0.32947059  1
  H+  H115  1  0.34558049  0.38007161  0.34507816  1
  H+  H116  1  0.98895000  0.10420338  0.95808568  1
  H+  H117  1  0.30691267  0.90111200  0.99973545  1
  H+  H118  1  0.15750952  0.84981371  0.52111547  1
  H+  H119  1  0.38593997  0.60627754  0.50564106  1
  H+  H120  1  0.61456311  0.99863456  0.85196804  1
  H+  H121  1  0.88842775  0.02805959  0.31638229  1
  H+  H122  1  0.13577180  0.87698476  0.17493695  1
  H+  H123  1  0.01148434  0.88896520  0.68320602  1
  H+  H124  1  0.21822364  0.36121415  0.32758650  1
  H+  H125  1  0.87634640  0.26513139  0.65643085  1
  H+  H126  1  0.43434646  0.60524114  -0.07258941  1
  H+  H127  1  0.86997295  0.46952182  0.00955989  1
  H+  H128  1  0.56444200  0.93271639  0.39567753  1
  H+  H129  1  0.88448632  0.58601035  0.49790176  1
  H+  H130  1  1.04081024  0.38871713  0.49972054  1
  H+  H131  1  0.59801760  0.21650809  0.83411339  1
  H+  H132  1  0.82916139  0.15902348  0.08269163  1
  H+  H133  1  0.60370173  0.48243554  0.82538867  1
  H+  H134  1  0.46664824  0.36229955  0.99740551  1
  H+  H135  1  0.52444908  0.62952393  0.16304188  1
  H+  H136  1  0.12688325  0.72102366  0.14070915  1
  H+  H137  1  0.60276055  0.47212531  1.00685625  1
  H+  H138  1  0.71469287  0.36489780  0.65736078  1
  H+  H139  1  0.15250395  0.09684996  0.17498030  1
  H+  H140  1  0.28518747  0.89431800  0.15533609  1
  H+  H141  1  0.87821742  0.47676528  0.16231359  1
  H+  H142  1  0.12852954  0.73429218  0.34330031  1
  H+  H143  1  0.61212802  0.49351045  0.48142314  1
  H+  H144  1  0.00622774  0.12878031  0.85739159  1
  H+  H145  1  0.36728975  0.72174183  0.33250084  1
  H+  H146  1  0.06461682  0.84637785  0.48294012  1
  H+  H147  1  0.08600634  0.89492046  0.01639150  1
  H+  H148  1  0.30659518  0.68101269  0.67389431  1
  H+  H149  1  0.13566523  0.36379511  0.65976431  1
  H+  H150  1  0.42317873  0.32743445  0.60770101  1
  H+  H151  1  0.28966819  0.63143705  1.00737930  1
  H+  H152  1  0.02524853  0.13911718  0.33390117  1
  H+  H153  1  0.88497724  0.77269471  -0.00870749  1
  H+  H154  1  0.51744069  0.39408664  0.67676022  1
  H+  H155  1  0.64471945  0.84048155  0.52145759  1
  H+  H156  1  0.49730010  0.36014301  0.50426222  1
  H+  H157  1  0.54587246  0.87476688  0.49566377  1
  H+  H158  1  0.16867791  0.33105728  0.60285805  1
  H+  H159  1  0.13045746  0.27083951  0.32201077  1
  H+  H160  1  0.39085493  0.85803611  0.17001183  1
  H+  H161  1  0.05767122  0.91187581  0.10538395  1
  H+  H162  1  0.86939535  0.87045362  0.18058585  1
  H+  H163  1  0.27680732  0.87462725  0.80989085  1
  H+  H164  1  0.06689881  0.86584608  0.51389782  1
  H+  H165  1  0.11533777  0.89122721  0.34208106  1
  H+  H166  1  0.39030571  0.11301794  0.99120793  1
  H+  H167  1  0.21679627  0.93596070  0.94729237  1
  H+  H168  1  0.76220360  0.87891022  0.17071436  1
  H+  H169  1  0.61467607  0.97330403  0.15879717  1
  H+  H170  1  0.36016713  0.21677137  0.82762730  1
  H+  H171  1  0.61991320  0.10253754  -0.00480313  1
  H+  H172  1  0.39028087  0.60412439  0.17151400  1
  H+  H173  1  0.03858396  0.64984300  0.34071264  1
  H+  H174  1  0.51613140  0.85438662  0.84461869  1
  H+  H175  1  0.60802955  0.71312214  0.49774331  1
  H+  H176  1  0.37873367  0.21712314  0.49828072  1
  H+  H177  1  0.85868243  0.47338055  0.67155851  1
  H+  H178  1  0.89115748  0.78566968  0.32942943  1
  H+  H179  1  0.60862482  0.86284653  0.84490402  1
  H+  H180  1  1.02429812  0.37879336  0.66973232  1
  H+  H181  1  0.63642672  0.60974715  0.17667330  1
  H+  H182  1  0.11730923  0.98124446  0.33399281  1
  H+  H183  1  0.85146421  -0.02818457  0.16709427  1
  H+  H184  1  0.61867622  0.13649668  0.15463712  1
  H+  H185  1  0.12411806  0.25760672  0.97550545  1
  H+  H186  1  0.27491675  0.38846771  0.66965650  1
  H+  H187  1  0.16395809  0.09141311  0.56988158  1
  H+  H188  1  0.27656512  0.63173699  0.33321728  1
  H+  H189  1  0.28232792  0.63593715  0.49157690  1
  H+  H190  1  0.36110490  0.22196237  0.00833678  1
  H+  H191  1  0.90997330  0.28572149  0.99514055  1
  H+  H192  1  -0.01085439  0.36120913  0.31930306  1
  H+  H193  1  0.36694271  0.72020247  0.16271427  1
  H+  H194  1  0.61046355  0.47347545  0.16290109  1
  H+  H195  1  0.37228625  0.39214115  0.49774189  1
  H+  H196  1  0.42729143  0.89526932  0.67704300  1
  H+  H197  1  0.61056002  -0.01478843  0.33630581  1
  H+  H198  1  0.38500548  0.52457444  0.66176311  1
  H+  H199  1  0.09380789  0.96159649  0.16774764  1
  H+  H200  1  0.98419299  0.12590494  0.50632514  1
  H+  H201  1  0.09995988  0.88850887  0.67699081  1
  H+  H202  1  0.20907028  0.86129467  0.68067030  1
  H+  H203  1  0.80379680  0.37869289  0.75243117  1
  H+  H204  1  0.62175691  0.89216529  0.44906798  1
  H+  H205  1  0.11934880  0.23646124  0.67752752  1
  H+  H206  1  0.96145407  0.86184402  0.17666856  1
  H+  H207  1  0.52719662  0.87933533  1.00577868  1
  H+  H208  1  0.39169267  0.98801331  0.00614592  1
  H+  H209  1  0.90135773  0.35906891  0.16366016  1
  H+  H210  1  0.03135078  0.63072143  0.49507788  1
  H+  H211  1  0.14985295  0.61632149  0.50585877  1
  H+  H212  1  0.60567724  0.48587167  0.67271972  1
  H+  H213  1  0.64098750  0.11638924  0.32746750  1
  H+  H214  1  0.15916555  0.49900327  0.80171948  1
  H+  H215  1  0.76755770  0.89419196  0.68765566  1
  H+  H216  1  0.23291957  0.86718858  0.33255651  1
  H+  H217  1  0.03519797  0.38291714  0.14577785  1
  H+  H218  1  0.65175783  0.12123449  0.52041684  1
  H+  H219  1  0.25282777  0.35918046  0.81601296  1
  H+  H220  1  0.85897796  0.89349799  0.33265385  1
  H+  H221  1  0.39623987  0.76761269  -0.00056686  1
  H+  H222  1  0.62907378  0.37166879  0.66225748  1
  H+  H223  1  0.86218978  0.97941997  0.68051495  1
  H+  H224  1  0.03133013  0.14762780  0.68454099  1
  H+  H225  1  0.23317800  0.61238004  0.17189232  1
  H+  H226  1  0.64025746  0.06256378  0.92978180  1
  H+  H227  1  0.41171822  0.86095637  0.50002976  1
  H+  H228  1  0.11438965  0.47772305  0.33961064  1
  H+  H229  1  0.58017486  0.41572623  0.10225764  1
  H+  H230  1  0.90724872  0.08544790  0.22629155  1
  H+  H231  1  0.51131691  0.12587037  0.83301412  1
  H+  H232  1  0.16891313  0.07437786  0.94027953  1
  H+  H233  1  0.00067113  0.37754516  -0.00311566  1
  H+  H234  1  0.89698511  0.55790399  0.31094062  1
  H+  H235  1  0.70627314  0.53634315  0.94002877  1
  H+  H236  1  0.10956804  0.13178100  0.00339050  1
  H+  H237  1  0.37102480  0.48119752  0.49965485  1
  H+  H238  1  0.50915183  0.29595718  0.54235395  1
  H+  H239  1  0.87082107  0.86416739  0.68068998  1
  H+  H240  1  0.64361824  0.36565577  0.16680414  1
  H+  H241  1  0.78301941  0.65384705  0.34692452  1
  H+  H242  1  0.36358418  0.22210483  0.34714087  1
  H+  H243  1  0.10352776  0.68858384  -0.02183452  1
  H+  H244  1  0.36824770  0.97199802  0.34045193  1
  H+  H245  1  0.86724729  0.34152541  0.83711636  1
  H+  H246  1  0.47243143  0.35593244  0.16755608  1
  H+  H247  1  0.83180720  0.91508640  0.47904654  1
  H+  H248  1  0.62048212  0.88685855  1.00601093  1
  H+  H249  1  0.88889617  0.04396509  0.49979152  1
  H+  H250  1  -0.04438041  0.91136331  0.48697323  1
  H+  H251  1  0.14976831  0.63915958  0.81412470  1
  H+  H252  1  0.40089115  1.02230206  0.17373048  1
  H+  H253  1  0.63223118  0.00385932  0.66919342  1
  H+  H254  1  0.98135769  0.87471277  0.32518864  1
  H+  H255  1  0.18070239  0.20900866  0.17322043  1
  H+  H256  1  0.38187770  0.61287277  0.33495159  1
  H+  H257  1  0.22952176  0.09827022  0.84900714  1
  H+  H258  1  0.91706324  0.83654659  0.90304142  1
  H+  H259  1  0.09931530  0.72142938  0.68289381  1
  H+  H260  1  0.47889582  0.61175489  0.34032320  1
  H+  H261  1  0.34418900  0.36527507  0.82112001  1
  H+  H262  1  0.92526519  0.36192423  0.47296932  1
  H+  H263  1  0.96349116  0.87030830  0.99407400  1
  H+  H264  1  0.15269096  0.52984650  0.51306849  1
  H+  H265  1  -0.01647870  0.86287188  0.84165552  1
  H+  H266  1  0.73055107  0.62890217  0.50497298  1
  H+  H267  1  0.23310270  0.36778428  0.17172587  1
  H+  H268  1  0.72460089  0.64973863  0.84228076  1
  H+  H269  1  0.41179120  0.52661182  0.97446887  1
  H+  H270  1  0.78696134  0.38865329  0.15974775  1
  H+  H271  1  0.08646630  1.01242783  0.47988920  1
  H+  H272  1  0.40097025  0.86018119  0.99828819  1
  H+  H273  1  0.64118457  0.62442908  0.33510324  1
  H+  H274  1  0.88300800  0.60253564  0.99987248  1
  H+  H275  1  0.62042533  1.00514993  -0.00291101  1
  H+  H276  1  0.14092307  1.00845386  0.85094687  1
  H+  H277  1  0.72710517  0.86418766  1.00259472  1
  H+  H278  1  0.36111950  0.21766733  0.67554031  1
  H+  H279  1  0.10462986  -0.00856671  1.01364586  1
  H+  H280  1  0.37687613  0.84207355  0.84171222  1
  H+  H281  1  0.86606672  0.10159012  0.16523064  1
  H+  H282  1  0.84946059  0.71632171  0.68907619  1
  H+  H283  1  0.85469715  0.46960337  0.39254686  1
  H+  H284  1  0.22829916  0.11627050  0.33027955  1
  H+  H285  1  0.89565433  0.38389514  1.00953327  1
  H+  H286  1  0.63088466  0.85642761  0.17424149  1
  H+  H287  1  0.83526313  0.36548975  0.53301416  1
  H+  H288  1  0.68641993  0.10039313  0.58060090  1
  H+  H289  1  0.33897866  0.16138831  0.06703397  1
  H+  H290  1  0.67865992  0.60401949  0.92519322  1
  H+  H291  1  0.41702011  0.07139337  0.56704211  1
  H+  H292  1  0.89200751  0.81932785  0.62578953  1
  H+  H293  1  0.08986582  0.65240084  0.76799489  1
  H+  H294  1  0.68696728  0.71232525  0.86443313  1
  H+  H295  1  0.65085918  0.33837415  0.93218556  1
  H+  H296  1  0.57700497  0.42741554  0.76474242  1
  H+  H297  1  0.13926079  0.11792193  0.32525383  1
  H+  H298  1  0.50583472  0.11908106  0.49774515  1
  H+  H299  1  0.54781415  0.62903188  0.75434616  1
  H+  H300  1  0.32544341  0.41233531  0.40750157  1
  H+  H301  1  0.10353802  0.41602798  0.08985038  1
  H+  H302  1  0.85265097  0.41367028  0.07317336  1
  H+  H303  1  0.67178029  0.58814960  0.23644626  1
  H+  H304  1  0.67260040  0.33252096  0.22443939  1
  H+  H305  1  0.80555885  0.39139702  0.47424149  1
  H+  H306  1  0.63175948  0.30741408  0.58350513  1
  H+  H307  1  0.40906130  0.33645619  0.25503857  1
  H+  H308  1  0.32821944  0.15675181  0.76828167  1
  H+  H309  1  0.84834286  0.92838611  0.77527655  1
  H+  H310  1  0.34883819  0.92085474  0.09783890  1
  H+  H311  1  0.09390882  0.42217090  0.72261286  1
  H+  H312  1  0.10012066  0.22511299  0.78092262  1
  H+  H313  1  0.84726432  0.69158837  0.40387906  1
  H+  H314  1  0.60966664  0.22190614  0.35119151  1
  H+  H315  1  0.05737374  0.95126446  0.42095532  1
  H+  H316  1  0.09345451  0.65442968  0.04664817  1
  H+  H317  1  0.80081739  0.62727529  0.77190706  1
  H+  H318  1  0.51649342  0.62489831  0.49405476  1
  H+  H319  1  0.21878421  0.94478779  0.20629618  1
  H+  H320  1  0.89291051  0.26685437  0.49687628  1
  H+  H321  1  0.18183744  0.83062975  0.87586468  1
  H+  H322  1  0.57463928  0.16151642  0.43686241  1
  H+  H323  1  0.52573751  0.12090623  0.67852592  1
  H+  H324  1  0.58531656  0.16472251  0.06011021  1
  H+  H325  1  0.41532807  0.07976313  0.93029301  1
  H+  H326  1  0.17114610  0.82918888  0.61462812  1
  H+  H327  1  0.90648946  0.16489293  0.00193548  1
  H+  H328  1  0.87405361  0.14493214  0.49625315  1
  H+  H329  1  0.33910311  0.66005211  0.10387470  1
  H+  H330  1  0.33481407  0.16143055  0.40505854  1
  H+  H331  1  0.92231792  0.08555094  0.60458846  1
  H+  H332  1  0.35355118  0.90640472  0.76167774  1
  H+  H333  1  0.93506038  0.31895726  0.21384731  1
  H+  H334  1  0.10578035  0.86721704  0.82165208  1
  H+  H335  1  0.66462101  0.58818519  0.59768975  1
  H+  H336  1  0.65488064  0.79109412  0.57769756  1
  H+  H337  1  0.33994709  0.90947477  0.43578890  1
  H+  H338  1  0.58608025  0.91319973  0.09979430  1
  H+  H339  1  0.41395326  0.82558583  0.26270140  1
  H+  H340  1  0.31014276  0.39323556  0.09608861  1
  H+  H341  1  0.90366689  0.89642510  0.54896172  1
  H+  H342  1  0.53120364  0.63420732  0.00589195  1
  H+  H343  1  0.78642714  0.15035984  0.50076097  1
  H+  H344  1  0.82728598  0.95497163  0.41779570  1
  H+  H345  1  0.38654716  0.26234968  0.16888409  1
  H+  H346  1  0.40639820  0.81691702  0.90389080  1
  H+  H347  1  0.93908518  0.60383735  0.22251913  1
  H+  H348  1  0.12543118  0.63260036  0.14832670  1
  H+  H349  1  0.83561233  0.66505012  0.06402109  1
  H+  H350  1  0.67268096  0.08651071  0.22664317  1
  H+  H351  1  0.07591278  0.91086589  0.77109347  1
  H+  H352  1  0.09331888  0.42139227  0.43794983  1
  H+  H353  1  0.30530237  0.45756698  0.01774080  1
  H+  H354  1  0.54923976  0.45452056  0.42583257  1
  H+  H355  1  0.16761285  0.34338780  0.23564579  1
  H+  H356  1  0.83570672  0.16459755  0.40067734  1
  H+  H357  1  0.92318270  0.34911681  0.89488702  1
  H+  H358  1  0.39150405  1.01215295  0.65743652  1
  H+  H359  1  0.09261851  0.66904087  0.43654433  1
  H+  H360  1  0.33885170  0.66033699  0.43048067  1
  H+  H361  1  0.17327094  0.84317894  0.27388982  1
  H+  H362  1  0.05990622  0.16589552  0.04821150  1
  H+  H363  1  0.82427879  0.90661484  0.07259466  1
  H+  H364  1  0.91436933  0.58480523  0.60530322  1
  H+  H365  1  0.68187279  0.82266854  0.90832274  1
  H+  H366  1  0.91323215  0.32376822  0.59761179  1
  H+  H367  1  0.33053626  0.41070983  0.72969057  1
  H+  H368  1  0.17143455  0.07108715  0.23889951  1
  H+  H369  1  0.08432476  0.22696812  0.14180897  1
  H+  H370  1  0.75719576  0.12682398  0.87835255  1
  H+  H371  1  0.83214802  0.16393465  0.73145372  1
  H+  H372  1  0.89402191  0.98463732  0.83695334  1
  H+  H373  1  0.32133940  0.65929797  0.73947974  1
  H+  H374  1  0.57658853  0.14511021  0.74109916  1
  H+  H375  1  0.90994268  0.84114543  0.24360081  1
  H+  H376  1  0.21255578  0.64436836  0.59758143  1
  H+  H377  1  0.58811274  0.66365349  0.10606406  1
  H+  H378  1  0.60070461  0.38282203  0.00627545  1
  H+  H379  1  0.37959087  0.63485850  0.00978568  1
  H+  H380  1  0.41026172  0.32525733  0.89780398  1
  H+  H381  1  0.37967135  0.01087621  0.83603673  1
  H+  H382  1  0.08486231  0.17122206  0.39426358  1
  H+  H383  1  0.31703328  0.69815099  0.85899842  1
  O2-  O384  1  0.03555195  0.19437618  0.11493667  1
  O2-  O385  1  0.08734393  0.17547259  0.47184210  1
  O2-  O386  1  0.08445784  0.22788742  0.82374322  1
  O2-  O387  1  0.09836994  0.41631919  0.13581130  1
  O2-  O388  1  0.09966194  0.42298723  0.48296579  1
  O2-  O389  1  0.11142050  0.43956938  0.79463722  1
  O2-  O390  1  0.09589794  0.66121858  0.12747224  1
  O2-  O391  1  0.09196465  0.66532430  0.48199953  1
  O2-  O392  1  0.10508017  0.65791453  0.81209870  1
  O2-  O393  1  0.05795041  0.90254506  0.15047680  1
  O2-  O394  1  0.03687781  0.97443199  0.45355117  1
  O2-  O395  1  0.07604381  0.90134115  0.81614067  1
  O2-  O396  1  0.34237541  0.15797851  0.14771016  1
  O2-  O397  1  0.33696720  0.15964545  0.48094219  1
  O2-  O398  1  0.32967337  0.15549012  0.81366219  1
  O2-  O399  1  0.31738172  0.39710417  0.14144848  1
  O2-  O400  1  0.34154830  0.41978844  0.48185224  1
  O2-  O401  1  0.31371987  0.39227232  0.80237288  1
  O2-  O402  1  0.33464689  0.65880868  0.14937802  1
  O2-  O403  1  0.34244120  0.66033859  0.47536109  1
  O2-  O404  1  0.27890787  0.63377548  0.86174432  1
  O2-  O405  1  0.34591624  0.91848710  0.14349703  1
  O2-  O406  1  0.34718970  0.91255711  0.48090398  1
  O2-  O407  1  0.34071974  0.90741597  0.80548436  1
  O2-  O408  1  0.58675752  0.16526226  0.13909934  1
  O2-  O409  1  0.57014728  0.15811974  0.48360598  1
  O2-  O410  1  0.57340603  0.15540795  0.82138611  1
  O2-  O411  1  0.58128111  0.41256221  0.14798464  1
  O2-  O412  1  0.57257709  0.43851002  0.45992296  1
  O2-  O413  1  0.57524774  0.42334078  0.81082065  1
  O2-  O414  1  0.58728899  0.66328098  0.15137719  1
  O2-  O415  1  0.57555176  0.65495304  0.47591536  1
  O2-  O416  1  0.52724901  0.59629730  0.79266851  1
  O2-  O417  1  0.58413407  0.91203721  0.14538663  1
  O2-  O418  1  0.61028950  0.90405374  0.49001940  1
  O2-  O419  1  0.57816937  0.89528364  0.84810282  1
  O2-  O420  1  0.82468439  0.15867302  0.12792923  1
  O2-  O421  1  0.84266049  0.17330068  0.47783600  1
  O2-  O422  1  0.81565079  0.15920138  0.89478318  1
  O2-  O423  1  0.84862216  0.41585386  0.14757861  1
  O2-  O424  1  0.80872987  0.39886311  0.51891373  1
  O2-  O425  1  0.78418829  0.34598986  0.79197172  1
  O2-  O426  1  0.82980598  0.65456761  0.13715014  1
  O2-  O427  1  0.84374073  0.70783646  0.48359970  1
  O2-  O428  1  0.79014490  0.61596628  0.81601786  1
  O2-  O429  1  0.82420995  0.90854123  0.15703994  1
  O2-  O430  1  0.82119913  0.95958220  0.46218298  1
  O2-  O431  1  0.85571318  0.92519866  0.82043549  1
  O2-  O432  1  0.17175787  0.05993224  0.19354897  1
  O2-  O433  1  0.16616832  0.09418904  0.52441315  1
  O2-  O434  1  0.17529489  0.06367362  0.87220608  1
  O2-  O435  1  0.17139542  0.34725593  0.18890386  1
  O2-  O436  1  0.17393068  0.33248513  0.52155451  1
  O2-  O437  1  0.14705224  0.31570083  0.84475263  1
  O2-  O438  1  0.17061439  0.58342857  0.18469726  1
  O2-  O439  1  0.18484142  0.59224063  0.52240734  1
  O2-  O440  1  0.22828437  0.61367211  0.80477015  1
  O2-  O441  1  0.18894452  0.88405904  0.19498631  1
  O2-  O442  1  0.18661560  0.82029396  0.53720337  1
  O2-  O443  1  0.16959151  0.82126619  0.83210373  1
  O2-  O444  1  0.42826301  0.08205081  0.19029033  1
  O2-  O445  1  0.41808414  0.07233923  0.52088545  1
  O2-  O446  1  0.40554040  0.06930782  0.85453588  1
  O2-  O447  1  0.41094702  0.32409028  0.18136294  1
  O2-  O448  1  0.46397249  0.30958584  0.53189694  1
  O2-  O449  1  0.40917533  0.32139876  0.85284695  1
  O2-  O450  1  0.42209548  0.57414345  0.18285574  1
  O2-  O451  1  0.41434819  0.57485988  0.52312028  1
  O2-  O452  1  0.43229006  0.63103085  0.86690964  1
  O2-  O453  1  0.41916306  0.82665603  0.18635312  1
  O2-  O454  1  0.44373461  0.83118203  0.50943361  1
  O2-  O455  1  0.39510950  0.80303876  0.85982684  1
  O2-  O456  1  0.66690320  0.08208874  0.18162884  1
  O2-  O457  1  0.70412939  0.13244513  0.54132077  1
  O2-  O458  1  0.64091234  0.06049494  0.86543551  1
  O2-  O459  1  0.67643999  0.33667154  0.17989709  1
  O2-  O460  1  0.62018645  0.29703138  0.53587150  1
  O2-  O461  1  0.64596224  0.32819527  0.85353155  1
  O2-  O462  1  0.66407855  0.57657134  0.19221565  1
  O2-  O463  1  0.67054767  0.58970411  0.51743934  1
  O2-  O464  1  0.67635466  0.65206182  0.86389496  1
  O2-  O465  1  0.66017906  0.82703428  0.19303654  1
  O2-  O466  1  0.66270780  0.79779608  0.53348807  1
  O2-  O467  1  0.68664855  0.81059749  0.86451406  1
  O2-  O468  1  0.89962392  0.07523358  0.18128121  1
  O2-  O469  1  0.92518233  0.09863447  0.52388320  1
  O2-  O470  1  0.97209689  0.06928526  0.87363793  1
  O2-  O471  1  0.93243508  0.32632868  0.16938671  1
  O2-  O472  1  0.92423779  0.33123940  0.50973248  1
  O2-  O473  1  0.90237207  0.31964843  0.85589912  1
  O2-  O474  1  0.93172350  0.58548859  0.17950440  1
  O2-  O475  1  0.91920015  0.56860826  0.52136143  1
  O2-  O476  1  0.94476190  0.64078063  0.86561449  1
  O2-  O477  1  0.90298762  0.83869800  0.19668345  1
  O2-  O478  1  0.89876991  0.87016516  0.50945488  1
  O2-  O479  1  0.92133979  0.83981498  0.85640399  1
  O2-  O480  1  0.16999686  0.08703732  0.31147492  1
  O2-  O481  1  0.16302165  0.08940997  0.64947627  1
  O2-  O482  1  0.16524178  0.07876592  0.98693292  1
  O2-  O483  1  0.16080170  0.33299273  0.30751738  1
  O2-  O484  1  0.16920224  0.33326106  0.64786261  1
  O2-  O485  1  0.15598737  0.31850622  0.96058841  1
  O2-  O486  1  0.17107707  0.58169943  0.31095266  1
  O2-  O487  1  0.22759305  0.68301885  0.63308374  1
  O2-  O488  1  0.19382639  0.57616292  0.96879812  1
  O2-  O489  1  0.17121477  0.83734482  0.31871868  1
  O2-  O490  1  0.15554061  0.83301653  0.65779920  1
  O2-  O491  1  0.21539953  0.88130727  0.95256578  1
  O2-  O492  1  0.42063451  0.07938675  0.31477495  1
  O2-  O493  1  0.41399277  0.07107638  0.64167970  1
  O2-  O494  1  0.42224768  0.08450303  0.97584343  1
  O2-  O495  1  0.42008422  0.36043214  0.29817950  1
  O2-  O496  1  0.41442950  0.32851579  0.65194229  1
  O2-  O497  1  0.40666574  0.32732168  0.98133041  1
  O2-  O498  1  0.41432142  0.57814408  0.32741094  1
  O2-  O499  1  0.41280652  0.58413757  0.64427337  1
  O2-  O500  1  0.43414052  0.58838665  0.97445020  1
  O2-  O501  1  0.41155976  0.82374899  0.30853536  1
  O2-  O502  1  0.49294823  0.85450081  0.66538858  1
  O2-  O503  1  0.42699283  0.82684198  0.98175426  1
  O2-  O504  1  0.66915356  0.08577898  0.30985498  1
  O2-  O505  1  0.66597802  0.06559622  0.65581704  1
  O2-  O506  1  0.64493005  0.06607155  0.97829740  1
  O2-  O507  1  0.66614923  0.32357642  0.32777610  1
  O2-  O508  1  0.65310651  0.33640564  0.64588306  1
  O2-  O509  1  0.65088999  0.34066359  0.97752627  1
  O2-  O510  1  0.67867240  0.60123573  0.32126018  1
  O2-  O511  1  0.66304882  0.58902531  0.64292437  1
  O2-  O512  1  0.68592927  0.57112907  0.96044669  1
  O2-  O513  1  0.65390885  0.82768387  0.31567168  1
  O2-  O514  1  0.67158081  0.85264538  0.65918963  1
  O2-  O515  1  0.66676422  0.83404583  0.98432748  1
  O2-  O516  1  0.92157724  0.09010776  0.30401749  1
  O2-  O517  1  0.91953480  0.08162843  0.64990172  1
  O2-  O518  1  0.93723960  0.08075277  0.93080914  1
  O2-  O519  1  0.93248548  0.32297491  0.29792800  1
  O2-  O520  1  0.90557071  0.32564804  0.64157741  1
  O2-  O521  1  0.93739663  0.34999474  0.98665374  1
  O2-  O522  1  0.93527039  0.61939454  0.30592800  1
  O2-  O523  1  0.91204382  0.58146376  0.65006296  1
  O2-  O524  1  0.90535715  0.56462019  0.98467681  1
  O2-  O525  1  0.91938985  0.84497140  0.31163932  1
  O2-  O526  1  0.90072140  0.83002544  0.66934557  1
  O2-  O527  1  0.90727917  0.83207106  0.97421754  1
  O2-  O528  1  0.07288174  0.15877646  0.00499982  1
  O2-  O529  1  0.08632165  0.17118688  0.34837723  1
  O2-  O530  1  0.09165752  0.17874836  0.69863495  1
  O2-  O531  1  0.10150571  0.41389248  0.01409775  1
  O2-  O532  1  0.08216763  0.41724692  0.35530465  1
  O2-  O533  1  0.08640499  0.41081883  0.67725236  1
  O2-  O534  1  0.08201030  0.63703653  0.00296276  1
  O2-  O535  1  0.09736381  0.67275557  0.35719196  1
  O2-  O536  1  0.07778318  0.66019531  0.69202444  1
  O2-  O537  1  0.06247050  0.93017184  0.03036370  1
  O2-  O538  1  0.08208438  0.92113991  0.34928927  1
  O2-  O539  1  0.07349825  0.92079901  0.69450333  1
  O2-  O540  1  0.33457747  0.16076007  0.02189218  1
  O2-  O541  1  0.33326368  0.16171289  0.35895392  1
  O2-  O542  1  0.33080964  0.15609923  0.68810573  1
  O2-  O543  1  0.29884265  0.40037367  0.01870039  1
  O2-  O544  1  0.32083230  0.41412791  0.36169336  1
  O2-  O545  1  0.33618743  0.41728486  0.68368867  1
  O2-  O546  1  0.34797996  0.66290986  0.02643400  1
  O2-  O547  1  0.33777693  0.66041010  0.34769630  1
  O2-  O548  1  0.35188076  0.68056742  0.70032464  1
  O2-  O549  1  0.36220842  0.92696485  0.02158020  1
  O2-  O550  1  0.33585466  0.91169399  0.35582125  1
  O2-  O551  1  0.37473600  0.90182093  0.68076052  1
  O2-  O552  1  0.58678528  0.16360485  0.01467020  1
  O2-  O553  1  0.58048645  0.16044336  0.36538629  1
  O2-  O554  1  0.58260612  0.14074375  0.69661725  1
  O2-  O555  1  0.57114662  0.41406250  0.02464782  1
  O2-  O556  1  0.59146855  0.42081920  0.31466584  1
  O2-  O557  1  0.57867786  0.42697735  0.69071737  1
  O2-  O558  1  0.58954910  0.66508794  0.02590663  1
  O2-  O559  1  0.57282073  0.66331911  0.35720097  1
  O2-  O560  1  0.58229363  0.67384133  0.67652208  1
  O2-  O561  1  0.58766434  0.91571928  0.02145094  1
  O2-  O562  1  0.57506091  0.92506066  0.35315538  1
  O2-  O563  1  0.57456553  0.90112174  0.69911925  1
  O2-  O564  1  0.86377501  0.18308944  0.00527306  1
  O2-  O565  1  0.83263446  0.16182244  0.35496489  1
  O2-  O566  1  0.82752508  0.15983124  0.68730111  1
  O2-  O567  1  0.85401719  0.41084961  0.02725815  1
  O2-  O568  1  0.82098395  0.40698619  0.39449847  1
  O2-  O569  1  0.82435481  0.41067547  0.68045457  1
  O2-  O570  1  0.84282856  0.66962048  0.01800748  1
  O2-  O571  1  0.84519832  0.68546534  0.35880627  1
  O2-  O572  1  0.82101724  0.65300796  0.69189100  1
  O2-  O573  1  0.82144187  0.91067149  0.02805715  1
  O2-  O574  1  0.82891017  0.92624976  0.34053231  1
  O2-  O575  1  0.83083279  0.92123520  0.70011102  1
