# generated using pymatgen
data_H2O
_symmetry_space_group_name_H-M   'P 1'
_cell_length_a   17.99356116
_cell_length_b   17.99618567
_cell_length_c   22.01258508
_cell_angle_alpha   90.02271720
_cell_angle_beta   90.00156495
_cell_angle_gamma   119.97411869
_symmetry_Int_Tables_number   1
_chemical_formula_structural   H2O
_chemical_formula_sum   'H384 O192'
_cell_volume   6174.65111646
_cell_formula_units_Z   192
loop_
 _symmetry_equiv_pos_site_id
 _symmetry_equiv_pos_as_xyz
  1  'x, y, z'
loop_
 _atom_type_symbol
 _atom_type_oxidation_number
  H+  1.0
  O2-  -2.0
loop_
 _atom_site_type_symbol
 _atom_site_label
 _atom_site_symmetry_multiplicity
 _atom_site_fract_x
 _atom_site_fract_y
 _atom_site_fract_z
 _atom_site_occupancy
  H+  H0  1  0.23283917  0.61024660  0.99647205  1
  H+  H1  1  0.39896435  0.37081998  0.00137043  1
  H+  H2  1  0.38003830  0.34697628  0.65614765  1
  H+  H3  1  0.55240528  0.11917379  0.48419070  1
  H+  H4  1  0.84156842  0.85765593  0.36481523  1
  H+  H5  1  0.47632591  0.88364631  0.17720555  1
  H+  H6  1  0.01115797  0.12214420  0.66277984  1
  H+  H7  1  0.11520122  0.47887818  0.34322812  1
  H+  H8  1  0.90925952  0.30274023  0.17325389  1
  H+  H9  1  0.40241208  0.88492276  -0.01265300  1
  H+  H10  1  0.23164786  0.61457592  0.33604656  1
  H+  H11  1  0.63157981  0.76290681  0.84094850  1
  H+  H12  1  0.01562683  0.13515831  0.00130987  1
  H+  H13  1  0.62822251  0.10490457  0.30869324  1
  H+  H14  1  0.87449650  0.09485494  0.32718443  1
  H+  H15  1  0.83818409  0.16323552  0.08850332  1
  H+  H16  1  0.46066299  0.60592787  0.16509033  1
  H+  H17  1  0.22823303  0.62086414  0.65713197  1
  H+  H18  1  0.45372019  0.31922250  0.66531461  1
  H+  H19  1  0.51426706  0.87267626  0.82193368  1
  H+  H20  1  0.89336906  0.55219756  0.30155726  1
  H+  H21  1  0.38002009  0.11099474  0.17454194  1
  H+  H22  1  0.63611952  0.60857984  0.83318404  1
  H+  H23  1  0.59892438  0.64953711  0.49969424  1
  H+  H24  1  0.87628297  0.09379442  0.83919934  1
  H+  H25  1  0.77786936  0.39104405  -0.00041059  1
  H+  H26  1  0.86460409  0.97611923  0.17447754  1
  H+  H27  1  0.74818842  0.87352274  0.30612963  1
  H+  H28  1  0.03512730  0.40907634  0.17333397  1
  H+  H29  1  0.45602371  0.59496192  0.29887491  1
  H+  H30  1  0.60792664  0.97012513  0.33000606  1
  H+  H31  1  0.61490182  0.34846897  0.49619141  1
  H+  H32  1  0.62486139  0.89297815  0.32907504  1
  H+  H33  1  0.35629074  0.22391203  0.49569365  1
  H+  H34  1  0.37328839  0.60420392  0.82858094  1
  H+  H35  1  0.65342505  0.79939520  0.51150250  1
  H+  H36  1  0.62074798  0.38520905  0.82591209  1
  H+  H37  1  0.85686906  0.96411616  0.83823531  1
  H+  H38  1  0.87333621  0.65687988  0.83756865  1
  H+  H39  1  0.52208073  0.13431307  0.33330085  1
  H+  H40  1  0.37353161  0.22798586  0.81358742  1
  H+  H41  1  0.21657141  0.11642946  0.50791987  1
  H+  H42  1  0.10016215  0.88572056  0.02983995  1
  H+  H43  1  0.60852159  0.46922032  0.48372195  1
  H+  H44  1  0.63373380  0.26683233  0.32547193  1
  H+  H45  1  0.63195623  0.85097797  0.84059550  1
  H+  H46  1  0.35662278  0.47200754  0.51917001  1
  H+  H47  1  0.00833171  0.64981076  0.51456939  1
  H+  H48  1  0.07158883  0.90696799  0.76537209  1
  H+  H49  1  0.32711740  0.11379197  0.66568064  1
  H+  H50  1  0.62559911  0.14480714  1.00952335  1
  H+  H51  1  0.60417374  0.46956761  0.16722277  1
  H+  H52  1  0.44993452  0.14615516  0.64581789  1
  H+  H53  1  0.53319369  0.38639525  0.81666921  1
  H+  H54  1  0.26609366  0.12739543  0.16959882  1
  H+  H55  1  0.14417917  0.61660486  0.32921625  1
  H+  H56  1  0.14048787  0.53175528  0.66230432  1
  H+  H57  1  0.16176310  0.78844823  0.50010661  1
  H+  H58  1  0.53771601  0.38789655  0.01408543  1
  H+  H59  1  0.86154894  0.45675665  0.36280676  1
  H+  H60  1  0.74482906  0.35374197  0.65086396  1
  H+  H61  1  0.09496467  0.21927730  0.66847954  1
  H+  H62  1  0.27062942  0.38510047  0.65759366  1
  H+  H63  1  0.60358237  -0.03794194  0.81435647  1
  H+  H64  1  0.47339603  0.11417495  0.17086582  1
  H+  H65  1  0.40937643  -0.00142374  0.50907401  1
  H+  H66  1  0.58312503  0.32993564  0.66865674  1
  H+  H67  1  0.87882595  0.76933453  0.84142755  1
  H+  H68  1  0.79725766  0.64265176  0.33828771  1
  H+  H69  1  0.85845812  0.88302823  0.00929046  1
  H+  H70  1  0.73312613  0.54607878  0.52958996  1
  H+  H71  1  0.89979097  0.31058833  0.66951207  1
  H+  H72  1  0.85932480  0.64947517  0.66678624  1
  H+  H73  1  0.03250587  0.88901102  0.34066353  1
  H+  H74  1  0.61235454  0.21859452  0.16255578  1
  H+  H75  1  0.65117237  0.37135228  0.99950458  1
  H+  H76  1  0.80921114  0.85678401  0.65959703  1
  H+  H77  1  0.59068069  0.15930978  0.38760827  1
  H+  H78  1  0.62386207  0.47809714  0.00963839  1
  H+  H79  1  0.75342586  0.35661235  0.49343036  1
  H+  H80  1  0.72292745  0.28250059  0.59944467  1
  H+  H81  1  0.58215821  0.43039003  0.28280093  1
  H+  H82  1  0.44254887  0.47607497  0.39008476  1
  H+  H83  1  0.48341103  0.11196659  0.98818057  1
  H+  H84  1  0.60654003  0.89030209  0.48824864  1
  H+  H85  1  0.14746513  0.38751007  0.18275271  1
  H+  H86  1  0.74279685  0.12106719  1.02157142  1
  H+  H87  1  0.85917454  0.73987204  0.33704813  1
  H+  H88  1  0.09831985  0.97355392  0.01613237  1
  H+  H89  1  0.85472090  0.66512041  0.49707597  1
  H+  H90  1  0.39014226  0.77588827  0.32719597  1
  H+  H91  1  0.48733329  0.12474691  0.84026926  1
  H+  H92  1  0.38194221  0.10952153  0.32798666  1
  H+  H93  1  0.10174272  0.20984066  0.81558616  1
  H+  H94  1  0.10366218  0.22227108  0.34063015  1
  H+  H95  1  0.59404751  0.62570188  0.16720752  1
  H+  H96  1  0.88427534  0.94221447  0.49905275  1
  H+  H97  1  0.77949640  0.38936930  0.16756709  1
  H+  H98  1  0.27933392  0.89293133  0.49311926  1
  H+  H99  1  0.55463652  0.70720365  0.35038003  1
  H+  H100  1  0.87377234  0.86808534  0.84011943  1
  H+  H101  1  0.10593554  0.72671449  0.65783457  1
  H+  H102  1  0.09476092  0.21537895  0.49767570  1
  H+  H103  1  0.87720318  0.48794192  0.99569756  1
  H+  H104  1  0.87294324  0.52628233  0.66929184  1
  H+  H105  1  0.89126168  0.32875188  0.85655182  1
  H+  H106  1  0.35571370  0.21755097  0.16637079  1
  H+  H107  1  0.10180967  0.88063737  0.82579103  1
  H+  H108  1  0.72514738  0.61263526  0.49249968  1
  H+  H109  1  0.34894209  0.13178136  0.49490525  1
  H+  H110  1  0.72616021  0.61023396  0.98762632  1
  H+  H111  1  0.37784507  0.51764862  0.32885394  1
  H+  H112  1  0.48203677  0.86110041  0.32150314  1
  H+  H113  1  0.84730679  0.36331584  0.49959512  1
  H+  H114  1  0.61874024  0.63545030  1.01018650  1
  H+  H115  1  0.59869878  0.48833833  0.66420173  1
  H+  H116  1  1.02539699  0.38779878  0.34297245  1
  H+  H117  1  0.73580727  0.37916119  0.84287731  1
  H+  H118  1  0.84261599  0.51531047  0.51542681  1
  H+  H119  1  0.72334618  0.86036773  1.00036212  1
  H+  H120  1  0.87384126  0.39053555  1.00299400  1
  H+  H121  1  0.98670709  0.61266373  0.99846890  1
  H+  H122  1  0.14124002  0.51929504  0.50694735  1
  H+  H123  1  0.16902141  0.58088196  0.56547937  1
  H+  H124  1  0.11235678  0.46413992  0.83551924  1
  H+  H125  1  0.69618798  0.65043507  0.33429283  1
  H+  H126  1  0.11771922  0.73256189  0.16293475  1
  H+  H127  1  0.66068180  0.57727561  0.93215837  1
  H+  H128  1  0.88807340  0.39020063  0.65970661  1
  H+  H129  1  0.38046268  0.13560078  0.82303908  1
  H+  H130  1  0.34121911  0.15043705  1.07754492  1
  H+  H131  1  0.36658987  0.64155678  1.00306087  1
  H+  H132  1  0.12758312  0.09954113  0.84600725  1
  H+  H133  1  0.12002234  0.63480996  0.01264451  1
  H+  H134  1  0.37778524  -0.01463206  0.82127800  1
  H+  H135  1  0.22732869  0.87074572  0.17399936  1
  H+  H136  1  0.38247612  0.61322735  0.53574449  1
  H+  H137  1  0.65144421  0.28128565  0.99714948  1
  H+  H138  1  0.38368701  0.35721227  0.33409308  1
  H+  H139  1  0.97120778  0.86215514  1.00230526  1
  H+  H140  1  0.58988378  0.50813772  0.69130716  1
  H+  H141  1  0.71524087  0.10260449  0.30938400  1
  H+  H142  1  0.38276589  0.85062817  0.50440222  1
  H+  H143  1  -0.02461073  0.86397254  0.18873688  1
  H+  H144  1  0.10990050  0.14619324  0.15738573  1
  H+  H145  1  0.99722596  0.64116464  0.83545675  1
  H+  H146  1  0.12677173  0.01266845  0.84339523  1
  H+  H147  1  0.98422689  0.34174681  0.84833026  1
  H+  H148  1  0.90467734  -0.00968472  0.64709120  1
  H+  H149  1  0.76851110  0.66452442  0.64792228  1
  H+  H150  1  0.37034567  0.88849898  0.33890439  1
  H+  H151  1  0.14180178  0.52104684  0.00341849  1
  H+  H152  1  0.88563923  0.26424460  0.51341849  1
  H+  H153  1  0.15936967  0.66043742  0.48452550  1
  H+  H154  1  0.35687550  0.38369230  0.50982710  1
  H+  H155  1  0.36580893  0.73892349  0.15474483  1
  H+  H156  1  0.12606990  0.73461454  0.33264136  1
  H+  H157  1  0.70631143  0.60002987  0.16637618  1
  H+  H158  1  0.85734940  0.97176710  0.01139628  1
  H+  H159  1  0.77062956  0.12379249  0.81369642  1
  H+  H160  1  0.60863004  0.76608318  0.17364898  1
  H+  H161  1  0.66611277  0.32633931  0.23300578  1
  H+  H162  1  0.61681432  0.73053737  0.66604141  1
  H+  H163  1  0.11708707  0.38024818  0.81400258  1
  H+  H164  1  0.12205398  0.09807640  -0.00413316  1
  H+  H165  1  0.14943613  0.78405498  0.81486599  1
  H+  H166  1  0.89366010  0.38301913  0.18008019  1
  H+  H167  1  0.83840764  0.62230471  0.14708657  1
  H+  H168  1  0.21778243  0.10981451  0.33044357  1
  H+  H169  1  0.14750742  0.87154060  0.32906379  1
  H+  H170  1  0.86538975  0.48207542  0.16236371  1
  H+  H171  1  0.47325934  0.85258688  0.49975552  1
  H+  H172  1  0.12399541  0.11244254  0.50587839  1
  H+  H173  1  0.39076490  0.86164240  0.83279491  1
  H+  H174  1  0.81024262  0.16201459  0.19523233  1
  H+  H175  1  0.39490406  0.86422403  0.65496403  1
  H+  H176  1  0.13321818  1.02545590  0.17764440  1
  H+  H177  1  0.12819244  0.35406198  0.50983391  1
  H+  H178  1  0.51802135  0.62702043  0.81764312  1
  H+  H179  1  0.33800858  0.91593252  0.43242645  1
  H+  H180  1  0.61216741  0.85714555  0.17348586  1
  H+  H181  1  0.00724048  0.12323765  0.49103064  1
  H+  H182  1  0.87677786  0.43756467  0.81125204  1
  H+  H183  1  0.63416814  0.35526240  0.17496849  1
  H+  H184  1  0.97783868  0.88571265  0.50630718  1
  H+  H185  1  0.83642440  0.11742966  0.49042109  1
  H+  H186  1  0.34288165  0.66673416  0.40842979  1
  H+  H187  1  0.10501255  0.22270844  -0.00459709  1
  H+  H188  1  0.38259647  0.54865311  0.88123302  1
  H+  H189  1  0.12990739  0.36466198  0.66174769  1
  H+  H190  1  0.28766940  0.89895029  0.81537326  1
  H+  H191  1  0.38412803  0.61265597  0.63352280  1
  H+  H192  1  0.11332736  0.38282905  0.03213276  1
  H+  H193  1  0.59690415  0.17843083  0.76877978  1
  H+  H194  1  0.23424564  0.35773211  0.79760309  1
  H+  H195  1  0.11058006  0.97847443  0.49633154  1
  H+  H196  1  0.36870880  -0.02269219  0.33985662  1
  H+  H197  1  0.66543309  0.86547928  0.66595999  1
  H+  H198  1  0.08495366  0.67668980  0.74305908  1
  H+  H199  1  0.87269193  0.23178178  1.03231108  1
  H+  H200  1  0.12632829  0.49759380  0.17038580  1
  H+  H201  1  0.02834522  0.40635747  0.67377531  1
  H+  H202  1  0.88148638  0.10979500  1.00270387  1
  H+  H203  1  0.22523500  0.85763075  0.65710030  1
  H+  H204  1  0.34451719  0.93023788  0.09854874  1
  H+  H205  1  0.70222276  0.14189044  0.48835483  1
  H+  H206  1  0.27681252  0.89482320  1.01874791  1
  H+  H207  1  0.20631755  0.10664092  0.65991913  1
  H+  H208  1  0.61444654  0.88644118  0.02123531  1
  H+  H209  1  0.35236534  0.21716496  0.33963459  1
  H+  H210  1  0.15982555  0.31778373  0.75096786  1
  H+  H211  1  0.51817144  0.87318557  0.66758916  1
  H+  H212  1  0.37463604  0.89790366  0.16477892  1
  H+  H213  1  1.02310438  0.38170799  0.49618369  1
  H+  H214  1  0.37521469  -0.00302850  0.16306239  1
  H+  H215  1  0.55004924  0.12989589  0.67511769  1
  H+  H216  1  0.96581082  0.10155641  0.32750645  1
  H+  H217  1  0.63892699  0.21751584  0.66722462  1
  H+  H218  1  0.85832320  0.07229897  0.18458143  1
  H+  H219  1  0.72288215  0.35558126  0.33156009  1
  H+  H220  1  0.68761710  0.84383323  0.60164929  1
  H+  H221  1  0.38311075  0.22415189  0.02972138  1
  H+  H222  1  0.76820633  0.87167009  0.83752128  1
  H+  H223  1  0.90388689  0.55929354  0.83606157  1
  H+  H224  1  0.62007566  0.72610502  1.01425085  1
  H+  H225  1  0.86208863  0.72430248  0.00009236  1
  H+  H226  1  0.89835639  0.04910882  0.55688838  1
  H+  H227  1  0.26958130  0.63299271  0.82717038  1
  H+  H228  1  0.11825718  0.11888234  0.65651078  1
  H+  H229  1  0.62706697  0.23525774  0.83006024  1
  H+  H230  1  0.87777159  0.06286818  0.65388205  1
  H+  H231  1  0.38964872  0.36187342  0.80958664  1
  H+  H232  1  0.46655642  0.35660550  0.50545715  1
  H+  H233  1  0.11797966  0.64380107  0.16750815  1
  H+  H234  1  0.73667721  0.08386218  0.16155503  1
  H+  H235  1  0.29364904  0.40114346  -0.01184493  1
  H+  H236  1  0.68957911  0.75967480  0.37039640  1
  H+  H237  1  0.21787682  0.35931206  0.33746399  1
  H+  H238  1  0.86523585  0.20510533  0.82050052  1
  H+  H239  1  0.88264521  0.80720960  0.50410565  1
  H+  H240  1  0.99161861  0.63544599  0.48291897  1
  H+  H241  1  0.65210738  0.54713014  0.33536664  1
  H+  H242  1  0.62497545  -0.02013396  1.02132779  1
  H+  H243  1  0.88594414  0.35241442  0.33499892  1
  H+  H244  1  0.23396476  0.62897895  0.17641533  1
  H+  H245  1  0.16235574  0.37032792  0.93505233  1
  H+  H246  1  0.36636891  -0.01507022  1.01009324  1
  H+  H247  1  0.57128602  0.90171981  0.42447708  1
  H+  H248  1  0.61632858  0.97373506  0.67325689  1
  H+  H249  1  0.36568807  0.47192559  0.80370066  1
  H+  H250  1  0.63525394  0.11269503  0.82410294  1
  H+  H251  1  0.97292485  0.86404717  0.83668197  1
  H+  H252  1  0.36826276  0.71861758  0.50551514  1
  H+  H253  1  0.36145839  0.47124123  0.64748554  1
  H+  H254  1  0.42301179  0.83163226  0.59506931  1
  H+  H255  1  0.24728971  0.38193922  0.17487230  1
  H+  H256  1  0.36394968  0.97521646  0.66574065  1
  H+  H257  1  0.52740441  0.64205194  0.65693844  1
  H+  H258  1  0.63190984  0.03770154  0.21864253  1
  H+  H259  1  0.72350548  0.07550416  0.66331458  1
  H+  H260  1  0.97692811  0.62173198  0.15740302  1
  H+  H261  1  0.36806837  0.72675355  0.66614762  1
  H+  H262  1  0.86552955  0.63654033  -0.00072100  1
  H+  H263  1  0.12824084  0.11080073  0.33064138  1
  H+  H264  1  0.67918685  0.34136199  0.90339253  1
  H+  H265  1  0.73791973  0.89362165  0.50972664  1
  H+  H266  1  0.33612442  0.20641732  0.67082916  1
  H+  H267  1  0.85778813  0.16915363  0.65556286  1
  H+  H268  1  0.11798096  0.58386672  0.85814472  1
  H+  H269  1  0.35287409  0.47223698  0.15390123  1
  H+  H270  1  0.46680320  0.35883594  0.17257931  1
  H+  H271  1  0.90889382  0.64467426  0.31555728  1
  H+  H272  1  0.10954238  0.87975515  0.67463597  1
  H+  H273  1  0.10557543  0.63701312  0.65971962  1
  H+  H274  1  0.10874171  0.88952980  0.16867927  1
  H+  H275  1  0.86649162  0.87508387  0.16382799  1
  H+  H276  1  0.49066792  0.88561269  -0.01048185  1
  H+  H277  1  0.27992389  0.62735270  0.50399161  1
  H+  H278  1  0.61795125  0.21788284  0.48002011  1
  H+  H279  1  0.33342008  0.67313175  1.05908699  1
  H+  H280  1  0.36349368  0.63735407  0.34530623  1
  H+  H281  1  0.14321041  0.66787803  0.79246726  1
  H+  H282  1  0.64307985  0.09221787  0.67179990  1
  H+  H283  1  0.11462244  -0.01741018  0.34070587  1
  H+  H284  1  0.13762486  0.76882714  1.01428670  1
  H+  H285  1  0.46579364  0.34918192  0.32192747  1
  H+  H286  1  -0.01643496  0.36664942  0.01106712  1
  H+  H287  1  0.36059056  0.64688110  0.15194359  1
  H+  H288  1  0.90233816  0.07657924  0.93966718  1
  H+  H289  1  0.35888447  0.72187236  0.82579244  1
  H+  H290  1  0.17249811  0.84046280  0.23495095  1
  H+  H291  1  0.83572116  0.13636316  0.72463981  1
  H+  H292  1  0.92248981  0.60642450  0.21572585  1
  H+  H293  1  0.19317053  0.30640372  0.91979122  1
  H+  H294  1  0.08880306  0.66331387  0.07306255  1
  H+  H295  1  0.41928439  0.07628079  0.59344269  1
  H+  H296  1  0.77784170  0.64492178  0.83460585  1
  H+  H297  1  0.92158706  0.33603013  0.27300884  1
  H+  H298  1  0.08268189  0.42376383  0.73488022  1
  H+  H299  1  0.49550502  0.62553225  -0.00228654  1
  H+  H300  1  0.81879277  0.38715480  0.41248827  1
  H+  H301  1  0.07372377  0.16263367  0.39957484  1
  H+  H302  1  0.13360968  0.36733064  0.33393205  1
  H+  H303  1  0.96323127  0.61188775  0.65761267  1
  H+  H304  1  0.66474298  0.58528812  0.23259126  1
  H+  H305  1  0.58685756  0.17175940  0.06406601  1
  H+  H306  1  0.42388428  0.84061318  0.89398774  1
  H+  H307  1  0.84687012  0.69767881  0.43221411  1
  H+  H308  1  0.61070157  0.37869766  0.32394643  1
  H+  H309  1  0.35416165  0.43256340  0.42268828  1
  H+  H310  1  0.57195019  0.71365063  0.42155338  1
  H+  H311  1  0.57308520  0.89698764  0.73343406  1
  H+  H312  1  0.16689389  0.57021292  0.91199641  1
  H+  H313  1  0.39738750  0.11566596  0.99615200  1
  H+  H314  1  0.32389530  0.15921006  0.39941261  1
  H+  H315  1  0.40421252  0.32900995  0.23037306  1
  H+  H316  1  0.33033509  0.15220626  0.75891787  1
  H+  H317  1  0.14007728  0.86620171  0.50523948  1
  H+  H318  1  0.14753286  0.83789253  0.96584567  1
  H+  H319  1  0.08207636  0.91996069  0.43682900  1
  H+  H320  1  0.33675124  0.66302645  0.72281321  1
  H+  H321  1  0.51522155  0.64988672  0.51966928  1
  H+  H322  1  0.80345187  0.36168781  0.71889893  1
  H+  H323  1  0.15302354  0.32588778  0.60357187  1
  H+  H324  1  0.34458451  0.41840251  0.74077344  1
  H+  H325  1  0.41191501  0.30455762  0.96150956  1
  H+  H326  1  0.23615041  0.86983908  0.32802250  1
  H+  H327  1  0.64354658  0.52395424  0.83154818  1
  H+  H328  1  0.38857043  0.57282139  0.21740145  1
  H+  H329  1  0.06170733  0.14119148  0.76487761  1
  H+  H330  1  0.64807881  0.31921894  0.55512584  1
  H+  H331  1  0.82802316  0.45399919  0.76021905  1
  H+  H332  1  0.68603606  0.86264336  0.25174749  1
  H+  H333  1  0.70253905  0.08517744  0.95901957  1
  H+  H334  1  0.57274466  0.65742746  0.10575516  1
  H+  H335  1  0.12965289  0.69025229  0.42546026  1
  H+  H336  1  0.91868756  0.83788540  0.93899377  1
  H+  H337  1  0.41074252  0.31916691  0.56726824  1
  H+  H338  1  0.17987944  0.59571597  0.23966808  1
  H+  H339  1  0.08843417  0.42538823  0.08512628  1
  H+  H340  1  0.93731669  0.59450340  0.93415591  1
  H+  H341  1  0.91776142  0.33361501  0.56819080  1
  H+  H342  1  0.16911220  0.83634871  0.59667680  1
  H+  H343  1  0.15344246  0.08818298  0.59192669  1
  H+  H344  1  0.41234290  0.08153305  0.26802012  1
  H+  H345  1  0.16259206  0.08615165  0.23541424  1
  H+  H346  1  0.80357745  0.64615480  0.08893592  1
  H+  H347  1  0.42255698  0.09127538  0.89827214  1
  H+  H348  1  0.41268447  0.84191683  0.23402169  1
  H+  H349  1  0.02683918  0.89025328  0.67281867  1
  H+  H350  1  0.06967002  0.91730323  0.11350750  1
  H+  H351  1  0.91333400  0.85924876  0.59503436  1
  H+  H352  1  0.83698784  0.90996249  0.10321872  1
  H+  H353  1  0.96588757  0.09718387  0.84423075  1
  H+  H354  1  0.91107170  0.84628126  0.24331678  1
  H+  H355  1  0.08360541  0.41295142  0.43740077  1
  H+  H356  1  0.38280908  0.48924203  -0.01119532  1
  H+  H357  1  0.66013911  0.82806876  0.94289159  1
  H+  H358  1  0.58818932  0.94139240  0.11096696  1
  H+  H359  1  0.03681965  0.64736841  0.33164227  1
  H+  H360  1  0.56236752  0.35321752  0.73287108  1
  H+  H361  1  0.41382275  0.33886155  0.87229841  1
  H+  H362  1  0.92765699  0.32332582  0.95112792  1
  H+  H363  1  0.08235353  0.17090271  0.09772820  1
  H+  H364  1  0.85399659  0.21599036  0.33639211  1
  H+  H365  1  0.56594555  0.41142659  0.42501707  1
  H+  H366  1  0.81061511  0.15304720  0.39193346  1
  H+  H367  1  0.59871570  0.12219827  0.15630431  1
  H+  H368  1  0.68688359  0.61139852  0.58365529  1
  H+  H369  1  0.46142413  0.63636401  0.93530632  1
  H+  H370  1  0.17447602  0.34917281  0.24206310  1
  H+  H371  1  0.14901716  0.06104114  0.93997974  1
  H+  H372  1  0.35143857  0.38064955  0.16216899  1
  H+  H373  1  0.57961410  0.66163865  0.76015616  1
  H+  H374  1  0.21535632  0.35149102  0.51473348  1
  H+  H375  1  0.48820555  0.02083416  0.55151045  1
  H+  H376  1  0.89608957  0.04875583  0.24488336  1
  H+  H377  1  0.34453783  0.92085242  0.72603281  1
  H+  H378  1  0.65367587  0.64815809  0.64124380  1
  H+  H379  1  0.18483633  0.82923882  0.87746721  1
  H+  H380  1  0.58420884  0.41295401  0.10759925  1
  H+  H381  1  0.87095518  0.74744396  0.66348270  1
  H+  H382  1  0.65064280  0.06373124  0.87621176  1
  H+  H383  1  0.86363613  0.56946946  0.57665118  1
  O2-  O384  1  0.08297050  0.17831805  0.14197499  1
  O2-  O385  1  0.06924267  0.15648225  0.47988750  1
  O2-  O386  1  0.06499135  0.14741240  0.80970612  1
  O2-  O387  1  0.09510690  0.43529840  0.15695039  1
  O2-  O388  1  0.08426589  0.41111665  0.48283250  1
  O2-  O389  1  0.07960277  0.40662187  0.81547422  1
  O2-  O390  1  0.08880254  0.67227777  0.14744012  1
  O2-  O391  1  0.16168869  0.71042838  0.46400247  1
  O2-  O392  1  0.09842352  0.68320137  0.78903773  1
  O2-  O393  1  0.07554188  0.91862199  0.15901473  1
  O2-  O394  1  0.07880672  0.91794263  0.48211150  1
  O2-  O395  1  0.06698318  0.90568385  0.81169226  1
  O2-  O396  1  0.32879693  0.15546737  0.15620731  1
  O2-  O397  1  0.32102053  0.16294775  0.48027561  1
  O2-  O398  1  0.34732666  0.16451833  0.80364873  1
  O2-  O399  1  0.31762711  0.40832812  0.14856849  1
  O2-  O400  1  0.32826817  0.41661651  0.49668907  1
  O2-  O401  1  0.34183402  0.41275736  0.78651181  1
  O2-  O402  1  0.33123538  0.67934147  0.13962655  1
  O2-  O403  1  0.34330692  0.65614678  0.49460846  1
  O2-  O404  1  0.32789287  0.66166584  0.80929186  1
  O2-  O405  1  0.34502749  0.93131906  0.14635935  1
  O2-  O406  1  0.33956285  0.91528918  0.47802132  1
  O2-  O407  1  0.34940815  0.92662596  0.80369781  1
  O2-  O408  1  0.57588057  0.15993540  0.14422624  1
  O2-  O409  1  0.60683535  0.16116788  0.46455230  1
  O2-  O410  1  0.59301143  0.17514250  0.81397104  1
  O2-  O411  1  0.57624789  0.40833646  0.15259902  1
  O2-  O412  1  0.56706701  0.40947652  0.46944841  1
  O2-  O413  1  0.59313672  0.41231720  0.80231094  1
  O2-  O414  1  0.56226665  0.65376393  0.15050138  1
  O2-  O415  1  0.57069010  0.68359358  0.49727505  1
  O2-  O416  1  0.57903136  0.65917776  0.80546726  1
  O2-  O417  1  0.58193409  0.94367042  0.15696359  1
  O2-  O418  1  0.56334989  0.90131772  0.46931610  1
  O2-  O419  1  0.57450092  0.90012203  0.80396652  1
  O2-  O420  1  0.80068934  0.12322659  0.16142042  1
  O2-  O421  1  0.81858721  0.15965154  0.47814967  1
  O2-  O422  1  0.83153722  0.14823693  0.80064845  1
  O2-  O423  1  0.84076787  0.41925003  0.15547376  1
  O2-  O424  1  0.81551270  0.39163977  0.48350056  1
  O2-  O425  1  0.83741821  0.45958985  0.80575688  1
  O2-  O426  1  0.79447556  0.63609191  0.13316467  1
  O2-  O427  1  0.83411909  0.69986735  0.47592331  1
  O2-  O428  1  0.83922482  0.68268475  0.82287996  1
  O2-  O429  1  0.83742300  0.90743534  0.14861291  1
  O2-  O430  1  0.85003586  0.96963934  0.48643808  1
  O2-  O431  1  0.82977486  0.90280542  0.82422648  1
  O2-  O432  1  0.16855457  0.08678177  0.19049923  1
  O2-  O433  1  0.15674591  0.08555064  0.52423002  1
  O2-  O434  1  0.15805813  0.07077340  0.86149784  1
  O2-  O435  1  0.17989002  0.35847896  0.19698793  1
  O2-  O436  1  0.15405390  0.32026963  0.52747921  1
  O2-  O437  1  0.16973120  0.32559517  0.79491151  1
  O2-  O438  1  0.17483982  0.59663783  0.19426223  1
  O2-  O439  1  0.17627592  0.58004030  0.52061024  1
  O2-  O440  1  0.16102935  0.56700727  0.86536881  1
  O2-  O441  1  0.16810752  0.83810315  0.18925783  1
  O2-  O442  1  0.17752619  0.84475822  0.52119872  1
  O2-  O443  1  0.17955794  0.84193224  0.83520672  1
  O2-  O444  1  0.41293139  0.07985272  0.18660992  1
  O2-  O445  1  0.45776894  0.04783337  0.53368773  1
  O2-  O446  1  0.42521789  0.09437867  0.85206276  1
  O2-  O447  1  0.40501189  0.32969069  0.18527128  1
  O2-  O448  1  0.40703850  0.32394588  0.52208902  1
  O2-  O449  1  0.41721782  0.33004662  0.82889124  1
  O2-  O450  1  0.39622699  0.57704320  0.17295235  1
  O2-  O451  1  0.41496313  0.58214635  0.55193907  1
  O2-  O452  1  0.40094396  0.56873265  0.83969743  1
  O2-  O453  1  0.41406810  0.84983027  0.18828708  1
  O2-  O454  1  0.41470659  0.82333868  0.52138807  1
  O2-  O455  1  0.41653668  0.82769089  0.84866717  1
  O2-  O456  1  0.62882193  0.03596988  0.17234101  1
  O2-  O457  1  0.74011550  0.13075702  0.51504825  1
  O2-  O458  1  0.66024136  0.07420330  0.83272423  1
  O2-  O459  1  0.66480786  0.32432530  0.18770213  1
  O2-  O460  1  0.64407432  0.31699239  0.51021998  1
  O2-  O461  1  0.67720593  0.33903861  0.85788310  1
  O2-  O462  1  0.64899701  0.57365587  0.18918716  1
  O2-  O463  1  0.68809601  0.56056537  0.51728234  1
  O2-  O464  1  0.66822785  0.58163224  0.85051651  1
  O2-  O465  1  0.64384704  0.82767444  0.18364814  1
  O2-  O466  1  0.68030983  0.85818592  0.52810906  1
  O2-  O467  1  0.66136034  0.82191878  0.85850508  1
  O2-  O468  1  0.89121594  0.04472701  0.19813821  1
  O2-  O469  1  0.89666030  0.05802112  0.51174394  1
  O2-  O470  1  0.90596014  0.06737656  0.86070754  1
  O2-  O471  1  0.93093760  0.35665822  0.19521934  1
  O2-  O472  1  0.91555364  0.32650366  0.52331894  1
  O2-  O473  1  0.92615796  0.30321548  0.86738190  1
  O2-  O474  1  0.91628902  0.59297749  0.17174093  1
  O2-  O475  1  0.83615957  0.56040976  0.53583080  1
  O2-  O476  1  0.94159908  0.61484203  0.85703890  1
  O2-  O477  1  0.91339962  0.83238140  0.20094643  1
  O2-  O478  1  0.91777585  0.86633789  0.52095214  1
  O2-  O479  1  0.91215174  0.83558594  0.85499963  1
  O2-  O480  1  0.15710928  0.07865307  0.31578233  1
  O2-  O481  1  0.14910206  0.08723335  0.63928210  1
  O2-  O482  1  0.14393588  0.05892961  0.98523718  1
  O2-  O483  1  0.16223632  0.33481418  0.31745427  1
  O2-  O484  1  0.15597752  0.32891142  0.64957535  1
  O2-  O485  1  0.18118182  0.33350582  0.95396368  1
  O2-  O486  1  0.17343676  0.58348386  0.31720076  1
  O2-  O487  1  0.16669325  0.59037924  0.64433744  1
  O2-  O488  1  0.16903220  0.57818882  0.98353638  1
  O2-  O489  1  0.17610995  0.84132712  0.31137689  1
  O2-  O490  1  0.16515772  0.82998076  0.64235979  1
  O2-  O491  1  0.16544158  0.83282566  1.00662176  1
  O2-  O492  1  0.41472436  0.08162748  0.31314406  1
  O2-  O493  1  0.40352347  0.08905602  0.63480638  1
  O2-  O494  1  0.42271721  0.08304027  0.97426717  1
  O2-  O495  1  0.40316216  0.32160031  0.31285671  1
  O2-  O496  1  0.39780404  0.30437218  0.64494423  1
  O2-  O497  1  0.42853843  0.33511905  0.99998993  1
  O2-  O498  1  0.39395562  0.56889208  0.30283880  1
  O2-  O499  1  0.41545428  0.58215335  0.61948699  1
  O2-  O500  1  0.44015881  0.60481434  0.97331828  1
  O2-  O501  1  0.41945693  0.83419532  0.30894938  1
  O2-  O502  1  0.42525202  0.83321230  0.64138681  1
  O2-  O503  1  0.44333603  0.87718749  0.96232285  1
  O2-  O504  1  0.65586885  0.07282227  0.29219614  1
  O2-  O505  1  0.66030436  0.05080976  0.65620945  1
  O2-  O506  1  0.68509650  0.08871061  1.00027516  1
  O2-  O507  1  0.66465083  0.32930964  0.31309637  1
  O2-  O508  1  0.69305717  0.30374342  0.62502333  1
  O2-  O509  1  0.68317335  0.34259510  0.98250602  1
  O2-  O510  1  0.69284161  0.59899296  0.31344138  1
  O2-  O511  1  0.70407940  0.65296468  0.61799653  1
  O2-  O512  1  0.66331206  0.57856122  0.97739468  1
  O2-  O513  1  0.70663851  0.88978613  0.29257114  1
  O2-  O514  1  0.68981756  0.83326973  0.64658328  1
  O2-  O515  1  0.66121080  0.82943008  0.98799513  1
  O2-  O516  1  0.90552904  0.06522412  0.31414100  1
  O2-  O517  1  0.91888863  0.04950627  0.63329159  1
  O2-  O518  1  0.90659737  0.07662593  0.98488211  1
  O2-  O519  1  0.91996037  0.32738703  0.31794017  1
  O2-  O520  1  0.92534434  0.36384073  0.64626513  1
  O2-  O521  1  0.92324987  0.33556183  0.99455619  1
  O2-  O522  1  0.93504877  0.61263238  0.29575433  1
  O2-  O523  1  0.89963572  0.58426097  0.65137547  1
  O2-  O524  1  0.92821228  0.58255826  0.97877984  1
  O2-  O525  1  0.80876743  0.81366090  0.33400108  1
  O2-  O526  1  0.91354661  0.84832178  0.64091000  1
  O2-  O527  1  0.91187304  0.83144102  0.98358834  1
  O2-  O528  1  0.07780826  0.16444984  0.01185760  1
  O2-  O529  1  0.07582822  0.16180284  0.35439038  1
  O2-  O530  1  0.06961539  0.15831347  0.68211012  1
  O2-  O531  1  0.08543332  0.41672237  0.03899414  1
  O2-  O532  1  0.08600433  0.41805143  0.35833710  1
  O2-  O533  1  0.08748687  0.42669399  0.68975495  1
  O2-  O534  1  0.08799162  0.66369982  0.02706812  1
  O2-  O535  1  0.09658968  0.67356208  0.34666917  1
  O2-  O536  1  0.07249434  0.66550209  0.67313772  1
  O2-  O537  1  0.06553342  0.91326842  0.03712890  1
  O2-  O538  1  0.09036380  0.92164594  0.35719075  1
  O2-  O539  1  0.08203220  0.91009561  0.69352996  1
  O2-  O540  1  0.35798954  0.16179346  0.03404958  1
  O2-  O541  1  0.32369649  0.15654315  0.35430397  1
  O2-  O542  1  0.30294956  0.14551026  0.68747615  1
  O2-  O543  1  0.35394230  0.42836451  0.00099312  1
  O2-  O544  1  0.38121894  0.44429214  0.38080223  1
  O2-  O545  1  0.33342794  0.41308594  0.66621877  1
  O2-  O546  1  0.32818079  0.66370008  0.01444728  1
  O2-  O547  1  0.33858727  0.67025334  0.36362585  1
  O2-  O548  1  0.33671594  0.66469504  0.67778337  1
  O2-  O549  1  0.33847562  0.92733002  0.03093765  1
  O2-  O550  1  0.33861923  0.91685163  0.35510195  1
  O2-  O551  1  0.34008673  0.91603557  0.68061285  1
  O2-  O552  1  0.59407946  0.17560780  0.01894261  1
  O2-  O553  1  0.58488389  0.16306659  0.34254167  1
  O2-  O554  1  0.60798527  0.16214279  0.69174599  1
  O2-  O555  1  0.59928088  0.41856465  0.02660456  1
  O2-  O556  1  0.57756725  0.41094656  0.32488222  1
  O2-  O557  1  0.53639106  0.31311841  0.69766043  1
  O2-  O558  1  0.58845990  0.66457769  0.02771445  1
  O2-  O559  1  0.59345288  0.74327340  0.38201986  1
  O2-  O560  1  0.58352574  0.66820526  0.67791116  1
  O2-  O561  1  0.58835657  0.92054240  0.03677546  1
  O2-  O562  1  0.58271561  0.90999146  0.34449368  1
  O2-  O563  1  0.57874984  0.90181444  0.68676068  1
  O2-  O564  1  0.84168408  0.17004229  0.04350213  1
  O2-  O565  1  0.81558373  0.15451166  0.34715651  1
  O2-  O566  1  0.82703239  0.11796124  0.68070860  1
  O2-  O567  1  0.84310236  0.42432834  0.01041629  1
  O2-  O568  1  0.82493792  0.39480071  0.36621226  1
  O2-  O569  1  0.81821363  0.40788542  0.68956988  1
  O2-  O570  1  0.82924378  0.66153221  0.00988652  1
  O2-  O571  1  0.85681909  0.68646857  0.35072917  1
  O2-  O572  1  0.83160370  0.68526069  0.67479205  1
  O2-  O573  1  0.82678240  0.91107585  0.02606267  1
  O2-  O574  1  0.73866804  0.74658677  0.37163590  1
  O2-  O575  1  0.87105421  0.89066193  0.67103476  1
