# generated using pymatgen
data_H2O
_symmetry_space_group_name_H-M   'P 1'
_cell_length_a   18.00014377
_cell_length_b   18.00494284
_cell_length_c   22.01325888
_cell_angle_alpha   90.01133662
_cell_angle_beta   90.00584607
_cell_angle_gamma   119.97449062
_symmetry_Int_Tables_number   1
_chemical_formula_structural   H2O
_chemical_formula_sum   'H384 O192'
_cell_volume   6180.08218910
_cell_formula_units_Z   192
loop_
 _symmetry_equiv_pos_site_id
 _symmetry_equiv_pos_as_xyz
  1  'x, y, z'
loop_
 _atom_type_symbol
 _atom_type_oxidation_number
  H+  1.0
  O2-  -2.0
loop_
 _atom_site_type_symbol
 _atom_site_label
 _atom_site_symmetry_multiplicity
 _atom_site_fract_x
 _atom_site_fract_y
 _atom_site_fract_z
 _atom_site_occupancy
  H+  H0  1  0.37903865  0.36206098  0.65563947  1
  H+  H1  1  0.39657236  0.77107814  0.65337269  1
  H+  H2  1  0.75086929  0.34436235  0.22033771  1
  H+  H3  1  0.63322077  0.84832444  0.66313143  1
  H+  H4  1  0.09671220  0.18632202  0.72347176  1
  H+  H5  1  0.62685566  1.02033500  -0.00201174  1
  H+  H6  1  0.39511867  0.87375991  0.50814251  1
  H+  H7  1  0.22683414  0.05107297  0.84871121  1
  H+  H8  1  0.87791319  0.10359688  -0.02271108  1
  H+  H9  1  0.13929925  0.12202909  0.32184550  1
  H+  H10  1  0.37698453  0.52334245  0.34933314  1
  H+  H11  1  0.67118923  0.34494471  0.89036222  1
  H+  H12  1  0.12617941  0.86539579  0.33161953  1
  H+  H13  1  0.01709354  0.87422485  0.67912223  1
  H+  H14  1  0.47320743  0.61672790  0.83152615  1
  H+  H15  1  0.12108126  0.37512119  0.33475464  1
  H+  H16  1  0.89153713  0.04428741  0.33667187  1
  H+  H17  1  0.77221568  0.89346634  0.14437949  1
  H+  H18  1  0.60719060  0.42282643  0.75247024  1
  H+  H19  1  0.41009260  0.83372089  0.93754166  1
  H+  H20  1  0.87864550  0.39638644  0.14323993  1
  H+  H21  1  0.53660664  0.39344724  0.33801619  1
  H+  H22  1  0.92247433  0.11502180  0.82710945  1
  H+  H23  1  0.73002999  0.86609634  0.83496281  1
  H+  H24  1  0.27048098  0.88001913  0.67561552  1
  H+  H25  1  0.66442664  0.50635816  0.00236113  1
  H+  H26  1  0.62221789  0.77888034  0.34769505  1
  H+  H27  1  0.12766949  0.77620613  0.33465545  1
  H+  H28  1  1.03402077  0.89655494  0.49856635  1
  H+  H29  1  0.26530363  0.37771797  0.49567859  1
  H+  H30  1  0.62327285  0.99730508  0.34674579  1
  H+  H31  1  0.12747976  0.85976968  -0.00446350  1
  H+  H32  1  0.41346873  0.00713657  0.29491663  1
  H+  H33  1  0.01784421  0.37949870  0.48942486  1
  H+  H34  1  0.57515641  0.39261381  0.19203506  1
  H+  H35  1  0.38240303  0.27842949  0.50525562  1
  H+  H36  1  0.08555397  0.17191791  0.38568924  1
  H+  H37  1  0.31830530  0.59790868  0.00692848  1
  H+  H38  1  0.60142896  0.64935442  0.35134839  1
  H+  H39  1  1.02594868  0.14420110  0.48795769  1
  H+  H40  1  0.77116631  0.14530584  0.49230387  1
  H+  H41  1  0.36946793  0.15516522  0.82778879  1
  H+  H42  1  0.12578792  0.85235558  0.84121129  1
  H+  H43  1  0.64155563  0.36340442  0.33177266  1
  H+  H44  1  0.28339518  0.14624075  0.34204973  1
  H+  H45  1  0.51827890  0.12833727  0.67823048  1
  H+  H46  1  0.77859528  0.37692292  0.34010675  1
  H+  H47  1  0.14341971  0.36182624  0.98780896  1
  H+  H48  1  0.37372251  0.85638820  0.32384603  1
  H+  H49  1  0.42757897  0.34249473  0.17699452  1
  H+  H50  1  0.14297102  0.11460506  0.66763249  1
  H+  H51  1  0.61327882  0.89454272  0.83074648  1
  H+  H52  1  0.87963750  0.46369624  0.48868412  1
  H+  H53  1  0.31107338  0.68059134  0.42717745  1
  H+  H54  1  0.47245754  0.87053222  0.85013000  1
  H+  H55  1  0.16162663  0.12703004  0.99458694  1
  H+  H56  1  0.37502875  0.76804768  0.99427894  1
  H+  H57  1  0.88481816  0.53140383  -0.02752684  1
  H+  H58  1  0.67960837  0.49483605  0.84091908  1
  H+  H59  1  0.61631346  0.38418076  0.50055590  1
  H+  H60  1  0.10466213  0.46944309  0.49207981  1
  H+  H61  1  0.03403984  0.38803289  0.81610557  1
  H+  H62  1  0.39348669  0.27894733  0.33937031  1
  H+  H63  1  0.35284889  0.18205869  0.72713780  1
  H+  H64  1  0.14363984  0.52584833  0.19123565  1
  H+  H65  1  0.84612071  0.16007199  0.66712901  1
  H+  H66  1  0.63937757  0.71955487  0.22791627  1
  H+  H67  1  0.76700284  0.89322291  0.99341351  1
  H+  H68  1  0.99924143  0.60048195  0.51428139  1
  H+  H69  1  0.40352145  0.28846438  1.00316594  1
  H+  H70  1  0.13727884  0.64125744  0.49603543  1
  H+  H71  1  0.61311610  0.37648050  0.81130845  1
  H+  H72  1  0.88526462  0.85391741  0.66607486  1
  H+  H73  1  0.86884475  0.53093823  0.65277150  1
  H+  H74  1  0.63988250  0.59108938  0.80470013  1
  H+  H75  1  0.36475038  0.14442063  0.49827644  1
  H+  H76  1  0.86673481  0.68873329  0.38670225  1
  H+  H77  1  1.03295845  0.12963728  1.00144193  1
  H+  H78  1  0.75834286  0.40042722  0.66965084  1
  H+  H79  1  0.76873084  0.13959196  0.34658041  1
  H+  H80  1  0.85887017  0.95168375  0.65618394  1
  H+  H81  1  0.02574151  0.63442284  0.34653723  1
  H+  H82  1  0.80464607  0.11434338  0.80799088  1
  H+  H83  1  0.13343019  0.23258848  0.82237934  1
  H+  H84  1  0.14329195  0.36478018  0.82421097  1
  H+  H85  1  0.44728696  0.59648382  0.98667915  1
  H+  H86  1  0.49656954  0.38867169  0.82462725  1
  H+  H87  1  0.64240589  0.59491207  0.16611367  1
  H+  H88  1  0.23341361  0.36797140  0.83051488  1
  H+  H89  1  0.61675306  0.89834888  0.34975254  1
  H+  H90  1  0.76894247  0.90184435  0.35313303  1
  H+  H91  1  0.52084395  0.87163245  0.67546193  1
  H+  H92  1  0.02219669  0.90298028  0.34376957  1
  H+  H93  1  0.08139024  0.43480774  0.01261024  1
  H+  H94  1  0.12834878  0.77212730  0.65834441  1
  H+  H95  1  0.50816483  0.64351640  0.35457481  1
  H+  H96  1  0.59539817  0.67046340  0.75733706  1
  H+  H97  1  0.63006036  0.10941759  0.18056971  1
  H+  H98  1  0.27717159  0.40899515  0.66574452  1
  H+  H99  1  0.91492695  0.07719138  0.23703290  1
  H+  H100  1  0.14291317  0.61448214  0.18380200  1
  H+  H101  1  0.79967558  0.62483192  0.02091406  1
  H+  H102  1  0.99651516  0.37015001  0.31084794  1
  H+  H103  1  0.69884668  0.11812203  0.84175342  1
  H+  H104  1  0.86509658  0.14576567  0.34594670  1
  H+  H105  1  0.96221387  0.85141198  0.99014207  1
  H+  H106  1  0.66329163  0.08691572  0.27706946  1
  H+  H107  1  0.86765567  0.46686970  0.33683079  1
  H+  H108  1  0.16047856  0.32887057  0.92278094  1
  H+  H109  1  0.92338081  0.57374738  0.56258117  1
  H+  H110  1  0.98304549  0.62513341  0.97237738  1
  H+  H111  1  0.51481825  0.12765232  0.50144240  1
  H+  H112  1  0.37531428  0.48486134  0.66214004  1
  H+  H113  1  0.12705544  0.10181780  0.16747988  1
  H+  H114  1  0.14382078  0.52783430  0.81558477  1
  H+  H115  1  0.61236119  0.88491151  0.16042993  1
  H+  H116  1  0.88647849  0.12373442  0.50856157  1
  H+  H117  1  0.87469835  0.85292588  0.98479358  1
  H+  H118  1  0.38760769  0.11059357  0.66162905  1
  H+  H119  1  0.63267827  0.02178428  0.18336965  1
  H+  H120  1  0.47790758  0.43721848  0.20269609  1
  H+  H121  1  0.82486987  0.66491178  0.73065907  1
  H+  H122  1  0.67060787  0.09498103  0.56443058  1
  H+  H123  1  0.34088727  0.47382610  -0.00595346  1
  H+  H124  1  0.36447180  0.60431720  0.34170660  1
  H+  H125  1  0.59362152  0.45866073  0.49721519  1
  H+  H126  1  0.67077420  0.84617236  0.56470342  1
  H+  H127  1  0.83671892  0.63454035  0.66568644  1
  H+  H128  1  0.14613485  0.03653357  0.50406851  1
  H+  H129  1  0.67671916  0.47310994  0.65023750  1
  H+  H130  1  0.63686711  0.11985594  0.33854739  1
  H+  H131  1  0.12289754  0.64237169  0.80555667  1
  H+  H132  1  0.14212120  0.12231921  0.49793001  1
  H+  H133  1  0.63311712  0.12116715  0.50704069  1
  H+  H134  1  0.31324657  0.62637707  0.64664295  1
  H+  H135  1  0.79454437  0.61031536  0.82852487  1
  H+  H136  1  0.38694233  0.07427465  0.16027034  1
  H+  H137  1  0.67778668  0.36625926  0.19274845  1
  H+  H138  1  0.71950199  0.35471170  0.01646069  1
  H+  H139  1  0.11520961  0.53993111  0.95167649  1
  H+  H140  1  0.36476500  0.63089192  0.80695129  1
  H+  H141  1  0.58625468  0.13038355  0.83600900  1
  H+  H142  1  0.47954194  0.61846419  0.53972186  1
  H+  H143  1  0.64844558  0.76749953  0.64539453  1
  H+  H144  1  0.94620778  0.34922394  1.01249722  1
  H+  H145  1  0.09246584  0.95655164  0.15806530  1
  H+  H146  1  0.38745020  0.52372661  0.83172337  1
  H+  H147  1  -0.00639492  0.87136157  0.83059829  1
  H+  H148  1  0.87004439  0.47866778  0.81776827  1
  H+  H149  1  0.64225274  0.87912468  0.50619077  1
  H+  H150  1  0.86288871  0.71362172  0.82443023  1
  H+  H151  1  0.25654336  0.89085962  0.34263755  1
  H+  H152  1  0.32167404  0.19651530  1.00310776  1
  H+  H153  1  0.26313579  0.37671758  -0.00891318  1
  H+  H154  1  0.09961799  0.96489292  0.82732668  1
  H+  H155  1  0.87763522  0.79584357  0.33095499  1
  H+  H156  1  1.02000049  0.38256518  0.16231397  1
  H+  H157  1  0.32863648  0.72237706  0.32911936  1
  H+  H158  1  0.37376243  0.40091309  0.81647508  1
  H+  H159  1  0.39801873  0.39750287  0.97886423  1
  H+  H160  1  0.89244812  0.52473654  0.17102886  1
  H+  H161  1  0.48271176  0.14405534  0.16863927  1
  H+  H162  1  0.69918942  0.49163234  0.45804981  1
  H+  H163  1  0.38399066  0.01911740  0.66380306  1
  H+  H164  1  0.66060519  0.47961250  0.18859597  1
  H+  H165  1  0.60888602  0.95853098  0.67933460  1
  H+  H166  1  0.12305244  0.65316320  0.34506006  1
  H+  H167  1  0.86892291  0.28970604  0.65475130  1
  H+  H168  1  0.59777231  0.22339844  0.82967726  1
  H+  H169  1  0.27624964  0.14601590  0.49537880  1
  H+  H170  1  0.88616085  0.35894162  0.49479349  1
  H+  H171  1  0.62769318  0.22252574  0.16197876  1
  H+  H172  1  0.64907088  0.61532042  0.83409547  1
  H+  H173  1  0.63787004  0.59007573  0.57435209  1
  H+  H174  1  0.87678734  0.38065568  0.64795112  1
  H+  H175  1  0.21255291  0.35623129  0.15929775  1
  H+  H176  1  0.86546103  0.23725334  0.49281327  1
  H+  H177  1  0.47155887  0.84856378  0.17528487  1
  H+  H178  1  0.60501380  0.73564433  0.50108537  1
  H+  H179  1  0.27949474  0.63469493  0.79531213  1
  H+  H180  1  0.89421172  0.28581103  0.17173820  1
  H+  H181  1  0.13640212  0.02438300  0.67993287  1
  H+  H182  1  0.31748103  0.22334651  0.16235047  1
  H+  H183  1  -0.04476465  0.62182776  0.65351170  1
  H+  H184  1  0.60131507  0.88684895  0.00557847  1
  H+  H185  1  0.26866458  0.88804522  0.82912462  1
  H+  H186  1  0.53790340  0.71296333  0.75623082  1
  H+  H187  1  0.88784567  0.03600127  0.51540054  1
  H+  H188  1  0.12180747  0.26352200  0.16956247  1
  H+  H189  1  0.89608789  0.25141984  0.85071950  1
  H+  H190  1  0.11457908  0.98756218  0.34190404  1
  H+  H191  1  0.88407866  0.85943515  0.83465295  1
  H+  H192  1  0.44143325  0.08612627  0.25052983  1
  H+  H193  1  0.61907139  0.02210391  0.84112534  1
  H+  H194  1  0.45738860  0.11593169  0.84350769  1
  H+  H195  1  0.87069777  0.00105124  0.98543729  1
  H+  H196  1  0.03392166  0.17041804  0.66817905  1
  H+  H197  1  0.85935043  0.98160145  0.15318335  1
  H+  H198  1  0.38256829  0.75974595  0.17024947  1
  H+  H199  1  0.11485106  0.22238464  0.00057950  1
  H+  H200  1  0.20533475  0.60894863  0.97713776  1
  H+  H201  1  0.14548447  0.30017768  0.65728895  1
  H+  H202  1  0.18907755  0.61499312  0.66668721  1
  H+  H203  1  0.40041402  1.07960067  -0.05893519  1
  H+  H204  1  0.31839174  0.35331073  0.13698169  1
  H+  H205  1  0.10999522  0.87848779  0.68058783  1
  H+  H206  1  0.08976319  0.63284375  0.65779690  1
  H+  H207  1  0.40098881  0.82120484  0.26670716  1
  H+  H208  1  0.89554483  0.07546179  0.66980715  1
  H+  H209  1  0.91200150  0.32997876  0.55898371  1
  H+  H210  1  0.12669871  0.24337369  0.33062118  1
  H+  H211  1  0.21758939  0.85994444  0.99715242  1
  H+  H212  1  0.11398012  0.23098564  0.48700519  1
  H+  H213  1  0.87710858  0.86450116  0.17251844  1
  H+  H214  1  0.82483288  0.67451386  0.55356772  1
  H+  H215  1  0.36199977  0.38894084  0.35163644  1
  H+  H216  1  0.87964723  0.88479754  0.33443817  1
  H+  H217  1  0.90269578  0.61328862  0.82077082  1
  H+  H218  1  0.09581811  0.72828715  -0.00699280  1
  H+  H219  1  0.85101337  0.20202762  -0.01952219  1
  H+  H220  1  0.13166738  0.85231598  0.17466517  1
  H+  H221  1  0.38174130  0.02156172  0.50965123  1
  H+  H222  1  0.14525547  0.77454739  0.51105399  1
  H+  H223  1  0.18181952  0.49724614  0.03152100  1
  H+  H224  1  0.60849505  0.09675453  0.67029799  1
  H+  H225  1  0.37490023  0.51029451  0.16006451  1
  H+  H226  1  0.27360178  0.88487878  0.50048618  1
  H+  H227  1  0.27856520  0.88586384  0.16364537  1
  H+  H228  1  0.14041392  0.86225467  0.50763932  1
  H+  H229  1  0.51013173  0.88108667  0.01128447  1
  H+  H230  1  0.11987525  0.71826450  0.16847273  1
  H+  H231  1  0.36314429  0.37105614  0.50027612  1
  H+  H232  1  0.86656753  0.72729368  0.17352655  1
  H+  H233  1  0.61765579  0.38560873  0.03772365  1
  H+  H234  1  0.72479011  0.62602288  0.33665168  1
  H+  H235  1  0.11731534  0.36256182  0.16888678  1
  H+  H236  1  0.98580572  0.27103946  0.87728538  1
  H+  H237  1  0.54369086  0.40142613  0.01055156  1
  H+  H238  1  0.87970278  0.76347308  0.66276825  1
  H+  H239  1  0.34843210  0.87908316  0.00850195  1
  H+  H240  1  0.21034966  0.07350269  1.00462704  1
  H+  H241  1  0.07038990  0.66880683  0.71848353  1
  H+  H242  1  0.78864385  0.68274098  0.56085619  1
  H+  H243  1  0.86538073  0.38849642  0.81194908  1
  H+  H244  1  0.13683056  0.38464272  0.65460160  1
  H+  H245  1  0.53120243  0.12842908  0.33778360  1
  H+  H246  1  0.38562551  0.87343174  0.85049990  1
  H+  H247  1  0.42895315  0.62596692  0.64414692  1
  H+  H248  1  0.61830308  0.26642506  0.53125046  1
  H+  H249  1  0.27569852  0.65800555  0.49409526  1
  H+  H250  1  0.61347936  0.60987691  0.51152390  1
  H+  H251  1  0.46695376  0.58731397  0.14574048  1
  H+  H252  1  0.35991476  0.88024661  0.67563441  1
  H+  H253  1  0.51818298  0.51170920  -0.01828914  1
  H+  H254  1  0.39420983  0.78616335  0.50067271  1
  H+  H255  1  0.63149654  0.26763422  1.02997896  1
  H+  H256  1  0.29352792  0.17589340  0.81997514  1
  H+  H257  1  0.26559715  0.37925237  0.34758869  1
  H+  H258  1  0.93341167  0.35193388  0.22968943  1
  H+  H259  1  0.72920585  0.36207118  0.83236280  1
  H+  H260  1  0.88097361  0.10805861  0.18235707  1
  H+  H261  1  0.56557279  0.60240985  -0.04970297  1
  H+  H262  1  0.40874833  0.30243470  0.83415336  1
  H+  H263  1  0.01331420  0.39580784  0.66611963  1
  H+  H264  1  0.76596058  0.13439502  0.18103238  1
  H+  H265  1  0.76521806  0.87581700  0.67020353  1
  H+  H266  1  0.66539062  0.83833918  0.92324412  1
  H+  H267  1  0.88088251  0.41629709  -0.01254669  1
  H+  H268  1  0.62346272  0.48254452  0.33676840  1
  H+  H269  1  0.36933165  0.02755034  0.83950230  1
  H+  H270  1  0.29104036  0.62526941  0.06959031  1
  H+  H271  1  0.73953588  0.61990579  0.18116546  1
  H+  H272  1  0.77783502  0.89920101  0.50064070  1
  H+  H273  1  0.09970884  0.48981567  0.66625988  1
  H+  H274  1  0.27973999  0.13757213  0.67850563  1
  H+  H275  1  0.36364346  0.88149946  0.15906938  1
  H+  H276  1  0.88510924  0.59695594  0.33299503  1
  H+  H277  1  0.35798622  0.62547931  0.15110333  1
  H+  H278  1  1.00387130  0.86979113  0.16314595  1
  H+  H279  1  0.13335791  0.36333024  0.50047457  1
  H+  H280  1  0.38466477  0.27632144  0.65283569  1
  H+  H281  1  0.70160995  0.64758508  0.69339196  1
  H+  H282  1  0.08355031  0.95789010  0.01486148  1
  H+  H283  1  0.52509650  0.89807490  0.49460313  1
  H+  H284  1  0.11709861  0.72764969  0.81881066  1
  H+  H285  1  0.01666389  0.13023130  0.16109074  1
  H+  H286  1  0.09902459  0.64314485  0.98013412  1
  H+  H287  1  0.63876275  0.78413487  0.98453769  1
  H+  H288  1  0.18664849  0.33963575  0.27695007  1
  H+  H289  1  0.90476316  0.84614135  0.23789755  1
  H+  H290  1  0.55613766  0.72238558  0.21805619  1
  H+  H291  1  0.16449182  0.34073062  0.56238325  1
  H+  H292  1  0.06805883  0.90351707  0.76192360  1
  H+  H293  1  0.44656668  0.38452505  0.92047988  1
  H+  H294  1  0.80843289  0.18016420  0.76060264  1
  H+  H295  1  0.57714782  0.02386929  0.62010507  1
  H+  H296  1  0.21741384  0.54810934  0.53824279  1
  H+  H297  1  0.57230823  0.15442779  0.73986670  1
  H+  H298  1  0.30555495  0.40660402  0.08557178  1
  H+  H299  1  0.08160066  0.41928324  0.75111464  1
  H+  H300  1  0.18314963  0.07489927  0.90071177  1
  H+  H301  1  0.79286009  0.59390976  0.40524815  1
  H+  H302  1  0.32620771  0.98445272  0.36237547  1
  H+  H303  1  0.91676853  0.11259410  0.60152570  1
  H+  H304  1  0.03225194  0.63030183  0.16987736  1
  H+  H305  1  0.99211259  0.61261126  0.82282030  1
  H+  H306  1  0.57663041  0.91238050  0.77072462  1
  H+  H307  1  0.65134626  0.82978733  0.28616485  1
  H+  H308  1  0.14032045  0.14635724  0.81693171  1
  H+  H309  1  0.59506049  0.12874416  0.01061905  1
  H+  H310  1  0.50468859  0.12757803  1.01230973  1
  H+  H311  1  0.98224079  0.13221313  0.32674981  1
  H+  H312  1  0.84899842  0.40732499  0.42680813  1
  H+  H313  1  0.57604649  0.16225713  0.44284165  1
  H+  H314  1  1.00792006  0.11246023  0.83275735  1
  H+  H315  1  0.89371538  0.61313559  0.18034472  1
  H+  H316  1  0.86916721  0.90221003  0.50271470  1
  H+  H317  1  0.92117134  0.57592540  0.27235802  1
  H+  H318  1  0.58083119  0.16031395  0.10487694  1
  H+  H319  1  0.61171533  0.22306660  0.35121186  1
  H+  H320  1  0.09708157  0.42079912  0.10896367  1
  H+  H321  1  0.89494324  0.79221937  0.51331196  1
  H+  H322  1  0.39926431  0.58298330  0.92370173  1
  H+  H323  1  0.43098424  0.34747880  0.28526576  1
  H+  H324  1  0.08295174  0.40839708  0.38682717  1
  H+  H325  1  0.27112096  0.62904187  0.16368676  1
  H+  H326  1  0.92296996  0.07393236  0.92190006  1
  H+  H327  1  0.16684575  0.83951071  0.60428188  1
  H+  H328  1  0.83207962  0.42826208  0.72091293  1
  H+  H329  1  0.56042817  0.62989030  0.63719407  1
  H+  H330  1  0.83412209  0.93330397  0.40960165  1
  H+  H331  1  0.67011948  0.60168807  0.27595863  1
  H+  H332  1  0.16783030  0.08219820  0.26795802  1
  H+  H333  1  0.90441995  0.36884978  0.31319840  1
  H+  H334  1  0.41265579  0.07946745  0.56979002  1
  H+  H335  1  0.81997526  0.16032506  0.12099081  1
  H+  H336  1  0.67909777  0.59666595  0.98085237  1
  H+  H337  1  0.33937130  0.17316777  0.40206356  1
  H+  H338  1  0.42441898  0.83774227  0.59904025  1
  H+  H339  1  0.32653849  0.40833689  0.43411722  1
  H+  H340  1  0.15964703  0.82854542  0.90082597  1
  H+  H341  1  0.92170818  0.58436517  0.90616437  1
  H+  H342  1  0.66098530  0.31289641  0.28144461  1
  H+  H343  1  0.09832187  0.66816130  0.44051175  1
  H+  H344  1  0.32841807  0.91346654  0.43926891  1
  H+  H345  1  0.16325656  0.83208848  0.23654489  1
  H+  H346  1  0.85064924  0.43894486  0.04842876  1
  H+  H347  1  0.33721100  0.42836161  0.75873993  1
  H+  H348  1  0.71936020  0.54022590  0.90573938  1
  H+  H349  1  0.16286369  0.57801379  0.58274444  1
  H+  H350  1  0.78763530  0.38820338  0.13419877  1
  H+  H351  1  0.05695250  0.89465502  0.07156135  1
  H+  H352  1  0.86765425  0.72242664  1.01857416  1
  H+  H353  1  0.63613188  0.78309339  0.82794226  1
  H+  H354  1  0.17904874  0.59766963  0.86901706  1
  H+  H355  1  0.75246046  0.58093832  0.48919309  1
  H+  H356  1  0.75060725  0.14420716  0.66589823  1
  H+  H357  1  0.32987513  0.91701859  0.77090220  1
  H+  H358  1  0.35265739  0.65718164  0.71456160  1
  H+  H359  1  0.57960621  0.91430468  0.10320206  1
  H+  H360  1  0.56253919  0.67160098  0.44602956  1
  H+  H361  1  0.64424881  0.33180371  0.58838381  1
  H+  H362  1  0.20521468  1.08351428  0.16327741  1
  H+  H363  1  0.57319575  0.61247110  0.07042223  1
  H+  H364  1  0.92372410  0.84268202  0.57459845  1
  H+  H365  1  0.82921352  0.17093116  0.41508740  1
  H+  H366  1  0.84457460  0.67005033  0.11311361  1
  H+  H367  1  0.40793013  0.33852625  0.56622640  1
  H+  H368  1  0.20602176  0.61495446  0.27619125  1
  H+  H369  1  0.83596565  0.91308284  0.76376497  1
  H+  H370  1  0.96213734  0.35706176  0.94183594  1
  H+  H371  1  0.64920818  0.07718574  0.93713203  1
  H+  H372  1  0.83024335  0.92670553  0.05366258  1
  H+  H373  1  0.08792002  0.92209341  0.43702185  1
  H+  H374  1  0.76156613  0.11661699  -0.01048654  1
  H+  H375  1  0.32274834  0.90893377  0.06933159  1
  H+  H376  1  0.58973201  0.93529246  0.41292381  1
  H+  H377  1  0.07712224  0.16130369  0.10108015  1
  H+  H378  1  0.37306505  1.01706711  -0.00213556  1
  H+  H379  1  0.91310035  0.82904444  0.89702878  1
  H+  H380  1  0.87711869  0.97454781  0.82119252  1
  H+  H381  1  0.35196311  0.25413911  0.09332661  1
  H+  H382  1  0.61501496  0.99077831  0.49619647  1
  H+  H383  1  0.60320813  0.68625552  0.11993918  1
  O2-  O384  1  0.07757929  0.16155994  0.14630184  1
  O2-  O385  1  0.08376171  0.17154756  0.46986171  1
  O2-  O386  1  0.10366083  0.17097118  0.80775790  1
  O2-  O387  1  0.08608077  0.40992457  0.15348195  1
  O2-  O388  1  0.07882249  0.41105780  0.47487303  1
  O2-  O389  1  0.09101845  0.41823233  0.79739818  1
  O2-  O390  1  0.09306758  0.65695921  0.15689893  1
  O2-  O391  1  0.10643200  0.67170450  0.48555955  1
  O2-  O392  1  0.08796368  0.67085254  0.79797527  1
  O2-  O393  1  0.06206011  0.89594475  0.14381485  1
  O2-  O394  1  0.09283454  0.92051302  0.48213126  1
  O2-  O395  1  0.06304486  0.90490162  0.81164247  1
  O2-  O396  1  0.34135740  0.27253257  0.13519403  1
  O2-  O397  1  0.33823236  0.17688317  0.48147987  1
  O2-  O398  1  0.35342181  0.19704163  0.80930864  1
  O2-  O399  1  0.30133460  0.39777269  0.13082520  1
  O2-  O400  1  0.32654545  0.40559992  0.48147270  1
  O2-  O401  1  0.33622702  0.42512692  0.80458904  1
  O2-  O402  1  0.32584437  0.65545822  0.13911071  1
  O2-  O403  1  0.32823651  0.69325040  0.47025821  1
  O2-  O404  1  0.33969673  0.65813296  0.78137972  1
  O2-  O405  1  0.33610235  0.91409234  0.14441433  1
  O2-  O406  1  0.33404310  0.91589814  0.48419337  1
  O2-  O407  1  0.32946567  0.92320750  0.81609519  1
  O2-  O408  1  0.58668074  0.16235777  0.15035967  1
  O2-  O409  1  0.57662311  0.15869724  0.48803986  1
  O2-  O410  1  0.55951256  0.16233050  0.81817267  1
  O2-  O411  1  0.63619957  0.41765048  0.18061764  1
  O2-  O412  1  0.60782150  0.42268395  0.47165013  1
  O2-  O413  1  0.59437904  0.41684101  0.79689704  1
  O2-  O414  1  0.57603750  0.62419883  0.11446736  1
  O2-  O415  1  0.56694626  0.67414473  0.49130565  1
  O2-  O416  1  0.56772003  0.69453343  0.78410913  1
  O2-  O417  1  0.58229991  0.91517800  0.14883924  1
  O2-  O418  1  0.58701387  0.93076869  0.47927072  1
  O2-  O419  1  0.58043535  0.92162812  0.81577264  1
  O2-  O420  1  0.82689141  0.16321611  0.16504014  1
  O2-  O421  1  0.83122840  0.17268706  0.47571154  1
  O2-  O422  1  0.81063948  0.17125010  0.80595282  1
  O2-  O423  1  0.84897470  0.42558106  0.12438838  1
  O2-  O424  1  0.84822842  0.40398253  0.47190133  1
  O2-  O425  1  0.83241210  0.41703949  0.80475138  1
  O2-  O426  1  0.84068729  0.66715129  0.15940726  1
  O2-  O427  1  0.75969342  0.54654325  0.45783930  1
  O2-  O428  1  0.84451569  0.65856496  0.80411660  1
  O2-  O429  1  0.83151361  0.92518994  0.13015314  1
  O2-  O430  1  0.83948753  0.93262674  0.48715129  1
  O2-  O431  1  0.83909681  0.91367682  0.80916441  1
  O2-  O432  1  0.14927435  0.06377642  0.18185867  1
  O2-  O433  1  0.17535843  0.09744868  0.51620236  1
  O2-  O434  1  0.17932175  0.06172732  0.85617259  1
  O2-  O435  1  0.15314879  0.32655234  0.18042844  1
  O2-  O436  1  0.16345605  0.33341500  0.51737993  1
  O2-  O437  1  0.17151836  0.33494581  0.84389307  1
  O2-  O438  1  0.17790669  0.58748939  0.20012153  1
  O2-  O439  1  0.18055749  0.57335013  0.53544852  1
  O2-  O440  1  0.17602023  0.59078630  0.82417435  1
  O2-  O441  1  0.16763130  0.83009264  0.19149501  1
  O2-  O442  1  0.17211408  0.83525496  0.52596775  1
  O2-  O443  1  0.16033872  0.82720010  0.85510728  1
  O2-  O444  1  0.42366252  0.12667603  0.18300347  1
  O2-  O445  1  0.41288959  0.08209777  0.52428158  1
  O2-  O446  1  0.39532338  0.08755100  0.85575652  1
  O2-  O447  1  0.47090410  0.38031501  0.20757205  1
  O2-  O448  1  0.40548346  0.33911136  0.51968997  1
  O2-  O449  1  0.43867592  0.36472122  0.84458385  1
  O2-  O450  1  0.41296235  0.57227869  0.16687426  1
  O2-  O451  1  0.42568614  0.58197711  0.56366956  1
  O2-  O452  1  0.41524481  0.58366942  0.84941879  1
  O2-  O453  1  0.41099908  0.81841910  0.18860583  1
  O2-  O454  1  0.42845198  0.84494582  0.52009111  1
  O2-  O455  1  0.41469263  0.84405512  0.86847390  1
  O2-  O456  1  0.66106897  0.08108461  0.19977257  1
  O2-  O457  1  0.66987604  0.09397950  0.51955768  1
  O2-  O458  1  0.64201792  0.08067227  0.85997513  1
  O2-  O459  1  0.69811910  0.32132450  0.19683211  1
  O2-  O460  1  0.64289030  0.32667211  0.54303381  1
  O2-  O461  1  0.66861785  0.33031399  0.84750675  1
  O2-  O462  1  0.67859803  0.58842115  0.19681761  1
  O2-  O463  1  0.63582152  0.57551604  0.53135775  1
  O2-  O464  1  0.73363265  0.52956614  0.86405195  1
  O2-  O465  1  0.61835093  0.75680073  0.21263875  1
  O2-  O466  1  0.67267464  0.84839424  0.51942515  1
  O2-  O467  1  0.67000291  0.83868467  0.85029469  1
  O2-  O468  1  0.91132320  0.07538629  0.19147981  1
  O2-  O469  1  0.91701890  0.09724904  0.52906147  1
  O2-  O470  1  0.94511829  0.08171861  0.84670772  1
  O2-  O471  1  0.92839148  0.34813854  0.17926083  1
  O2-  O472  1  0.91441055  0.32333839  0.51409177  1
  O2-  O473  1  0.94650902  0.29356325  0.87523269  1
  O2-  O474  1  0.92181679  0.57980462  0.19343539  1
  O2-  O475  1  0.93982781  0.55683031  0.52447187  1
  O2-  O476  1  0.93026044  0.58059485  0.83738511  1
  O2-  O477  1  0.90555839  0.83677862  0.19316952  1
  O2-  O478  1  0.92512610  0.85069363  0.52914538  1
  O2-  O479  1  0.91706404  0.83140104  0.85059738  1
  O2-  O480  1  0.16807070  0.08723932  0.31248088  1
  O2-  O481  1  0.17211204  0.08655730  0.68634184  1
  O2-  O482  1  0.20143528  0.10962414  0.97585722  1
  O2-  O483  1  0.17809083  0.33092976  0.32058539  1
  O2-  O484  1  0.17301498  0.35982482  0.64089179  1
  O2-  O485  1  0.15879143  0.32148845  0.96803783  1
  O2-  O486  1  0.20630462  0.63184820  0.31978766  1
  O2-  O487  1  0.13805368  0.58058429  0.64236554  1
  O2-  O488  1  0.15874885  0.60021429  0.94763701  1
  O2-  O489  1  0.15734238  0.83568416  0.31723252  1
  O2-  O490  1  0.16355172  0.83596014  0.64977666  1
  O2-  O491  1  0.15845326  0.83237773  0.97786055  1
  O2-  O492  1  0.46114883  0.06377656  0.28481979  1
  O2-  O493  1  0.41675356  0.07843261  0.64734332  1
  O2-  O494  1  0.40509184  0.07837616  0.98569554  1
  O2-  O495  1  0.42328726  0.34240671  0.32977942  1
  O2-  O496  1  0.41026400  0.33568767  0.63711393  1
  O2-  O497  1  0.45132129  0.39765749  0.96533245  1
  O2-  O498  1  0.40697304  0.58557238  0.33815630  1
  O2-  O499  1  0.45462108  0.59139044  0.62737642  1
  O2-  O500  1  0.39040256  0.57778057  0.96918836  1
  O2-  O501  1  0.39427282  0.81747954  0.31183976  1
  O2-  O502  1  0.42309254  0.83360852  0.64455712  1
  O2-  O503  1  0.40844556  0.82897399  0.98457813  1
  O2-  O504  1  0.66837681  0.08885063  0.32270446  1
  O2-  O505  1  0.62774881  0.05740149  0.64555562  1
  O2-  O506  1  0.66103105  0.07994499  0.98183261  1
  O2-  O507  1  0.66668357  0.32386388  0.32550274  1
  O2-  O508  1  0.66563211  0.36097743  0.66279232  1
  O2-  O509  1  0.66667763  0.32942810  1.04051030  1
  O2-  O510  1  0.66677782  0.60851042  0.32055930  1
  O2-  O511  1  0.64153959  0.63629693  0.69909490  1
  O2-  O512  1  0.70724620  0.56236152  0.97971339  1
  O2-  O513  1  0.65554450  0.84000150  0.33040334  1
  O2-  O514  1  0.67230185  0.83116084  0.64282752  1
  O2-  O515  1  0.66807619  0.84308456  0.96955189  1
  O2-  O516  1  0.91779979  0.10152533  0.31688665  1
  O2-  O517  1  0.91967241  0.12842999  0.64650979  1
  O2-  O518  1  0.91123242  0.07108887  0.96708809  1
  O2-  O519  1  0.93742638  0.34685772  0.29066401  1
  O2-  O520  1  0.90626025  0.34705568  0.63721585  1
  O2-  O521  1  0.97358129  0.39108809  0.97984550  1
  O2-  O522  1  0.92208057  0.57401649  0.31778495  1
  O2-  O523  1  0.89465449  0.59229390  0.63888246  1
  O2-  O524  1  0.91816145  0.59024415  0.95253063  1
  O2-  O525  1  0.90918167  0.85473622  0.31604218  1
  O2-  O526  1  0.91730476  0.82637468  0.65031918  1
  O2-  O527  1  0.90474545  0.82363886  0.96935783  1
  O2-  O528  1  0.09112327  0.16332929  0.01833116  1
  O2-  O529  1  0.08528450  0.17410093  0.34063716  1
  O2-  O530  1  0.09481602  0.19343993  0.67915652  1
  O2-  O531  1  0.13130661  0.43709629  0.03333843  1
  O2-  O532  1  0.08556469  0.40416133  0.34240764  1
  O2-  O533  1  0.07370217  0.42620629  0.68122658  1
  O2-  O534  1  0.06211283  0.66419008  -0.00236842  1
  O2-  O535  1  0.08533782  0.67329315  0.36222561  1
  O2-  O536  1  0.06475936  0.66958263  0.67361605  1
  O2-  O537  1  0.05767391  0.89725813  0.02493697  1
  O2-  O538  1  0.08211807  0.92670203  0.35761822  1
  O2-  O539  1  0.07548478  0.90392449  0.69885085  1
  O2-  O540  1  0.37126073  0.23597901  0.02769592  1
  O2-  O541  1  0.34309946  0.17525237  0.35680188  1
  O2-  O542  1  0.34376686  0.16991640  0.68305546  1
  O2-  O543  1  0.32101720  0.41444096  0.00944039  1
  O2-  O544  1  0.32780816  0.41510287  0.36644211  1
  O2-  O545  1  0.33601784  0.43049118  0.68299867  1
  O2-  O546  1  0.27013211  0.60024942  0.02732578  1
  O2-  O547  1  0.29261669  0.65980485  0.34373828  1
  O2-  O548  1  0.36660305  0.66388965  0.66804977  1
  O2-  O549  1  0.31649489  0.90721127  0.02352712  1
  O2-  O550  1  0.31752674  0.92665225  0.35829693  1
  O2-  O551  1  0.33042762  0.91031670  0.69180482  1
  O2-  O552  1  0.56528633  0.15649863  0.02914625  1
  O2-  O553  1  0.58398811  0.16095810  0.36362479  1
  O2-  O554  1  0.57677111  0.14851655  0.69530333  1
  O2-  O555  1  0.59627001  0.42763925  0.03486260  1
  O2-  O556  1  0.59895992  0.42107179  0.32901109  1
  O2-  O557  1  0.64243812  0.42598614  0.67818001  1
  O2-  O558  1  0.54705131  0.57484053  -0.01004425  1
  O2-  O559  1  0.57106460  0.67916795  0.36676573  1
  O2-  O560  1  0.62537000  0.66369996  0.63970484  1
  O2-  O561  1  0.57180480  0.91416410  0.02531090  1
  O2-  O562  1  0.59245661  0.93577322  0.36498877  1
  O2-  O563  1  0.58058911  0.89773227  0.69332764  1
  O2-  O564  1  0.82647956  0.14418002  -0.00323476  1
  O2-  O565  1  0.82879766  0.16923806  0.36436875  1
  O2-  O566  1  0.80743197  0.17971190  0.68443788  1
  O2-  O567  1  0.84426785  0.43831928  0.00290657  1
  O2-  O568  1  0.84139692  0.40498794  0.34819556  1
  O2-  O569  1  0.82593496  0.42955717  0.67645938  1
  O2-  O570  1  0.85204546  0.67006720  0.04165156  1
  O2-  O571  1  0.82369685  0.63665912  0.36662745  1
  O2-  O572  1  0.81332511  0.66883987  0.68650929  1
  O2-  O573  1  0.82931569  0.92592650  0.00759740  1
  O2-  O574  1  0.83077858  0.93396401  0.36399504  1
  O2-  O575  1  0.82728217  0.90646083  0.68579829  1
