# generated using pymatgen
data_H2O
_symmetry_space_group_name_H-M   'P 1'
_cell_length_a   17.98991074
_cell_length_b   17.99550656
_cell_length_c   21.98204950
_cell_angle_alpha   89.99076507
_cell_angle_beta   90.00339798
_cell_angle_gamma   120.00670396
_symmetry_Int_Tables_number   1
_chemical_formula_structural   H2O
_chemical_formula_sum   'H384 O192'
_cell_volume   6162.57971489
_cell_formula_units_Z   192
loop_
 _symmetry_equiv_pos_site_id
 _symmetry_equiv_pos_as_xyz
  1  'x, y, z'
loop_
 _atom_type_symbol
 _atom_type_oxidation_number
  H+  1.0
  O2-  -2.0
loop_
 _atom_site_type_symbol
 _atom_site_label
 _atom_site_symmetry_multiplicity
 _atom_site_fract_x
 _atom_site_fract_y
 _atom_site_fract_z
 _atom_site_occupancy
  H+  H0  1  0.75843236  0.33712680  0.68368164  1
  H+  H1  1  0.39028254  0.27284114  0.66649191  1
  H+  H2  1  0.07561593  0.66069155  0.43356322  1
  H+  H3  1  0.76617961  0.85852487  0.67160425  1
  H+  H4  1  0.12104707  0.89840018  0.15465414  1
  H+  H5  1  0.47735885  0.10567575  0.99809188  1
  H+  H6  1  0.60190174  0.22067534  0.67604381  1
  H+  H7  1  0.13998272  0.02829268  0.16441992  1
  H+  H8  1  0.34926568  0.14176270  0.35561151  1
  H+  H9  1  0.14032494  0.79106721  0.63873645  1
  H+  H10  1  0.86202101  0.71834453  0.33166192  1
  H+  H11  1  0.22584120  0.36641106  0.32490580  1
  H+  H12  1  0.88710093  0.02098873  0.83765353  1
  H+  H13  1  0.05887558  0.19819697  0.67067461  1
  H+  H14  1  0.89016788  0.27031426  0.50480848  1
  H+  H15  1  0.26266531  0.14203411  0.14957974  1
  H+  H16  1  0.37478046  0.84312667  0.32114230  1
  H+  H17  1  0.38594429  0.52202554  0.17088509  1
  H+  H18  1  0.85653246  0.72052662  0.48836427  1
  H+  H19  1  0.73683102  0.33719223  0.71277320  1
  H+  H20  1  0.11920013  0.75957858  0.32101764  1
  H+  H21  1  0.59751464  0.84114526  0.34780092  1
  H+  H22  1  0.01183346  0.88134013  0.83755882  1
  H+  H23  1  0.60868015  0.66875055  0.65399090  1
  H+  H24  1  0.23124494  0.36095992  0.17033402  1
  H+  H25  1  0.63727683  0.11235159  0.66329020  1
  H+  H26  1  0.97904337  0.34580812  0.65679395  1
  H+  H27  1  0.98542078  0.61705860  0.17089817  1
  H+  H28  1  0.78445219  0.89626480  0.16303171  1
  H+  H29  1  0.01708294  0.63207668  0.49326685  1
  H+  H30  1  0.63152135  0.36134684  0.99589502  1
  H+  H31  1  0.85912553  0.89296959  0.01273503  1
  H+  H32  1  0.23403673  0.61874478  0.33428354  1
  H+  H33  1  0.26032191  0.60922835  0.48882741  1
  H+  H34  1  0.11715748  0.15027617  0.00239046  1
  H+  H35  1  0.85296947  0.71973368  0.83139811  1
  H+  H36  1  0.15019181  0.04419327  0.64090520  1
  H+  H37  1  0.55346085  0.90786566  0.49452012  1
  H+  H38  1  0.74112994  0.11627034  0.17491453  1
  H+  H39  1  0.57856205  0.15390502  0.11555556  1
  H+  H40  1  0.83485909  0.63291079  0.67310240  1
  H+  H41  1  0.89439545  0.52827166  0.17047475  1
  H+  H42  1  0.64417582  0.03131189  0.99927911  1
  H+  H43  1  0.11334459  0.63710315  0.85124198  1
  H+  H44  1  0.88169602  0.83802971  0.32009585  1
  H+  H45  1  0.02362610  0.38135896  0.82461810  1
  H+  H46  1  0.24008864  0.36135113  0.65412110  1
  H+  H47  1  0.59787399  0.18797816  0.34807758  1
  H+  H48  1  0.63819575  0.26694178  0.17654748  1
  H+  H49  1  0.27643843  0.14944974  0.67981397  1
  H+  H50  1  0.66545669  0.05129610  0.33371751  1
  H+  H51  1  0.38222777  0.85523936  0.66877200  1
  H+  H52  1  0.88119404  0.86017508  0.66295853  1
  H+  H53  1  0.51632723  0.63744503  0.15907129  1
  H+  H54  1  0.63950291  0.11161996  0.84306066  1
  H+  H55  1  0.34792017  0.45417597  1.00748016  1
  H+  H56  1  0.11186734  0.35988305  0.67023371  1
  H+  H57  1  0.91604070  0.04555143  0.34434681  1
  H+  H58  1  0.42109566  0.83902456  0.90037819  1
  H+  H59  1  0.83273506  0.16003749  0.76735812  1
  H+  H60  1  0.72268581  0.60028717  0.32782842  1
  H+  H61  1  0.88306279  0.61289468  0.84714082  1
  H+  H62  1  0.65376528  0.46231195  0.72428805  1
  H+  H63  1  0.46632300  0.35149145  0.33523288  1
  H+  H64  1  0.71741293  0.60384435  0.84734589  1
  H+  H65  1  0.89942655  0.15504561  0.35616787  1
  H+  H66  1  0.61551436  0.50153867  0.67813818  1
  H+  H67  1  0.27745024  0.89392123  0.66302439  1
  H+  H68  1  0.13175212  0.02525999  0.84559567  1
  H+  H69  1  0.98469741  0.11886009  0.18130218  1
  H+  H70  1  0.27888136  0.64609808  0.01014245  1
  H+  H71  1  0.91842864  0.93559527  0.36713872  1
  H+  H72  1  0.60612865  0.47406000  1.00405929  1
  H+  H73  1  0.38718153  0.11452126  0.67444655  1
  H+  H74  1  0.11925229  0.39257843  0.33178473  1
  H+  H75  1  0.87856394  0.85887304  0.83791266  1
  H+  H76  1  0.77183684  0.88663345  0.82987989  1
  H+  H77  1  0.23767407  0.63223804  0.17549144  1
  H+  H78  1  0.36824166  0.38743670  0.16222661  1
  H+  H79  1  0.08797168  0.67137427  0.90916525  1
  H+  H80  1  0.11871069  0.22994093  0.16216955  1
  H+  H81  1  0.65003132  0.11294959  0.18247396  1
  H+  H82  1  0.63978008  0.99619966  0.49734893  1
  H+  H83  1  0.65884859  0.79334507  1.00706057  1
  H+  H84  1  0.62182007  0.14120721  0.50139549  1
  H+  H85  1  0.73748407  0.35709696  0.84706375  1
  H+  H86  1  0.64863469  0.26883618  0.84670536  1
  H+  H87  1  0.70653226  0.62564710  0.66127508  1
  H+  H88  1  0.07918760  0.40345508  0.42129588  1
  H+  H89  1  0.39503039  0.87332566  -0.00226140  1
  H+  H90  1  0.38460619  0.27201570  0.17404727  1
  H+  H91  1  0.23019367  0.61138499  0.83666691  1
  H+  H92  1  0.61719134  0.13826898  0.01670524  1
  H+  H93  1  0.38788060  0.52037014  0.50590734  1
  H+  H94  1  0.40283119  0.60404425  0.66864310  1
  H+  H95  1  0.02322037  0.38634909  0.00017950  1
  H+  H96  1  0.77847773  0.38532562  0.48338549  1
  H+  H97  1  0.85880430  0.64809874  1.01442304  1
  H+  H98  1  0.13951062  0.61107963  0.98573475  1
  H+  H99  1  0.62647240  0.71380650  0.33793328  1
  H+  H100  1  0.86208642  0.88332779  0.49780843  1
  H+  H101  1  0.62194062  0.51952435  0.85199212  1
  H+  H102  1  0.88456923  0.35500895  0.99109772  1
  H+  H103  1  0.84167023  0.43053980  -0.05033771  1
  H+  H104  1  0.77069286  0.38159519  0.15824924  1
  H+  H105  1  0.11039488  0.97702349  0.48055645  1
  H+  H106  1  0.92089099  0.32628723  0.90002144  1
  H+  H107  1  0.60763616  0.63489477  0.84142611  1
  H+  H108  1  0.88883340  0.54121652  1.00479676  1
  H+  H109  1  0.90054190  0.36124964  0.65867390  1
  H+  H110  1  0.13751035  0.11693550  0.16798735  1
  H+  H111  1  0.46625670  0.83964524  0.53946715  1
  H+  H112  1  0.12461943  0.50023954  0.49185393  1
  H+  H113  1  0.26972663  0.13630489  0.83604366  1
  H+  H114  1  0.60619761  0.36268046  0.66056277  1
  H+  H115  1  0.34341338  0.14320093  0.11658466  1
  H+  H116  1  0.14086620  0.91341124  0.66231807  1
  H+  H117  1  0.12068319  0.45075255  0.66668067  1
  H+  H118  1  0.12336991  0.26737190  0.99024632  1
  H+  H119  1  0.56123535  0.67775620  -0.01917083  1
  H+  H120  1  0.13138515  0.12057206  0.64156823  1
  H+  H121  1  0.14184507  0.04392875  0.99095774  1
  H+  H122  1  0.88834050  0.26756254  0.99693695  1
  H+  H123  1  0.96942056  0.85927988  0.66431396  1
  H+  H124  1  0.75962366  0.77834475  0.28524870  1
  H+  H125  1  0.71984063  0.61090513  0.50498098  1
  H+  H126  1  0.37322671  0.04518569  0.35671398  1
  H+  H127  1  0.88778616  0.36163852  0.17258073  1
  H+  H128  1  0.52096705  0.12976160  0.68058293  1
  H+  H129  1  0.86538355  0.22209380  0.82602281  1
  H+  H130  1  1.00444931  0.86354194  0.32732322  1
  H+  H131  1  0.48405054  0.87375821  0.99592996  1
  H+  H132  1  0.37911398  0.72737676  0.34541979  1
  H+  H133  1  0.35776379  0.37392013  0.99855319  1
  H+  H134  1  0.89546827  0.36341678  0.84238093  1
  H+  H135  1  0.17896756  0.69897397  0.66701160  1
  H+  H136  1  0.50326566  0.39037192  0.84722873  1
  H+  H137  1  0.02600531  0.14710717  0.00455337  1
  H+  H138  1  0.13697858  0.86538376  0.84478190  1
  H+  H139  1  0.38360079  0.60605588  0.51063205  1
  H+  H140  1  0.57414700  0.15145130  0.44154036  1
  H+  H141  1  0.31211828  0.72087514  0.53101260  1
  H+  H142  1  0.60554844  0.46524014  0.33994835  1
  H+  H143  1  0.50417704  0.16520584  0.52568072  1
  H+  H144  1  0.37051245  0.26636092  0.33880278  1
  H+  H145  1  0.22629065  0.14041623  0.98330772  1
  H+  H146  1  0.41928902  0.56977695  0.60678443  1
  H+  H147  1  0.03118594  0.89631523  0.15894210  1
  H+  H148  1  0.17191776  0.26658893  0.63689228  1
  H+  H149  1  1.01975389  0.62788411  0.33841170  1
  H+  H150  1  0.86930723  0.13874702  0.00590924  1
  H+  H151  1  0.10707137  0.88663839  0.48436779  1
  H+  H152  1  0.97291771  0.85862535  0.50436596  1
  H+  H153  1  0.87557404  0.48377144  0.83621955  1
  H+  H154  1  0.03214886  0.65286664  -0.00433037  1
  H+  H155  1  0.60863145  0.72365359  0.84055733  1
  H+  H156  1  0.12122608  0.36428526  -0.01459769  1
  H+  H157  1  0.38972106  0.86283915  0.83888060  1
  H+  H158  1  0.34473122  0.78736201  0.58633062  1
  H+  H159  1  0.86834932  0.38674997  0.49260524  1
  H+  H160  1  0.33809579  0.93907011  0.31443890  1
  H+  H161  1  0.90030430  0.87189470  0.17773439  1
  H+  H162  1  0.45846322  0.57019830  0.99874829  1
  H+  H163  1  0.52018239  0.38727820  -0.01186841  1
  H+  H164  1  0.23200571  0.87123794  0.17240095  1
  H+  H165  1  0.88877280  0.11092954  0.83739780  1
  H+  H166  1  0.11883025  0.84973545  0.31951508  1
  H+  H167  1  0.36673004  0.72560140  0.83207366  1
  H+  H168  1  0.43001832  0.11173273  0.61274994  1
  H+  H169  1  0.21269249  0.85324635  0.48909189  1
  H+  H170  1  0.72829800  0.11097657  0.84243948  1
  H+  H171  1  0.74381013  0.88676615  1.00733438  1
  H+  H172  1  0.16801221  0.58715308  0.63581294  1
  H+  H173  1  0.23801841  0.87363740  0.00164491  1
  H+  H174  1  0.36301412  0.47050669  0.67714355  1
  H+  H175  1  0.47331479  0.88153832  0.33373043  1
  H+  H176  1  0.77135720  0.37933758  0.33900661  1
  H+  H177  1  0.61331940  0.62075568  0.34157545  1
  H+  H178  1  0.76727655  0.12650918  0.67485499  1
  H+  H179  1  0.52908902  0.12724409  0.18064202  1
  H+  H180  1  0.32737181  0.04570197  0.48664984  1
  H+  H181  1  0.27052174  0.38114190  0.48237543  1
  H+  H182  1  0.62302823  0.89912157  1.01359953  1
  H+  H183  1  0.47659143  0.36209492  0.66217924  1
  H+  H184  1  0.48174567  0.60592159  0.32430208  1
  H+  H185  1  0.05604568  0.15406648  0.37760462  1
  H+  H186  1  0.36321195  0.38199588  0.49143486  1
  H+  H187  1  0.14035895  0.52180078  0.83354144  1
  H+  H188  1  0.95660752  0.64409989  0.64505125  1
  H+  H189  1  1.01939024  0.37114043  0.48295865  1
  H+  H190  1  0.87618502  0.64719237  0.15852284  1
  H+  H191  1  0.11513521  0.47618417  -0.00035737  1
  H+  H192  1  0.62805578  0.98265619  0.16771408  1
  H+  H193  1  0.13218456  0.35461462  0.49105242  1
  H+  H194  1  0.37384959  -0.01909730  0.17998752  1
  H+  H195  1  0.11354190  0.63594056  0.34153350  1
  H+  H196  1  0.37254105  0.63532728  0.34349229  1
  H+  H197  1  0.26545081  0.37893900  0.83081828  1
  H+  H198  1  0.14081174  0.77874660  0.85401225  1
  H+  H199  1  0.36485260  0.73713185  1.00971905  1
  H+  H200  1  0.63303502  0.02001178  0.66353451  1
  H+  H201  1  0.63623340  0.35509734  0.17119959  1
  H+  H202  1  0.63989007  0.77305664  0.16957233  1
  H+  H203  1  0.37768909  0.73227164  0.16277297  1
  H+  H204  1  0.61724119  0.51103260  0.17700757  1
  H+  H205  1  0.87285333  -0.01329553  0.17137897  1
  H+  H206  1  0.12246257  0.76823994  0.49942336  1
  H+  H207  1  0.36572160  0.63520290  0.83432574  1
  H+  H208  1  0.36209146  0.38136594  0.67881618  1
  H+  H209  1  0.33734948  0.40810322  0.09933311  1
  H+  H210  1  0.52764130  0.88648246  0.83025379  1
  H+  H211  1  0.33813416  1.01031628  0.48460180  1
  H+  H212  1  0.62270726  0.64161308  0.00236048  1
  H+  H213  1  -0.05399843  0.07945861  0.64423755  1
  H+  H214  1  0.44784464  0.83519194  0.50777819  1
  H+  H215  1  0.27528430  0.88750798  0.82527381  1
  H+  H216  1  0.87988520  0.52168969  0.50412326  1
  H+  H217  1  0.14810073  0.32292157  0.92220719  1
  H+  H218  1  0.12748655  0.35328673  0.83356742  1
  H+  H219  1  0.87984668  0.73800856  0.16049495  1
  H+  H220  1  0.86530268  0.43515828  0.77397596  1
  H+  H221  1  0.77279569  0.85530908  0.32575315  1
  H+  H222  1  0.60689519  0.38765086  0.48771275  1
  H+  H223  1  0.97491212  0.49613946  0.70035960  1
  H+  H224  1  0.06783542  0.90336156  0.38639618  1
  H+  H225  1  0.13896509  0.35632401  0.16917301  1
  H+  H226  1  0.61651639  0.97538500  0.83168265  1
  H+  H227  1  0.32289026  0.21164167  0.04541200  1
  H+  H228  1  0.33493398  0.66035074  0.43990132  1
  H+  H229  1  0.86498694  0.09017038  0.65408416  1
  H+  H230  1  0.10861648  0.72863489  0.15274798  1
  H+  H231  1  0.85514707  0.16761392  0.43861377  1
  H+  H232  1  0.90095956  0.50680739  0.67278988  1
  H+  H233  1  0.80499120  0.14450159  0.35044056  1
  H+  H234  1  0.51996927  0.63321338  0.49283290  1
  H+  H235  1  0.47413617  0.60965326  0.84591461  1
  H+  H236  1  0.37009952  0.38146049  0.34305254  1
  H+  H237  1  0.85895589  0.21204431  0.67127651  1
  H+  H238  1  0.89794062  0.03314611  0.99513040  1
  H+  H239  1  0.12494516  0.23347838  0.47804382  1
  H+  H240  1  0.84626879  0.72524179  0.67918346  1
  H+  H241  1  0.37491746  0.47869773  0.34175154  1
  H+  H242  1  0.64033151  0.86617512  0.84677215  1
  H+  H243  1  0.48980955  0.87172372  0.17642156  1
  H+  H244  1  0.66476655  0.33563531  0.42938599  1
  H+  H245  1  0.74077337  0.12060406  0.51678568  1
  H+  H246  1  0.31244024  0.83346022  0.48708654  1
  H+  H247  1  0.63247404  0.76980794  0.49719452  1
  H+  H248  1  0.63162582  0.61231661  0.50492746  1
  H+  H249  1  0.89993693  0.27793740  0.33199771  1
  H+  H250  1  0.57526229  0.40599535  0.09815628  1
  H+  H251  1  0.13185535  0.01041830  0.31607986  1
  H+  H252  1  0.11024924  0.13223975  0.82017296  1
  H+  H253  1  0.83911064  0.75328554  0.99546876  1
  H+  H254  1  0.77932385  0.13840562  0.00896251  1
  H+  H255  1  0.36682753  0.97974910  0.67069923  1
  H+  H256  1  0.61403883  0.87215470  0.32163034  1
  H+  H257  1  0.84211663  0.95661351  0.66693071  1
  H+  H258  1  0.84982729  0.92939375  0.41545628  1
  H+  H259  1  0.16885236  0.07735052  0.26128903  1
  H+  H260  1  0.17223125  0.57799854  0.93139239  1
  H+  H261  1  0.78268501  0.78113164  0.95703092  1
  H+  H262  1  0.87064039  0.22925646  0.16247751  1
  H+  H263  1  0.97495112  0.61759786  0.85916439  1
  H+  H264  1  0.60746468  0.47725749  0.49601129  1
  H+  H265  1  0.12446231  0.74044826  -0.00935661  1
  H+  H266  1  0.64437462  0.86527478  0.50151802  1
  H+  H267  1  0.25671705  0.13157042  0.34171487  1
  H+  H268  1  0.29299331  0.62010738  0.67762356  1
  H+  H269  1  0.02378181  0.37380927  0.15627326  1
  H+  H270  1  0.38362933  0.51993768  0.84267881  1
  H+  H271  1  0.37027906  0.97926559  0.01228295  1
  H+  H272  1  0.52439942  0.88959342  0.67411024  1
  H+  H273  1  0.85902780  0.62744282  0.33671266  1
  H+  H274  1  0.11650368  0.64557570  0.15974738  1
  H+  H275  1  0.52722556  0.13442032  0.83026269  1
  H+  H276  1  0.38864034  0.02123929  0.83741095  1
  H+  H277  1  0.77366924  0.88325977  0.49422281  1
  H+  H278  1  0.38811683  0.10958425  0.84303767  1
  H+  H279  1  0.59136734  0.92692450  0.07241000  1
  H+  H280  1  0.20866753  0.70793454  0.59816858  1
  H+  H281  1  0.02943269  0.39293644  0.33236666  1
  H+  H282  1  0.35827431  0.25414185  -0.02072879  1
  H+  H283  1  0.40214438  0.11538161  0.20207053  1
  H+  H284  1  0.72292344  0.61200140  1.00370439  1
  H+  H285  1  0.01941033  0.12920268  0.82012231  1
  H+  H286  1  0.52155458  0.37620033  0.15998937  1
  H+  H287  1  0.82624002  0.91045608  0.76754513  1
  H+  H288  1  0.38589250  0.61211678  0.17376688  1
  H+  H289  1  0.38685358  0.76710278  0.67160647  1
  H+  H290  1  0.66974405  0.80089681  0.58895256  1
  H+  H291  1  0.37412198  0.89319130  0.17056087  1
  H+  H292  1  0.12682744  0.26264533  0.83258296  1
  H+  H293  1  0.55245610  1.03340605  0.36890094  1
  H+  H294  1  0.83129090  0.67515394  0.07707365  1
  H+  H295  1  0.67588010  0.84513143  0.90752654  1
  H+  H296  1  0.70928709  0.09511959  0.27137458  1
  H+  H297  1  0.42044388  0.07404091  0.93778198  1
  H+  H298  1  0.66433700  0.32612655  0.94052486  1
  H+  H299  1  0.49347684  0.12282179  0.35485874  1
  H+  H300  1  0.14512449  0.53023819  0.32882231  1
  H+  H301  1  0.34247202  0.92289478  0.07416973  1
  H+  H302  1  0.07002352  0.91274734  0.77826453  1
  H+  H303  1  0.92025550  0.58063632  0.26415771  1
  H+  H304  1  0.81971539  0.65903745  0.77318266  1
  H+  H305  1  0.41698948  0.57450791  0.26688261  1
  H+  H306  1  0.88009636  0.09981791  0.54145120  1
  H+  H307  1  0.63865738  0.26985331  0.48273511  1
  H+  H308  1  0.16921672  0.32924140  0.55055027  1
  H+  H309  1  0.17353615  0.10040690  0.54709894  1
  H+  H310  1  0.34101454  0.67475058  0.10269828  1
  H+  H311  1  0.08118287  0.40415868  0.76354788  1
  H+  H312  1  0.07531463  0.65370436  0.73839220  1
  H+  H313  1  0.88678483  0.51725373  0.32212267  1
  H+  H314  1  0.84392576  0.16734566  0.10423726  1
  H+  H315  1  0.16123594  0.83364079  0.22486006  1
  H+  H316  1  0.34293118  0.65995448  0.74048157  1
  H+  H317  1  0.41109230  0.56536544  0.93605653  1
  H+  H318  1  0.09834321  0.70158003  0.73300266  1
  H+  H319  1  0.62336727  0.89124584  0.16497859  1
  H+  H320  1  0.12776347  0.59120027  0.50018624  1
  H+  H321  1  0.57631491  0.66672655  0.09977048  1
  H+  H322  1  0.61933254  0.32342652  0.59993397  1
  H+  H323  1  0.65259461  0.58828191  0.60009743  1
  H+  H324  1  0.55015788  0.42344371  0.78313705  1
  H+  H325  1  0.65369031  0.56818933  0.27165489  1
  H+  H326  1  0.41888503  0.08672326  0.26715191  1
  H+  H327  1  0.62939307  0.35191240  0.32884394  1
  H+  H328  1  0.37521340  0.36194531  0.86881970  1
  H+  H329  1  0.89812593  0.58743187  0.59098063  1
  H+  H330  1  0.89682083  0.11897278  0.18521845  1
  H+  H331  1  0.61056806  0.22285540  0.01879733  1
  H+  H332  1  0.91508604  0.82581868  0.56485294  1
  H+  H333  1  0.94968204  0.10451478  0.28595653  1
  H+  H334  1  0.89180843  0.82160912  0.89985144  1
  H+  H335  1  0.61507327  0.59903794  0.17841762  1
  H+  H336  1  0.32919003  0.17188008  0.74351987  1
  H+  H337  1  0.88882500  0.36066559  0.32614871  1
  H+  H338  1  0.83715182  0.41434926  0.39566518  1
  H+  H339  1  0.57661824  0.96989300  0.40453179  1
  H+  H340  1  0.24465533  0.85720049  0.32187449  1
  H+  H341  1  0.08293444  0.40294137  0.09719243  1
  H+  H342  1  0.87485482  0.60923147  0.49981305  1
  H+  H343  1  0.41378658  0.32542987  0.23674451  1
  H+  H344  1  0.67256497  0.08885912  0.93884937  1
  H+  H345  1  0.13200863  -0.08479870  1.00406416  1
  H+  H346  1  0.32972950  0.40626361  0.77503423  1
  H+  H347  1  0.91164068  0.59574652  0.94498977  1
  H+  H348  1  0.91872511  0.33283091  0.23227821  1
  H+  H349  1  0.57838427  0.65903896  0.43180850  1
  H+  H350  1  0.92477520  0.83092472  0.23545657  1
  H+  H351  1  0.66721998  0.58329224  0.94039956  1
  H+  H352  1  0.30853573  0.86991626  0.42021116  1
  H+  H353  1  0.16840497  0.84754349  0.57957266  1
  H+  H354  1  0.41734113  0.16731207  0.52385520  1
  H+  H355  1  0.17865326  0.60484070  0.23423653  1
  H+  H356  1  0.08362325  0.17306582  0.10179752  1
  H+  H357  1  0.82594546  0.66156879  0.42779538  1
  H+  H358  1  0.13702611  0.13835858  0.47978657  1
  H+  H359  1  0.33986210  0.41572046  0.41200610  1
  H+  H360  1  0.35876807  0.22255727  0.84441456  1
  H+  H361  1  0.58698236  0.16419017  0.77100282  1
  H+  H362  1  0.33230655  0.91463314  0.76445180  1
  H+  H363  1  0.43074257  0.83677092  0.23591121  1
  H+  H364  1  0.19192903  0.53870168  0.59062968  1
  H+  H365  1  0.06772925  0.14829722  0.72644837  1
  H+  H366  1  0.09625609  0.94006141  0.06105998  1
  H+  H367  1  0.17750519  0.98280454  0.71342556  1
  H+  H368  1  0.18420661  0.85356941  0.93951440  1
  H+  H369  1  0.46987641  0.36840381  0.50689864  1
  H+  H370  1  0.66359614  0.32415800  0.27184261  1
  H+  H371  1  0.83061495  0.41128689  0.09954846  1
  H+  H372  1  0.57355385  0.41070981  0.40098149  1
  H+  H373  1  0.26860730  0.14446968  0.43941721  1
  H+  H374  1  0.68508967  0.82716371  0.22882848  1
  H+  H375  1  0.85087431  0.93579881  0.07559831  1
  H+  H376  1  0.40836719  0.33738224  0.56491181  1
  H+  H377  1  0.67570728  0.08763803  0.57416802  1
  H+  H378  1  0.92142750  0.33105312  0.56248498  1
  H+  H379  1  0.58435086  0.91985995  0.73268760  1
  H+  H380  1  0.16090138  0.09285623  0.90090085  1
  H+  H381  1  0.92261929  0.08624173  0.93193230  1
  H+  H382  1  0.17127880  0.33895171  0.26389358  1
  H+  H383  1  0.76498109  0.38500429  -0.00506474  1
  O2-  O384  1  0.08424613  0.16870387  0.14680226  1
  O2-  O385  1  0.09843819  0.17123803  0.46142237  1
  O2-  O386  1  0.07850203  0.15958980  0.80144862  1
  O2-  O387  1  0.08307666  0.39529032  0.14149871  1
  O2-  O388  1  0.07969654  0.39855666  0.46755067  1
  O2-  O389  1  0.08409912  0.41080249  0.80870021  1
  O2-  O390  1  0.07834695  0.66675531  0.14311361  1
  O2-  O391  1  0.07773192  0.66071700  0.47930393  1
  O2-  O392  1  0.08346086  0.66917104  0.86300358  1
  O2-  O393  1  0.09044079  0.92914618  0.14094992  1
  O2-  O394  1  0.07442628  0.91561532  0.47094459  1
  O2-  O395  1  0.07316788  0.91299077  0.82272628  1
  O2-  O396  1  0.32322919  0.18048237  0.13224404  1
  O2-  O397  1  0.26367803  0.14259061  0.48588920  1
  O2-  O398  1  0.33108773  0.16723784  0.82207089  1
  O2-  O399  1  0.33810819  0.41623845  0.14496728  1
  O2-  O400  1  0.33284668  0.41238912  0.47005622  1
  O2-  O401  1  0.32754312  0.40803674  0.82030745  1
  O2-  O402  1  0.34514590  0.67173218  0.14865724  1
  O2-  O403  1  0.32398473  0.64871544  0.48446005  1
  O2-  O404  1  0.33573662  0.66503447  0.81688347  1
  O2-  O405  1  0.34444903  0.92527627  0.15785886  1
  O2-  O406  1  0.30466862  0.87641298  0.46438968  1
  O2-  O407  1  0.33555769  0.91553390  0.80972961  1
  O2-  O408  1  0.58653365  0.15726681  0.16072855  1
  O2-  O409  1  0.58919594  0.16867882  0.48592316  1
  O2-  O410  1  0.58842185  0.16344750  0.81653765  1
  O2-  O411  1  0.58110187  0.40545441  0.14304854  1
  O2-  O412  1  0.57341650  0.41694917  0.48011427  1
  O2-  O413  1  0.56023738  0.42510160  0.82696122  1
  O2-  O414  1  0.57767958  0.66856420  0.14459210  1
  O2-  O415  1  0.58046332  0.66366296  0.47717573  1
  O2-  O416  1  0.57490806  0.66293375  0.82785610  1
  O2-  O417  1  0.59420458  0.92280273  0.15068510  1
  O2-  O418  1  0.61027716  0.93896394  0.47548561  1
  O2-  O419  1  0.58857783  0.91523373  0.81600450  1
  O2-  O420  1  0.84288603  0.16732323  0.14959110  1
  O2-  O421  1  0.84776741  0.16513920  0.48661329  1
  O2-  O422  1  0.83434225  0.16078083  0.81296084  1
  O2-  O423  1  0.83209224  0.41238027  0.14386282  1
  O2-  O424  1  0.84152252  0.41976646  0.47606650  1
  O2-  O425  1  0.85315999  0.42525609  0.81808168  1
  O2-  O426  1  0.84731405  0.67858016  0.14372687  1
  O2-  O427  1  0.82399508  0.65987524  0.47374638  1
  O2-  O428  1  0.82470931  0.65824510  0.81836647  1
  O2-  O429  1  0.84611596  0.92895814  0.15112204  1
  O2-  O430  1  0.83544616  0.91665241  0.48258480  1
  O2-  O431  1  0.83181256  0.91500589  0.81283956  1
  O2-  O432  1  0.17218771  0.08955472  0.17983400  1
  O2-  O433  1  0.17177370  0.09673882  0.50046167  1
  O2-  O434  1  0.16267810  0.08768467  0.85451773  1
  O2-  O435  1  0.17156050  0.32870325  0.18687502  1
  O2-  O436  1  0.16711240  0.32698031  0.50530912  1
  O2-  O437  1  0.15526192  0.32135827  0.85122437  1
  O2-  O438  1  0.17774722  0.60959023  0.18959225  1
  O2-  O439  1  0.15782009  0.55914331  0.51002640  1
  O2-  O440  1  0.16897125  0.58050739  0.85116219  1
  O2-  O441  1  0.16908271  0.84290362  0.18006168  1
  O2-  O442  1  0.15404716  0.83131631  0.50899352  1
  O2-  O443  1  0.17469020  0.84278182  0.85801342  1
  O2-  O444  1  0.42660655  0.08270230  0.21970753  1
  O2-  O445  1  0.46245384  0.17260683  0.55102322  1
  O2-  O446  1  0.42056249  0.08048447  0.85462909  1
  O2-  O447  1  0.41960581  0.33053186  0.19188009  1
  O2-  O448  1  0.40875939  0.34227809  0.52005271  1
  O2-  O449  1  0.40627907  0.33112197  0.88113001  1
  O2-  O450  1  0.41586826  0.58090743  0.18924384  1
  O2-  O451  1  0.41823190  0.57883156  0.52334931  1
  O2-  O452  1  0.41172523  0.57918237  0.85940013  1
  O2-  O453  1  0.42877332  0.84036764  0.19070173  1
  O2-  O454  1  0.29808654  0.75939889  0.55503969  1
  O2-  O455  1  0.42033748  0.83357074  0.85488939  1
  O2-  O456  1  0.68267820  0.08372472  0.19408325  1
  O2-  O457  1  0.67919841  0.09147677  0.52803425  1
  O2-  O458  1  0.66916825  0.08124603  0.85981749  1
  O2-  O459  1  0.66936872  0.32891199  0.18855189  1
  O2-  O460  1  0.66692338  0.33417821  0.47379815  1
  O2-  O461  1  0.68088578  0.32589159  0.86676254  1
  O2-  O462  1  0.63412451  0.56384265  0.20069224  1
  O2-  O463  1  0.66027091  0.58117227  0.52204331  1
  O2-  O464  1  0.66021479  0.58078409  0.86682046  1
  O2-  O465  1  0.67476482  0.83328590  0.18541237  1
  O2-  O466  1  0.66704153  0.82811256  0.51594649  1
  O2-  O467  1  0.67294984  0.83829837  0.86265229  1
  O2-  O468  1  0.92710812  0.08951870  0.20167021  1
  O2-  O469  1  0.91127136  0.14220565  0.50900721  1
  O2-  O470  1  0.92062644  0.08180243  0.85224642  1
  O2-  O471  1  0.91744817  0.33067197  0.18679226  1
  O2-  O472  1  0.91950209  0.33230635  0.51711449  1
  O2-  O473  1  0.92228052  0.32838706  0.85447442  1
  O2-  O474  1  0.92375505  0.58673679  0.18769477  1
  O2-  O475  1  0.90607034  0.58201658  0.51960236  1
  O2-  O476  1  0.91135497  0.58344914  0.86721641  1
  O2-  O477  1  0.93155072  0.84159279  0.18898096  1
  O2-  O478  1  0.91276724  0.82431516  0.51979149  1
  O2-  O479  1  0.90639687  0.82700809  0.85556354  1
  O2-  O480  1  0.16655998  0.07240820  0.30625936  1
  O2-  O481  1  0.17149309  0.10293003  0.62433968  1
  O2-  O482  1  0.16237808  0.10287244  0.97236431  1
  O2-  O483  1  0.16758735  0.34337349  0.30908967  1
  O2-  O484  1  0.18203023  0.32494655  0.63258446  1
  O2-  O485  1  0.14704797  0.32701423  0.96864828  1
  O2-  O486  1  0.17455488  0.59273232  0.31847216  1
  O2-  O487  1  0.18951977  0.54554697  0.63508212  1
  O2-  O488  1  0.16783142  0.57688786  0.97669714  1
  O2-  O489  1  0.14939324  0.81914424  0.30355502  1
  O2-  O490  1  0.17175368  0.85134369  0.62626412  1
  O2-  O491  1  0.17830502  0.84797652  0.98450000  1
  O2-  O492  1  0.40840980  0.09766806  0.33388514  1
  O2-  O493  1  0.41663462  0.08638678  0.65505527  1
  O2-  O494  1  0.41785256  0.07136111  0.98278729  1
  O2-  O495  1  0.40517792  0.32654845  0.32145250  1
  O2-  O496  1  0.41691123  0.33181359  0.64838037  1
  O2-  O497  1  0.41911283  0.34360114  0.94812180  1
  O2-  O498  1  0.41952390  0.57314872  0.31275514  1
  O2-  O499  1  0.41978660  0.56374771  0.65153902  1
  O2-  O500  1  0.40324637  0.55560277  0.98101097  1
  O2-  O501  1  0.42264451  0.83072106  0.31541377  1
  O2-  O502  1  0.40930746  0.82381681  0.65079425  1
  O2-  O503  1  0.42502052  0.84484100  0.97857771  1
  O2-  O504  1  0.71924459  0.09774424  0.31602035  1
  O2-  O505  1  0.66745225  0.08206765  0.64802598  1
  O2-  O506  1  0.67553214  0.09219842  0.98439739  1
  O2-  O507  1  0.66228323  0.32291409  0.31724427  1
  O2-  O508  1  0.60666949  0.31223986  0.64302704  1
  O2-  O509  1  0.66362037  0.33045029  0.98643230  1
  O2-  O510  1  0.65969248  0.56885271  0.31772795  1
  O2-  O511  1  0.64676957  0.59276555  0.64512935  1
  O2-  O512  1  0.66299674  0.58339542  0.98639512  1
  O2-  O513  1  0.72915859  0.80671910  0.30070729  1
  O2-  O514  1  0.68601726  0.78309339  0.62789081  1
  O2-  O515  1  0.68388321  0.85235123  0.99045670  1
  O2-  O516  1  0.95284547  0.10637007  0.33119666  1
  O2-  O517  1  0.88546586  0.05479825  0.63230045  1
  O2-  O518  1  0.92525710  0.09235040  0.97723435  1
  O2-  O519  1  0.92288372  0.33440743  0.31091767  1
  O2-  O520  1  0.91861397  0.32172386  0.64218486  1
  O2-  O521  1  0.91810407  0.32740727  0.97883887  1
  O2-  O522  1  0.91833350  0.57882399  0.31006707  1
  O2-  O523  1  0.90009065  0.59441735  0.63745802  1
  O2-  O524  1  0.91711635  0.60114670  0.99040028  1
  O2-  O525  1  0.91197002  0.81012157  0.30463293  1
  O2-  O526  1  0.91105818  0.82800696  0.64836718  1
  O2-  O527  1  0.84186908  0.80274164  0.97003886  1
  O2-  O528  1  0.08697745  0.18147317  0.01914995  1
  O2-  O529  1  0.11523559  0.18262401  0.39556354  1
  O2-  O530  1  0.06165310  0.14673299  0.68033281  1
  O2-  O531  1  0.08508389  0.41359896  0.01215366  1
  O2-  O532  1  0.08897072  0.42274847  0.34944969  1
  O2-  O533  1  0.08322902  0.39167224  0.68420195  1
  O2-  O534  1  0.09270437  0.67672763  -0.01733602  1
  O2-  O535  1  0.07920890  0.66266390  0.35576422  1
  O2-  O536  1  0.15739546  0.67784247  0.62633643  1
  O2-  O537  1  0.10274217  0.94715908  0.01613479  1
  O2-  O538  1  0.06839115  0.89970887  0.34153235  1
  O2-  O539  1  0.12765113  0.95288040  0.68682448  1
  O2-  O540  1  0.31996679  0.19831069  0.00196013  1
  O2-  O541  1  0.31099658  0.16638266  0.36670556  1
  O2-  O542  1  0.33390705  0.17229625  0.69790923  1
  O2-  O543  1  0.32802510  0.39574486  0.02465517  1
  O2-  O544  1  0.34340169  0.41778213  0.35956582  1
  O2-  O545  1  0.32802615  0.40827665  0.69230590  1
  O2-  O546  1  0.33533890  0.68025985  0.02972723  1
  O2-  O547  1  0.34588567  0.66732070  0.36115984  1
  O2-  O548  1  0.34941211  0.66165403  0.69493881  1
  O2-  O549  1  0.33934528  0.91812174  0.02914262  1
  O2-  O550  1  0.30803469  0.88300973  0.33421131  1
  O2-  O551  1  0.33338879  0.91830317  0.68426572  1
  O2-  O552  1  0.58338203  0.16308987  0.03471747  1
  O2-  O553  1  0.55596929  0.13592183  0.36964426  1
  O2-  O554  1  0.58311144  0.16224616  0.69224257  1
  O2-  O555  1  0.57358619  0.41134601  0.01332212  1
  O2-  O556  1  0.57330332  0.40451613  0.35578887  1
  O2-  O557  1  0.60235517  0.44635344  0.70017573  1
  O2-  O558  1  0.59647128  0.67863700  0.01483116  1
  O2-  O559  1  0.58534943  0.65592364  0.35332197  1
  O2-  O560  1  0.60412334  0.72184041  0.65577512  1
  O2-  O561  1  0.59108999  0.92835766  0.02680475  1
  O2-  O562  1  0.55864436  0.98159413  0.36466518  1
  O2-  O563  1  0.58460017  0.92523418  0.68775855  1
  O2-  O564  1  0.84039448  0.16896163  0.02383054  1
  O2-  O565  1  0.86351838  0.17973589  0.37136507  1
  O2-  O566  1  0.82903386  0.15313975  0.68860773  1
  O2-  O567  1  0.83096627  0.41841111  -0.00688673  1
  O2-  O568  1  0.83355125  0.41092445  0.35035480  1
  O2-  O569  1  0.91282606  0.46523470  0.69497314  1
  O2-  O570  1  0.82202143  0.67094052  0.02986557  1
  O2-  O571  1  0.82795380  0.65732165  0.35067324  1
  O2-  O572  1  0.80958945  0.66463645  0.69320350  1
  O2-  O573  1  0.84682851  0.93692273  0.02981032  1
  O2-  O574  1  0.86509809  0.93737586  0.36882307  1
  O2-  O575  1  0.82400402  0.90073701  0.68837384  1
