# generated using pymatgen
data_H2O
_symmetry_space_group_name_H-M   'P 1'
_cell_length_a   17.98452297
_cell_length_b   17.98898822
_cell_length_c   21.99651052
_cell_angle_alpha   89.99853635
_cell_angle_beta   90.00173129
_cell_angle_gamma   120.01101443
_symmetry_Int_Tables_number   1
_chemical_formula_structural   H2O
_chemical_formula_sum   'H384 O192'
_cell_volume   6162.28627365
_cell_formula_units_Z   192
loop_
 _symmetry_equiv_pos_site_id
 _symmetry_equiv_pos_as_xyz
  1  'x, y, z'
loop_
 _atom_type_symbol
 _atom_type_oxidation_number
  H+  1.0
  O2-  -2.0
loop_
 _atom_site_type_symbol
 _atom_site_label
 _atom_site_symmetry_multiplicity
 _atom_site_fract_x
 _atom_site_fract_y
 _atom_site_fract_z
 _atom_site_occupancy
  H+  H0  1  0.88195206  0.63812625  0.65453951  1
  H+  H1  1  0.13272705  0.51882346  0.32420190  1
  H+  H2  1  0.64126120  0.76821092  0.16692683  1
  H+  H3  1  0.70645059  0.71942992  0.54415834  1
  H+  H4  1  1.01929338  0.88825707  0.49531028  1
  H+  H5  1  0.97289574  0.11752486  0.51184275  1
  H+  H6  1  0.77374019  0.88215186  0.33378856  1
  H+  H7  1  0.97703273  0.86518094  0.83165890  1
  H+  H8  1  0.08932396  0.66957578  0.23840520  1
  H+  H9  1  0.14530739  0.38334200  -0.00222281  1
  H+  H10  1  0.33459119  0.42343450  0.09896860  1
  H+  H11  1  0.28298927  0.40302506  0.00430355  1
  H+  H12  1  0.64845945  0.85149141  0.66213028  1
  H+  H13  1  0.23588170  0.12327066  0.18198881  1
  H+  H14  1  0.38733014  0.77061658  0.16728999  1
  H+  H15  1  0.61298395  0.47781620  0.50317964  1
  H+  H16  1  0.61136313  0.46314060  0.32476551  1
  H+  H17  1  0.61887141  0.39483702  0.16025212  1
  H+  H18  1  0.22603405  0.83398421  1.03164186  1
  H+  H19  1  0.61760793  0.87976806  0.00286489  1
  H+  H20  1  0.22883842  0.13014419  0.02663137  1
  H+  H21  1  0.25570272  0.13196652  0.50231296  1
  H+  H22  1  0.03226101  0.39138795  0.66430596  1
  H+  H23  1  0.76203176  0.37419663  0.34334459  1
  H+  H24  1  0.11929067  0.35545912  0.51204213  1
  H+  H25  1  0.21457053  0.10999194  0.84850431  1
  H+  H26  1  0.08073333  0.91211251  0.10754784  1
  H+  H27  1  0.85422103  0.17561969  0.74105380  1
  H+  H28  1  0.33550593  0.87233086  0.48865475  1
  H+  H29  1  0.90329739  0.76331515  -0.00944043  1
  H+  H30  1  0.48147649  0.37460011  -0.00470427  1
  H+  H31  1  0.36962226  0.88711997  0.15834844  1
  H+  H32  1  0.60207273  0.71986027  0.33128337  1
  H+  H33  1  0.12824122  0.23906664  0.34528515  1
  H+  H34  1  0.38267111  0.03547490  0.65415184  1
  H+  H35  1  0.32776284  0.69614178  0.83234539  1
  H+  H36  1  1.03309733  0.89082840  0.66514684  1
  H+  H37  1  0.00844570  0.15431909  0.31527038  1
  H+  H38  1  0.38965417  0.52843339  0.17068507  1
  H+  H39  1  0.62552414  0.74473903  0.00520471  1
  H+  H40  1  0.90578112  0.08624316  0.95894585  1
  H+  H41  1  0.88975693  0.34205066  0.65787765  1
  H+  H42  1  0.14202157  0.27226734  0.18112460  1
  H+  H43  1  0.47540468  0.37007026  0.65576811  1
  H+  H44  1  0.89824825  0.78082077  0.49473324  1
  H+  H45  1  0.38548671  0.27309019  0.31240803  1
  H+  H46  1  0.38856209  0.00509933  1.00575108  1
  H+  H47  1  0.87559821  0.50523718  0.98844755  1
  H+  H48  1  0.27787715  0.64292957  0.99529513  1
  H+  H49  1  0.13172132  0.63415652  0.78030589  1
  H+  H50  1  0.85570059  0.22031628  0.48752066  1
  H+  H51  1  0.64390965  0.61982471  0.16670977  1
  H+  H52  1  0.39447868  0.62478421  0.99433784  1
  H+  H53  1  0.10366206  0.22855749  0.50218118  1
  H+  H54  1  0.14354824  0.13675678  0.01274371  1
  H+  H55  1  0.66876451  1.06942418  0.65682853  1
  H+  H56  1  0.61677406  0.97236385  0.32646919  1
  H+  H57  1  0.61843530  0.39660793  0.68058926  1
  H+  H58  1  0.87096647  0.89157892  0.83355290  1
  H+  H59  1  0.89035393  0.52039888  0.17010536  1
  H+  H60  1  0.37008493  0.39844183  1.00576648  1
  H+  H61  1  0.27483413  0.38606877  0.67263104  1
  H+  H62  1  0.13491727  0.59229556  0.98032832  1
  H+  H63  1  0.72784653  0.61647775  0.84095993  1
  H+  H64  1  0.34908353  0.13636965  -0.00090636  1
  H+  H65  1  0.86423966  0.85792620  0.15904177  1
  H+  H66  1  0.36530518  0.89426801  0.33603727  1
  H+  H67  1  0.37365633  0.49631460  0.82676106  1
  H+  H68  1  -0.03374520  0.35701722  0.50399004  1
  H+  H69  1  0.23376477  0.11510263  0.34279035  1
  H+  H70  1  0.14186622  0.27620554  0.66607603  1
  H+  H71  1  0.91190040  0.41688046  0.82118696  1
  H+  H72  1  0.36491857  0.38889245  0.33002122  1
  H+  H73  1  0.12012951  0.48460567  0.67049630  1
  H+  H74  1  0.23766727  0.92674037  0.78921261  1
  H+  H75  1  0.63801532  0.10123293  0.17544975  1
  H+  H76  1  0.91065282  0.10956423  0.67227188  1
  H+  H77  1  0.66427369  0.08264869  0.93176649  1
  H+  H78  1  0.64007620  0.99431293  0.82415630  1
  H+  H79  1  0.88860850  0.15222408  0.86024249  1
  H+  H80  1  0.37066365  -0.01395749  0.34086470  1
  H+  H81  1  0.77354690  0.86511562  0.00635219  1
  H+  H82  1  0.34784786  0.42560321  0.39257775  1
  H+  H83  1  0.98299175  0.86106584  0.99515511  1
  H+  H84  1  0.52433697  0.63850897  0.15721919  1
  H+  H85  1  0.77434547  0.38589603  0.15982177  1
  H+  H86  1  0.63427604  0.11527867  0.84150552  1
  H+  H87  1  0.14082182  0.36571305  0.66329070  1
  H+  H88  1  0.49659464  0.11672580  0.32044513  1
  H+  H89  1  0.37110960  0.60919345  0.50711283  1
  H+  H90  1  0.77994991  0.88927415  0.83731605  1
  H+  H91  1  0.67151001  0.34383584  0.61273701  1
  H+  H92  1  0.75236070  0.15390988  1.01028814  1
  H+  H93  1  0.64999502  0.86167536  0.16441113  1
  H+  H94  1  0.83427492  0.16131952  0.39302345  1
  H+  H95  1  0.71075963  0.12023724  0.46437430  1
  H+  H96  1  0.52123602  0.37843605  0.31912022  1
  H+  H97  1  0.11733693  0.89440622  0.34207721  1
  H+  H98  1  0.64023138  0.10643953  0.30701908  1
  H+  H99  1  0.88199686  0.78202698  0.32581430  1
  H+  H100  1  0.48240447  0.63095697  0.66108403  1
  H+  H101  1  0.63795202  0.52784335  0.66293644  1
  H+  H102  1  0.38245729  0.27489885  0.50893968  1
  H+  H103  1  0.89499425  0.65988165  0.47709985  1
  H+  H104  1  0.12973313  1.02515955  0.50840435  1
  H+  H105  1  0.87397806  0.15086171  0.32958543  1
  H+  H106  1  0.89060946  0.75874815  0.17264164  1
  H+  H107  1  0.63922518  0.28012950  0.17398326  1
  H+  H108  1  0.12421023  0.13658610  0.18059632  1
  H+  H109  1  0.01704372  0.37489979  0.00173057  1
  H+  H110  1  0.87707647  0.98476617  0.68806718  1
  H+  H111  1  0.65281864  0.58981724  0.56921668  1
  H+  H112  1  0.15933420  0.01886564  0.67763091  1
  H+  H113  1  0.45811772  0.86572361  0.49386570  1
  H+  H114  1  0.97814763  0.60919038  0.18442998  1
  H+  H115  1  0.89911066  0.79008794  0.65885213  1
  H+  H116  1  0.38664494  0.12960813  0.51263358  1
  H+  H117  1  0.12289173  0.23319885  0.85072329  1
  H+  H118  1  0.63279370  0.61379319  0.66678435  1
  H+  H119  1  0.23154348  0.59241893  0.33069208  1
  H+  H120  1  0.59360606  0.16435061  0.23076161  1
  H+  H121  1  0.36984929  0.23519428  1.00637689  1
  H+  H122  1  0.88075016  0.27221940  0.32948798  1
  H+  H123  1  0.37123942  0.59991947  0.32803135  1
  H+  H124  1  0.11850129  0.88158185  0.66746534  1
  H+  H125  1  0.61542107  0.39395997  1.00793983  1
  H+  H126  1  0.86683621  0.89128654  0.33125487  1
  H+  H127  1  0.86221835  0.73089323  0.82646753  1
  H+  H128  1  0.51243925  0.09194236  0.03386244  1
  H+  H129  1  0.86676831  0.63048699  0.15842275  1
  H+  H130  1  0.28923507  0.00492795  0.95387852  1
  H+  H131  1  0.10434355  0.88198925  0.49568135  1
  H+  H132  1  0.14019299  0.14944269  0.68749372  1
  H+  H133  1  0.47736830  0.88493329  0.64634443  1
  H+  H134  1  0.15806148  0.52345643  0.96404591  1
  H+  H135  1  0.36331676  0.69465314  0.74619785  1
  H+  H136  1  0.17159353  0.63118143  0.67372744  1
  H+  H137  1  0.85802466  0.23269884  0.16108556  1
  H+  H138  1  0.62064622  -0.03176892  0.15567628  1
  H+  H139  1  0.91016081  0.33216581  0.27139847  1
  H+  H140  1  0.97163716  0.35559278  0.17622199  1
  H+  H141  1  0.68549701  0.90153801  0.52881723  1
  H+  H142  1  0.78175850  0.89275485  0.69149852  1
  H+  H143  1  0.64052301  0.37601887  0.52421248  1
  H+  H144  1  0.37885938  0.39582937  0.48522073  1
  H+  H145  1  0.63606305  0.25870906  0.31306476  1
  H+  H146  1  0.11953211  0.76271508  0.50633651  1
  H+  H147  1  0.94730233  0.57687640  0.83671116  1
  H+  H148  1  0.32103291  0.81882174  0.79438891  1
  H+  H149  1  0.26731191  0.89214709  0.65295335  1
  H+  H150  1  0.36790365  0.04573452  0.82037965  1
  H+  H151  1  0.42227129  0.93847152  1.01258901  1
  H+  H152  1  0.60714611  0.23519559  0.68596658  1
  H+  H153  1  0.59377234  0.99687711  0.46232151  1
  H+  H154  1  0.89183384  0.87014670  0.49505462  1
  H+  H155  1  0.88801920  0.02760750  0.50654086  1
  H+  H156  1  0.01090267  0.95610689  0.06279854  1
  H+  H157  1  0.12996435  1.01987203  0.83755264  1
  H+  H158  1  0.63871317  0.61737487  0.84428231  1
  H+  H159  1  0.39382732  0.14640992  0.34366470  1
  H+  H160  1  0.90280117  0.46247424  0.65633559  1
  H+  H161  1  0.36986463  0.11471498  0.66397360  1
  H+  H162  1  0.23527156  0.37240201  0.32988519  1
  H+  H163  1  0.11053619  0.46817876  0.16694522  1
  H+  H164  1  0.61784523  0.60242998  0.31911060  1
  H+  H165  1  0.63873016  0.28632444  0.52416016  1
  H+  H166  1  0.97891115  0.15886085  0.87442467  1
  H+  H167  1  0.53584486  0.65644446  0.00173263  1
  H+  H168  1  0.61229627  0.48100412  0.83371582  1
  H+  H169  1  0.84030333  0.92794852  0.76218506  1
  H+  H170  1  0.61737566  0.26104870  0.00008997  1
  H+  H171  1  0.62422828  0.09919341  -0.00745837  1
  H+  H172  1  0.20791500  0.85403794  0.50291899  1
  H+  H173  1  0.23663641  0.59706149  0.65481854  1
  H+  H174  1  0.59424766  0.21909296  0.83459444  1
  H+  H175  1  0.41585010  0.22592497  0.38642382  1
  H+  H176  1  0.39781075  0.79943427  0.66369194  1
  H+  H177  1  0.08983058  0.17902815  -0.06134406  1
  H+  H178  1  0.38610132  0.11299589  0.17312970  1
  H+  H179  1  0.52663059  0.38659674  0.50432496  1
  H+  H180  1  0.62764999  0.13153863  0.47194173  1
  H+  H181  1  0.36402092  0.63620340  0.15612606  1
  H+  H182  1  0.37134419  0.23088242  0.15852521  1
  H+  H183  1  0.11279060  0.47111388  0.81380397  1
  H+  H184  1  0.11840269  0.75321551  0.80633314  1
  H+  H185  1  0.00220512  0.57476029  0.01609696  1
  H+  H186  1  0.23421717  0.86147035  0.16238237  1
  H+  H187  1  0.77897949  0.63556930  0.15731259  1
  H+  H188  1  0.09850308  0.73726542  -0.04870092  1
  H+  H189  1  0.21755142  0.60525809  0.50732386  1
  H+  H190  1  0.37394975  0.61974528  0.83456103  1
  H+  H191  1  0.69921489  0.35297033  0.84641980  1
  H+  H192  1  0.73274736  0.37064221  0.67061551  1
  H+  H193  1  0.38451432  0.29018413  0.84301348  1
  H+  H194  1  0.99442833  0.11909094  0.21452970  1
  H+  H195  1  0.85383917  0.13125869  0.49175445  1
  H+  H196  1  0.48164688  0.37151238  0.16493506  1
  H+  H197  1  0.01856701  0.63418353  0.49507420  1
  H+  H198  1  0.65563699  0.85994023  0.51240880  1
  H+  H199  1  0.37643237  0.06898551  0.92029151  1
  H+  H200  1  0.09229862  0.72618076  0.98450237  1
  H+  H201  1  0.60416541  0.15105893  0.36678776  1
  H+  H202  1  0.18217640  0.09550078  0.24434302  1
  H+  H203  1  0.66109792  0.87538024  0.84316904  1
  H+  H204  1  0.48567571  0.86308013  -0.00769130  1
  H+  H205  1  0.40507474  0.83201900  0.55550328  1
  H+  H206  1  0.84281464  0.36118606  1.00353289  1
  H+  H207  1  0.44635426  0.77936963  0.80003360  1
  H+  H208  1  0.98428347  0.36273146  0.82963772  1
  H+  H209  1  0.23631653  0.80162973  0.04470446  1
  H+  H210  1  0.27586995  0.38917269  0.15962066  1
  H+  H211  1  0.14589031  0.76767189  0.17904193  1
  H+  H212  1  0.86607583  0.54607161  0.65996506  1
  H+  H213  1  0.10913834  0.38326590  0.34208261  1
  H+  H214  1  0.10117531  0.47256297  0.49649541  1
  H+  H215  1  0.22597769  0.60262701  0.17353684  1
  H+  H216  1  0.08724289  0.86245648  0.81577187  1
  H+  H217  1  0.76989014  0.38831840  0.50429676  1
  H+  H218  1  0.87916094  0.52342769  0.50523937  1
  H+  H219  1  0.47381212  0.86806968  0.31991731  1
  H+  H220  1  1.02000101  0.85915731  0.16661532  1
  H+  H221  1  0.78747392  0.88891925  0.48317925  1
  H+  H222  1  0.36381648  0.73370259  1.00372883  1
  H+  H223  1  0.57180163  0.16685781  0.77167880  1
  H+  H224  1  0.33860735  0.42084873  0.72911747  1
  H+  H225  1  0.61310059  0.96728643  0.00228018  1
  H+  H226  1  0.14875467  0.94845383  0.93910566  1
  H+  H227  1  0.84821517  0.51806286  0.33008377  1
  H+  H228  1  0.75781309  0.36692391  0.00477330  1
  H+  H229  1  0.78445706  0.63711314  1.00454258  1
  H+  H230  1  0.38379092  0.02141599  0.17533166  1
  H+  H231  1  0.86817978  0.64633524  0.82794860  1
  H+  H232  1  0.14170750  0.29385638  0.98663572  1
  H+  H233  1  0.89474846  0.01105899  1.00288350  1
  H+  H234  1  0.12867084  0.11339175  0.51055572  1
  H+  H235  1  0.76420218  0.13521797  0.15859930  1
  H+  H236  1  0.22399791  0.60075320  0.81507363  1
  H+  H237  1  0.52044073  0.82077591  0.70351764  1
  H+  H238  1  0.14323098  0.02789101  0.33870534  1
  H+  H239  1  0.52631564  0.64688966  0.83362068  1
  H+  H240  1  0.63613939  0.85918539  0.31984763  1
  H+  H241  1  0.76272509  0.72738378  0.38366403  1
  H+  H242  1  0.65010377  0.62691285  0.99481562  1
  H+  H243  1  0.16337031  0.57881277  0.56927052  1
  H+  H244  1  0.61289618  0.60686720  0.50800932  1
  H+  H245  1  0.51896928  0.39474853  0.83297208  1
  H+  H246  1  0.35935725  0.15596442  0.83181792  1
  H+  H247  1  0.76824459  0.11497671  0.65638294  1
  H+  H248  1  0.50807951  0.63322239  0.32978544  1
  H+  H249  1  0.46669540  0.11652956  0.83605440  1
  H+  H250  1  0.62285669  0.48755439  0.00586622  1
  H+  H251  1  0.04671561  0.13441148  0.67760701  1
  H+  H252  1  0.62016307  0.73217200  0.83589433  1
  H+  H253  1  0.84534074  0.45038321  0.81653809  1
  H+  H254  1  0.31132273  0.90836725  0.43140946  1
  H+  H255  1  0.27933233  0.54032542  0.38046551  1
  H+  H256  1  0.88044496  0.28315825  0.82768285  1
  H+  H257  1  0.39200419  0.52496856  0.31583914  1
  H+  H258  1  0.94489089  0.24635294  0.94178092  1
  H+  H259  1  0.39018538  0.36897299  0.16293490  1
  H+  H260  1  0.88378228  0.35946420  0.17268987  1
  H+  H261  1  0.72590479  0.92189239  0.97472752  1
  H+  H262  1  0.23762904  0.88037448  0.32664895  1
  H+  H263  1  0.15646402  0.77619427  0.65757761  1
  H+  H264  1  0.02931651  0.14693148  -0.00387129  1
  H+  H265  1  0.12289442  0.86241259  0.16043064  1
  H+  H266  1  0.01817443  0.38108434  0.34077299  1
  H+  H267  1  0.35442529  0.85467663  0.81353294  1
  H+  H268  1  0.79620456  0.79973263  0.55258861  1
  H+  H269  1  0.39282248  0.38353345  0.84324850  1
  H+  H270  1  0.34840407  0.71690820  0.48287296  1
  H+  H271  1  0.46093891  0.61285276  0.50417053  1
  H+  H272  1  0.10679351  0.13550156  0.85589500  1
  H+  H273  1  0.56395062  0.89534603  0.82460044  1
  H+  H274  1  0.61694694  0.36457576  0.84657259  1
  H+  H275  1  0.38579289  0.36702446  0.65633359  1
  H+  H276  1  0.78689538  0.22171569  0.77694797  1
  H+  H277  1  0.28581641  0.40566754  0.82793314  1
  H+  H278  1  0.51630809  0.15970017  0.50305435  1
  H+  H279  1  0.59292084  0.72221079  0.47816429  1
  H+  H280  1  0.13717235  0.35857311  0.17672395  1
  H+  H281  1  0.10741159  0.63556662  0.49976755  1
  H+  H282  1  0.76877592  0.65056693  0.67256356  1
  H+  H283  1  0.89385315  0.22267355  0.67761207  1
  H+  H284  1  0.10626792  1.01025488  0.03898429  1
  H+  H285  1  0.85032204  0.23249932  0.00396841  1
  H+  H286  1  0.86297450  0.85814435  1.00444436  1
  H+  H287  1  0.64351208  0.53073434  0.16882279  1
  H+  H288  1  0.87763782  0.57121269  0.27056825  1
  H+  H289  1  0.64633600  0.31997082  0.94044856  1
  H+  H290  1  0.73042232  0.10618580  0.31715240  1
  H+  H291  1  0.56331546  0.66047137  0.42064947  1
  H+  H292  1  0.63061514  0.34819544  0.31656902  1
  H+  H293  1  0.83051088  0.40856410  0.09925871  1
  H+  H294  1  0.47497452  0.74991326  0.85602995  1
  H+  H295  1  0.62525053  0.72634347  0.68619663  1
  H+  H296  1  0.41279805  0.68984590  0.68574477  1
  H+  H297  1  0.41658544  0.60142399  0.89719965  1
  H+  H298  1  0.85533954  0.69068321  0.42302132  1
  H+  H299  1  0.42113480  0.34545878  0.93617792  1
  H+  H300  1  0.57480450  0.21407048  0.44602526  1
  H+  H301  1  0.93097857  0.31925867  0.91801426  1
  H+  H302  1  0.05395785  0.46918770  0.02968470  1
  H+  H303  1  0.73162269  0.13460101  0.83874329  1
  H+  H304  1  0.08585748  0.40942414  0.75698026  1
  H+  H305  1  0.59969604  0.91644383  0.48602232  1
  H+  H306  1  0.04559628  0.72977837  0.85217584  1
  H+  H307  1  0.07405434  0.41433494  0.43596203  1
  H+  H308  1  0.31188731  0.17290499  0.77788818  1
  H+  H309  1  0.82942409  0.67813890  0.73163264  1
  H+  H310  1  0.36087657  0.90052518  0.66152388  1
  H+  H311  1  0.58858163  0.90847558  0.09648419  1
  H+  H312  1  0.42483718  0.11022128  0.57185017  1
  H+  H313  1  0.31618179  0.64123637  0.42980573  1
  H+  H314  1  0.51894731  0.12883558  0.18364180  1
  H+  H315  1  0.93493250  0.60124369  0.90349956  1
  H+  H316  1  0.07833758  0.17091553  0.44152256  1
  H+  H317  1  0.92358403  0.07261134  0.60968487  1
  H+  H318  1  0.85441170  0.38348460  0.34647405  1
  H+  H319  1  0.58495786  0.67183098  0.09724979  1
  H+  H320  1  0.15509023  0.32895308  0.57010606  1
  H+  H321  1  0.07328300  0.14988673  0.12569447  1
  H+  H322  1  0.47918728  0.85700950  0.16745120  1
  H+  H323  1  0.42553379  0.84051660  0.93452169  1
  H+  H324  1  0.67723442  0.07190609  0.22851151  1
  H+  H325  1  0.41611680  0.33760028  0.56676332  1
  H+  H326  1  0.41205071  0.83884047  0.26345511  1
  H+  H327  1  0.83107333  0.88109295  0.09008290  1
  H+  H328  1  0.91704607  0.31849373  0.59523532  1
  H+  H329  1  0.59115824  0.42639033  0.10022476  1
  H+  H330  1  0.41169695  0.33235145  0.25231660  1
  H+  H331  1  0.97993199  0.86281073  0.32467767  1
  H+  H332  1  0.67286024  0.33906193  0.23141127  1
  H+  H333  1  0.88945512  0.60002218  0.99725269  1
  H+  H334  1  0.42039534  0.61043312  0.60336724  1
  H+  H335  1  0.58755922  0.15672589  0.07566552  1
  H+  H336  1  0.17898656  0.85352335  0.26711521  1
  H+  H337  1  0.58244790  0.42466122  0.73677463  1
  H+  H338  1  0.58488392  0.66445413  0.74315355  1
  H+  H339  1  0.07882875  0.91159672  0.75816850  1
  H+  H340  1  0.33861464  0.16856296  0.10171757  1
  H+  H341  1  0.15709636  0.58360292  0.86962371  1
  H+  H342  1  0.36147784  0.93796522  0.10186090  1
  H+  H343  1  0.26329976  0.04743250  0.73124488  1
  H+  H344  1  0.36914533  0.47956367  0.48759681  1
  H+  H345  1  0.76905148  0.86096907  0.15638964  1
  H+  H346  1  0.17954727  0.35849236  0.89541895  1
  H+  H347  1  0.41976200  0.08700979  0.27074431  1
  H+  H348  1  0.59492397  0.90676092  0.73037352  1
  H+  H349  1  0.69995612  0.81776979  0.61716808  1
  H+  H350  1  0.14531587  0.37059131  0.83111583  1
  H+  H351  1  0.08057214  0.91700729  0.40193230  1
  H+  H352  1  0.07045975  0.60444412  0.07062778  1
  H+  H353  1  0.92593172  0.83316008  0.89520929  1
  H+  H354  1  0.17368108  0.33835419  0.27187210  1
  H+  H355  1  0.83984953  0.92319221  0.42042342  1
  H+  H356  1  0.51474854  0.15098687  0.68302614  1
  H+  H357  1  0.13051608  0.64374439  0.31482121  1
  H+  H358  1  0.41728382  0.58943972  0.22966337  1
  H+  H359  1  0.30512574  0.95087270  0.73469179  1
  H+  H360  1  0.93069617  0.84348411  0.59766444  1
  H+  H361  1  0.67512088  0.59296634  0.93545785  1
  H+  H362  1  0.82169477  0.40957659  0.44071054  1
  H+  H363  1  0.87646895  0.35556780  0.50811238  1
  H+  H364  1  0.39849012  0.53805362  0.99353409  1
  H+  H365  1  0.16808449  0.88070302  0.91043483  1
  H+  H366  1  0.12938637  0.73316535  0.31791568  1
  H+  H367  1  0.11869127  0.63253174  0.18404113  1
  H+  H368  1  0.07581159  0.40837578  0.10791439  1
  H+  H369  1  0.68184236  0.84234318  0.90705146  1
  H+  H370  1  0.57798696  0.91555284  0.38624895  1
  H+  H371  1  0.66919757  0.82934844  0.26213516  1
  H+  H372  1  0.87888893  0.44053854  0.72623968  1
  H+  H373  1  0.66291451  0.58489801  0.26232427  1
  H+  H374  1  0.92158233  0.82406070  0.23210205  1
  H+  H375  1  0.84246256  0.66221330  0.06460711  1
  H+  H376  1  0.12268888  0.14680229  0.34661158  1
  H+  H377  1  0.31729563  0.15660300  0.44338370  1
  H+  H378  1  0.74694044  0.65072370  0.34103674  1
  H+  H379  1  0.17273212  0.57180888  0.23696137  1
  H+  H380  1  0.90604169  0.58977034  0.56110487  1
  H+  H381  1  0.15768019  0.82289718  0.59173611  1
  H+  H382  1  0.81536082  0.18621699  0.09248471  1
  H+  H383  1  0.32976256  0.66430925  0.09783259  1
  O2-  O384  1  0.08587450  0.16248208  0.16876209  1
  O2-  O385  1  0.07368574  0.16640446  0.48640590  1
  O2-  O386  1  0.08175545  0.17351320  0.86397554  1
  O2-  O387  1  0.07662465  0.40631218  0.15288356  1
  O2-  O388  1  0.06845466  0.41195293  0.48123413  1
  O2-  O389  1  0.08546575  0.40823367  0.80289373  1
  O2-  O390  1  0.08942773  0.66693853  0.19050745  1
  O2-  O391  1  0.08018794  0.66760765  0.48353887  1
  O2-  O392  1  0.11052008  0.66777874  0.75639531  1
  O2-  O393  1  0.08152630  0.88992164  0.15020248  1
  O2-  O394  1  0.07874428  0.91673333  0.47921659  1
  O2-  O395  1  0.07553082  0.90940050  0.80404788  1
  O2-  O396  1  0.34028858  0.16864710  0.14717240  1
  O2-  O397  1  0.31861293  0.16338234  0.48763957  1
  O2-  O398  1  0.32520825  0.18450618  0.82167710  1
  O2-  O399  1  0.33648052  0.42142507  0.14438186  1
  O2-  O400  1  0.35614404  0.42850234  0.46291740  1
  O2-  O401  1  0.34734243  0.43494845  0.81476983  1
  O2-  O402  1  0.33047518  0.66444364  0.14308818  1
  O2-  O403  1  0.31743936  0.65404121  0.47583312  1
  O2-  O404  1  0.31620549  0.64718153  0.80679023  1
  O2-  O405  1  0.33974706  0.91872453  0.14402114  1
  O2-  O406  1  0.30241351  0.90018547  0.47592652  1
  O2-  O407  1  0.28698377  0.97512833  0.77014479  1
  O2-  O408  1  0.58397284  0.15905579  0.18639927  1
  O2-  O409  1  0.57951677  0.19271866  0.48567095  1
  O2-  O410  1  0.56954092  0.16010839  0.81834610  1
  O2-  O411  1  0.58919271  0.42604273  0.14569806  1
  O2-  O412  1  0.58961326  0.41623068  0.49527200  1
  O2-  O413  1  0.58064279  0.42008400  0.81904824  1
  O2-  O414  1  0.58565463  0.66889560  0.14265648  1
  O2-  O415  1  0.56187148  0.66181901  0.46685478  1
  O2-  O416  1  0.58783502  0.67121641  0.82121703  1
  O2-  O417  1  0.59083849  0.90710148  0.14195218  1
  O2-  O418  1  0.56231262  0.93085163  0.46285222  1
  O2-  O419  1  0.62178881  0.93539964  0.80787240  1
  O2-  O420  1  0.82406529  0.17459444  0.13884593  1
  O2-  O421  1  0.82751497  0.16113393  0.46991042  1
  O2-  O422  1  0.81827051  0.20282763  0.80301597  1
  O2-  O423  1  0.83502302  0.41199954  0.14419864  1
  O2-  O424  1  0.82876247  0.41370638  0.48617541  1
  O2-  O425  1  0.90128493  0.46315284  0.80131295  1
  O2-  O426  1  0.83990123  0.66436784  0.14206130  1
  O2-  O427  1  0.89700721  0.71035625  0.45678583  1
  O2-  O428  1  0.83160783  0.66940716  0.81270687  1
  O2-  O429  1  0.83065509  0.88363756  0.13883644  1
  O2-  O430  1  0.84507513  0.92657364  0.46710251  1
  O2-  O431  1  0.84076858  0.92361204  0.82117773  1
  O2-  O432  1  0.17709819  0.09588714  0.19943121  1
  O2-  O433  1  0.16121178  0.08487888  0.52399867  1
  O2-  O434  1  0.15407512  0.07348217  0.86149289  1
  O2-  O435  1  0.17373320  0.33489345  0.19111901  1
  O2-  O436  1  0.14704650  0.32254644  0.52518185  1
  O2-  O437  1  0.18084235  0.34830743  0.85123747  1
  O2-  O438  1  0.16655829  0.56984752  0.19032556  1
  O2-  O439  1  0.15761933  0.57504637  0.52429812  1
  O2-  O440  1  0.15751531  0.57423380  0.82552980  1
  O2-  O441  1  0.17431330  0.83325440  0.17953758  1
  O2-  O442  1  0.14799449  0.82482845  0.52159815  1
  O2-  O443  1  0.10090608  0.77964686  0.83906470  1
  O2-  O444  1  0.41446023  0.08172718  0.19072588  1
  O2-  O445  1  0.42867423  0.11235318  0.52668524  1
  O2-  O446  1  0.40478345  0.09438604  0.84783162  1
  O2-  O447  1  0.41982285  0.33732159  0.17707378  1
  O2-  O448  1  0.41865426  0.33624980  0.52033220  1
  O2-  O449  1  0.42028660  0.34994857  0.85905233  1
  O2-  O450  1  0.42065729  0.58998318  0.18340510  1
  O2-  O451  1  0.40461110  0.58342558  0.52513419  1
  O2-  O452  1  0.42117305  0.60697597  0.85222536  1
  O2-  O453  1  0.41834183  0.83221592  0.18036924  1
  O2-  O454  1  0.40000236  0.82650372  0.51062981  1
  O2-  O455  1  0.46991731  0.79865301  0.84125908  1
  O2-  O456  1  0.67457477  0.07449122  0.18146369  1
  O2-  O457  1  0.64964195  0.09614248  0.45275949  1
  O2-  O458  1  0.67188536  0.09272537  0.85599417  1
  O2-  O459  1  0.67205608  0.34169445  0.18476359  1
  O2-  O460  1  0.67264903  0.34620811  0.54030388  1
  O2-  O461  1  0.64175157  0.32796001  0.86345622  1
  O2-  O462  1  0.67628524  0.59215654  0.18245615  1
  O2-  O463  1  0.65991672  0.59952366  0.52432197  1
  O2-  O464  1  0.66854542  0.58600260  0.85869143  1
  O2-  O465  1  0.67925415  0.83007593  0.17989692  1
  O2-  O466  1  0.73436253  0.78159098  0.55350656  1
  O2-  O467  1  0.68048385  0.83639299  0.86023102  1
  O2-  O468  1  0.94326685  0.08987993  0.24223777  1
  O2-  O469  1  0.91183285  0.08395210  0.52736299  1
  O2-  O470  1  0.92649225  0.15503081  0.89315138  1
  O2-  O471  1  0.90950674  0.32490763  0.18866388  1
  O2-  O472  1  0.90579595  0.32269153  0.52009141  1
  O2-  O473  1  0.92608743  0.34515556  0.84715493  1
  O2-  O474  1  0.91414261  0.58015891  0.18502252  1
  O2-  O475  1  0.91007023  0.58557680  0.51620775  1
  O2-  O476  1  0.94620573  0.62267251  0.86075564  1
  O2-  O477  1  0.92227001  0.82156038  0.18560114  1
  O2-  O478  1  0.90712671  0.83339689  0.52009702  1
  O2-  O479  1  0.91784264  0.83459353  0.85052817  1
  O2-  O480  1  0.17599592  0.08995765  0.32555618  1
  O2-  O481  1  0.19760028  0.08422901  0.67803512  1
  O2-  O482  1  0.16586850  0.10283940  1.03404835  1
  O2-  O483  1  0.17294778  0.33939836  0.31718358  1
  O2-  O484  1  0.16997100  0.33499640  0.64761126  1
  O2-  O485  1  0.17649810  0.35752445  0.97886982  1
  O2-  O486  1  0.17350747  0.57688690  0.30790013  1
  O2-  O487  1  0.17728881  0.58334329  0.64954268  1
  O2-  O488  1  0.17714871  0.58405647  0.95630938  1
  O2-  O489  1  0.17581618  0.85080361  0.31177098  1
  O2-  O490  1  0.16768659  0.83086669  0.63794163  1
  O2-  O491  1  0.18499719  0.92270059  0.94347594  1
  O2-  O492  1  0.43005320  0.09150861  0.31542208  1
  O2-  O493  1  0.41218472  0.09934478  0.64901545  1
  O2-  O494  1  0.34956879  0.05129988  0.96178926  1
  O2-  O495  1  0.41111062  0.33294887  0.29801285  1
  O2-  O496  1  0.41698370  0.33825191  0.63890302  1
  O2-  O497  1  0.42032394  0.34276416  0.98185839  1
  O2-  O498  1  0.41467969  0.58624303  0.30350536  1
  O2-  O499  1  0.42795378  0.62619693  0.64726432  1
  O2-  O500  1  0.42811551  0.59861601  0.97829932  1
  O2-  O501  1  0.41289187  0.84464125  0.30813098  1
  O2-  O502  1  0.41548930  0.85147457  0.63731197  1
  O2-  O503  1  0.42427985  0.84207999  0.97894318  1
  O2-  O504  1  0.67260648  0.07330758  0.29750100  1
  O2-  O505  1  0.71752193  0.09191785  0.62926101  1
  O2-  O506  1  0.66017398  0.07540911  0.97749758  1
  O2-  O507  1  0.66670741  0.32253980  0.30262892  1
  O2-  O508  1  0.67194631  0.34403108  0.65910414  1
  O2-  O509  1  0.65231190  0.32093746  0.98579911  1
  O2-  O510  1  0.65550514  0.57869923  0.30726641  1
  O2-  O511  1  0.66535000  0.58826705  0.64709716  1
  O2-  O512  1  0.67828932  0.59413055  0.98116805  1
  O2-  O513  1  0.66549500  0.82642463  0.30717300  1
  O2-  O514  1  0.69017894  0.83018024  0.65967356  1
  O2-  O515  1  0.69178292  0.85938436  0.97752303  1
  O2-  O516  1  0.96325437  0.15606635  0.28831886  1
  O2-  O517  1  0.93191620  0.07186552  0.65451934  1
  O2-  O518  1  0.91948138  0.07358887  0.99984122  1
  O2-  O519  1  0.91193201  0.33394389  0.31643842  1
  O2-  O520  1  0.92614560  0.32059507  0.64070241  1
  O2-  O521  1  0.93780570  0.29423254  0.95784666  1
  O2-  O522  1  0.85121966  0.56847613  0.31011797  1
  O2-  O523  1  0.90453508  0.60026621  0.64001805  1
  O2-  O524  1  0.91625411  0.56704731  0.98027857  1
  O2-  O525  1  0.92261714  0.83608295  0.30401947  1
  O2-  O526  1  0.93835850  0.84817392  0.64235841  1
  O2-  O527  1  0.92783034  0.82332026  0.97432297  1
  O2-  O528  1  0.09082456  0.18559379  -0.01556413  1
  O2-  O529  1  0.09160789  0.17744652  0.35831518  1
  O2-  O530  1  0.10380436  0.17503705  0.69460324  1
  O2-  O531  1  0.06652497  0.42168739  0.02474463  1
  O2-  O532  1  0.07821610  0.41298525  0.35668455  1
  O2-  O533  1  0.09011616  0.42240346  0.68337493  1
  O2-  O534  1  0.05193706  0.57043194  0.03341833  1
  O2-  O535  1  0.09617243  0.67212811  0.30584534  1
  O2-  O536  1  0.17074761  0.70305796  0.70572500  1
  O2-  O537  1  0.05679629  0.94671016  0.04812631  1
  O2-  O538  1  0.08329024  0.92141853  0.35620908  1
  O2-  O539  1  0.09344856  0.91657622  0.68367788  1
  O2-  O540  1  0.33782954  0.17613917  0.02389329  1
  O2-  O541  1  0.36924183  0.18265266  0.36167060  1
  O2-  O542  1  0.27643541  0.10214294  0.71003595  1
  O2-  O543  1  0.34287179  0.43208510  0.02047552  1
  O2-  O544  1  0.33931800  0.42269444  0.34635942  1
  O2-  O545  1  0.33656155  0.41512819  0.68460007  1
  O2-  O546  1  0.33405765  0.67240422  0.01692325  1
  O2-  O547  1  0.30466935  0.59945216  0.36597587  1
  O2-  O548  1  0.40654553  0.73236129  0.71322360  1
  O2-  O549  1  0.42021394  0.98597033  0.03388760  1
  O2-  O550  1  0.33434745  0.92432266  0.35206365  1
  O2-  O551  1  0.32715007  0.92964932  0.67049875  1
  O2-  O552  1  0.56958711  0.14619568  0.03316806  1
  O2-  O553  1  0.59293824  0.15558067  0.32381859  1
  O2-  O554  1  0.57272561  0.17572590  0.70160904  1
  O2-  O555  1  0.58857546  0.42759739  0.02204637  1
  O2-  O556  1  0.58124343  0.40060656  0.33258248  1
  O2-  O557  1  0.58711090  0.42746550  0.69179815  1
  O2-  O558  1  0.59560060  0.68435109  0.01869587  1
  O2-  O559  1  0.56924335  0.65968603  0.34686629  1
  O2-  O560  1  0.58676725  0.66511640  0.69770132  1
  O2-  O561  1  0.58287575  0.90696930  0.01793919  1
  O2-  O562  1  0.58454831  0.91156856  0.34153390  1
  O2-  O563  1  0.57174553  0.87538641  0.69124262  1
  O2-  O564  1  0.80002883  0.20427840  0.03206310  1
  O2-  O565  1  0.83226483  0.16550473  0.34751945  1
  O2-  O566  1  0.86877628  0.16599875  0.69836553  1
  O2-  O567  1  0.82032844  0.39811111  0.01638485  1
  O2-  O568  1  0.81916845  0.40674663  0.36382644  1
  O2-  O569  1  0.85758075  0.42221340  0.68343863  1
  O2-  O570  1  0.84518498  0.66132752  0.01894024  1
  O2-  O571  1  0.79302259  0.70168168  0.36408960  1
  O2-  O572  1  0.82992627  0.68486939  0.68673668  1
  O2-  O573  1  0.83364854  0.88577714  0.02576185  1
  O2-  O574  1  0.83309590  0.91497070  0.35014265  1
  O2-  O575  1  0.84035292  0.92784156  0.71076339  1
