# generated using pymatgen
data_H2O
_symmetry_space_group_name_H-M   'P 1'
_cell_length_a   17.97825678
_cell_length_b   17.98894748
_cell_length_c   22.00569135
_cell_angle_alpha   89.98138111
_cell_angle_beta   90.00188405
_cell_angle_gamma   120.01883311
_symmetry_Int_Tables_number   1
_chemical_formula_structural   H2O
_chemical_formula_sum   'H384 O192'
_cell_volume   6162.21014533
_cell_formula_units_Z   192
loop_
 _symmetry_equiv_pos_site_id
 _symmetry_equiv_pos_as_xyz
  1  'x, y, z'
loop_
 _atom_type_symbol
 _atom_type_oxidation_number
  H+  1.0
  O2-  -2.0
loop_
 _atom_site_type_symbol
 _atom_site_label
 _atom_site_symmetry_multiplicity
 _atom_site_fract_x
 _atom_site_fract_y
 _atom_site_fract_z
 _atom_site_occupancy
  H+  H0  1  0.90205359  0.77008082  0.15986059  1
  H+  H1  1  0.91571108  0.83875402  0.59154878  1
  H+  H2  1  0.52069603  0.89513805  0.35247802  1
  H+  H3  1  0.51775983  0.63102652  0.16202321  1
  H+  H4  1  0.17662471  0.92810774  0.64686950  1
  H+  H5  1  0.51556110  0.64871942  0.33034720  1
  H+  H6  1  0.77635195  0.63839176  0.49555362  1
  H+  H7  1  0.64566223  0.03176767  0.17487403  1
  H+  H8  1  0.85623327  0.34609368  0.31605199  1
  H+  H9  1  0.36193445  -0.01939161  0.49879471  1
  H+  H10  1  0.37903448  1.02568240  0.84417890  1
  H+  H11  1  0.63990081  0.61929567  0.98709098  1
  H+  H12  1  0.12094546  0.14568058  0.33075004  1
  H+  H13  1  0.33533012  0.88695663  0.83079933  1
  H+  H14  1  0.38748179  0.34577704  1.00008949  1
  H+  H15  1  0.37160368  0.88629001  0.68292984  1
  H+  H16  1  0.61203479  0.14609941  0.33899347  1
  H+  H17  1  0.51473984  0.61460606  0.66870614  1
  H+  H18  1  0.82926785  0.66821667  0.39911870  1
  H+  H19  1  0.41302619  0.33814932  0.57173939  1
  H+  H20  1  0.28004423  0.62751366  0.82702861  1
  H+  H21  1  0.33707519  0.70181360  0.67449840  1
  H+  H22  1  0.11951929  0.14224853  0.16900215  1
  H+  H23  1  0.57663917  0.16735967  0.06703089  1
  H+  H24  1  0.78387749  0.88680760  0.48010499  1
  H+  H25  1  0.61120349  0.70007084  0.47603026  1
  H+  H26  1  0.35890238  -0.02311431  1.00904333  1
  H+  H27  1  0.37830894  0.86108770  0.99580187  1
  H+  H28  1  0.42876322  0.27304344  0.31272098  1
  H+  H29  1  0.87061899  0.51670326  0.41398181  1
  H+  H30  1  1.03475138  0.16241638  0.66939388  1
  H+  H31  1  0.52423009  0.13765381  0.16290414  1
  H+  H32  1  0.62572205  1.03999098  0.50811678  1
  H+  H33  1  0.37978836  0.66865328  0.81484196  1
  H+  H34  1  0.38398350  0.38926153  0.17137560  1
  H+  H35  1  0.86398929  0.73045252  0.49275659  1
  H+  H36  1  0.62689848  0.59182605  0.65699708  1
  H+  H37  1  0.72487649  0.11761377  0.33145462  1
  H+  H38  1  0.01715210  0.90822845  0.67367510  1
  H+  H39  1  0.89453550  0.53660586  0.51650835  1
  H+  H40  1  0.74789332  0.89469660  0.68877686  1
  H+  H41  1  0.38507662  0.87168581  0.33943047  1
  H+  H42  1  0.63292828  0.51630363  0.83581367  1
  H+  H43  1  0.87919238  0.28065397  0.50863364  1
  H+  H44  1  0.89659087  0.28183609  0.98079914  1
  H+  H45  1  0.86297108  0.14217227  0.34229990  1
  H+  H46  1  0.31879726  0.38634272  0.74898509  1
  H+  H47  1  0.34758644  0.41328349  0.11089276  1
  H+  H48  1  0.86402177  0.58086869  0.36671160  1
  H+  H49  1  0.05687006  0.39288659  0.12866035  1
  H+  H50  1  0.38381547  0.11558708  0.84440052  1
  H+  H51  1  0.50178892  0.88821726  0.50399867  1
  H+  H52  1  0.85246153  0.90338854  0.24342637  1
  H+  H53  1  0.36877007  0.39051904  0.69012100  1
  H+  H54  1  0.47453518  0.11862249  0.50630485  1
  H+  H55  1  0.02934309  0.63626591  0.49875511  1
  H+  H56  1  0.87153335  1.01061576  0.33140905  1
  H+  H57  1  0.62454575  0.90221329  0.70191631  1
  H+  H58  1  0.09361915  0.92198654  0.43309010  1
  H+  H59  1  0.10290958  0.98953155  0.83482148  1
  H+  H60  1  0.35577289  0.38669136  0.49985443  1
  H+  H61  1  0.89732216  0.83334098  0.91858981  1
  H+  H62  1  0.10747674  0.46950753  0.48590683  1
  H+  H63  1  0.19854738  0.55916972  0.66564986  1
  H+  H64  1  0.39696245  0.62848316  0.64602440  1
  H+  H65  1  0.73928594  0.36525036  0.31852695  1
  H+  H66  1  0.37358126  0.74357013  0.35008521  1
  H+  H67  1  0.24343122  0.36409104  0.17433647  1
  H+  H68  1  0.96447300  0.97501797  0.70108842  1
  H+  H69  1  0.36622588  0.72297934  0.14657979  1
  H+  H70  1  0.59023701  0.61433949  0.83028432  1
  H+  H71  1  0.87417093  0.46122576  0.80897139  1
  H+  H72  1  0.17859734  0.83480741  0.26991815  1
  H+  H73  1  0.70465086  0.84774729  0.10567997  1
  H+  H74  1  0.74608896  0.90857179  0.75748521  1
  H+  H75  1  0.47572684  0.11562863  0.32837299  1
  H+  H76  1  0.64388343  0.32542588  0.24941272  1
  H+  H77  1  0.51475600  0.39398445  0.49532066  1
  H+  H78  1  0.87575487  0.77025795  0.97794128  1
  H+  H79  1  0.04841185  0.64108269  0.34169781  1
  H+  H80  1  0.95810765  0.87248587  0.83614688  1
  H+  H81  1  0.59175397  0.74243508  0.84483613  1
  H+  H82  1  0.63414446  0.03187337  0.33274177  1
  H+  H83  1  0.63647833  0.60311026  0.49992970  1
  H+  H84  1  0.61989125  0.53579490  0.32558207  1
  H+  H85  1  0.38599369  0.28168060  0.51015202  1
  H+  H86  1  0.12791453  0.40405194  0.65225282  1
  H+  H87  1  0.37887294  0.52106636  0.50092114  1
  H+  H88  1  0.14719762  0.03276524  0.18500127  1
  H+  H89  1  0.64352972  0.82590245  0.51038490  1
  H+  H90  1  0.91077932  0.29762948  0.15841175  1
  H+  H91  1  0.26479218  0.38426253  0.49375561  1
  H+  H92  1  0.86674866  0.12838396  0.82504321  1
  H+  H93  1  0.66378913  0.08492144  0.60518452  1
  H+  H94  1  0.66850708  0.08710622  0.90109721  1
  H+  H95  1  0.98466819  0.59437406  0.84051695  1
  H+  H96  1  0.86111108  0.40337263  0.49715168  1
  H+  H97  1  0.45631188  0.33087689  0.24924620  1
  H+  H98  1  0.14865263  0.54223182  1.04401303  1
  H+  H99  1  0.35772812  0.46392385  0.85253589  1
  H+  H100  1  0.13681042  0.77063067  0.50478920  1
  H+  H101  1  0.77247092  0.62665184  0.33849866  1
  H+  H102  1  0.93134762  0.81850024  0.22552620  1
  H+  H103  1  0.75240793  0.38606524  0.12697143  1
  H+  H104  1  0.78290605  0.15254282  0.16390768  1
  H+  H105  1  0.36209278  0.13589552  0.15992475  1
  H+  H106  1  0.71162541  0.85378639  -0.01044788  1
  H+  H107  1  0.38182495  0.60301573  0.16940907  1
  H+  H108  1  0.27499298  0.14235698  0.67475705  1
  H+  H109  1  0.00025457  0.87452335  -0.01956965  1
  H+  H110  1  0.99026467  0.12434853  0.17593501  1
  H+  H111  1  0.86525476  0.78427910  0.83023113  1
  H+  H112  1  0.64049098  0.12790123  0.98884816  1
  H+  H113  1  0.40221858  0.28744264  0.17096791  1
  H+  H114  1  0.89527748  0.34774747  0.82042446  1
  H+  H115  1  0.86660668  0.14483464  1.01057133  1
  H+  H116  1  0.78448436  0.37683082  0.79687305  1
  H+  H117  1  0.86227204  0.63993541  -0.00495929  1
  H+  H118  1  0.37828621  0.53516722  0.33201751  1
  H+  H119  1  0.68750530  0.78699061  0.54868958  1
  H+  H120  1  0.91475355  0.04928522  0.65907128  1
  H+  H121  1  0.12724885  0.02225980  0.98158876  1
  H+  H122  1  0.33391237  0.92170007  0.40644619  1
  H+  H123  1  0.12218938  0.45164350  -0.02489259  1
  H+  H124  1  0.36848789  0.14479623  0.49415913  1
  H+  H125  1  0.06952305  0.14596843  0.41487180  1
  H+  H126  1  0.88421916  0.25454873  0.83022757  1
  H+  H127  1  0.12029482  -0.01846834  0.33918404  1
  H+  H128  1  0.86088843  0.63251352  0.13986159  1
  H+  H129  1  0.90692563  0.07770505  1.06314975  1
  H+  H130  1  0.15161937  0.77723806  0.32975397  1
  H+  H131  1  0.63763005  1.02373070  0.66470947  1
  H+  H132  1  0.37547205  0.77097662  0.51140354  1
  H+  H133  1  0.52830276  0.37984524  0.82337621  1
  H+  H134  1  0.77787934  0.14212900  0.67094837  1
  H+  H135  1  -0.01516093  0.87067677  0.49919191  1
  H+  H136  1  0.71127762  0.37029164  0.66315713  1
  H+  H137  1  0.38606224  0.34355043  0.84872122  1
  H+  H138  1  1.01967901  0.63300834  0.14582236  1
  H+  H139  1  0.23299737  0.12330600  0.33229060  1
  H+  H140  1  0.76081082  0.65064771  0.82371120  1
  H+  H141  1  0.12605085  0.70647887  0.68401339  1
  H+  H142  1  0.33990209  0.66252602  0.08838147  1
  H+  H143  1  0.39192264  0.27599083  0.66189148  1
  H+  H144  1  0.26030732  0.12710460  0.00734400  1
  H+  H145  1  0.44397198  0.77282197  0.21754283  1
  H+  H146  1  0.85785999  0.91199535  0.82113577  1
  H+  H147  1  0.60646719  0.12529460  0.82997391  1
  H+  H148  1  0.35403386  0.54872466  0.83921403  1
  H+  H149  1  0.28021666  0.14498960  0.49307863  1
  H+  H150  1  0.16808014  0.66226393  0.84687879  1
  H+  H151  1  0.83032643  0.44647908  0.33886794  1
  H+  H152  1  0.65672999  0.73476932  0.61760912  1
  H+  H153  1  0.51804902  0.38570836  0.16630352  1
  H+  H154  1  0.14733799  0.33656330  0.98903172  1
  H+  H155  1  0.77133911  0.63835177  -0.00403925  1
  H+  H156  1  0.72919851  0.61776024  0.16442500  1
  H+  H157  1  -0.02677109  0.60960544  -0.00850875  1
  H+  H158  1  0.52746504  0.44404635  0.39975614  1
  H+  H159  1  0.66696432  0.76362604  0.64493053  1
  H+  H160  1  0.60808695  0.71901236  0.15245123  1
  H+  H161  1  0.61132296  0.15360359  0.49474778  1
  H+  H162  1  0.63653180  0.29082915  0.50270099  1
  H+  H163  1  0.09260314  0.66003703  0.44047003  1
  H+  H164  1  0.37356480  0.10680821  -0.00096140  1
  H+  H165  1  0.61539623  0.14136948  0.16094315  1
  H+  H166  1  0.16917207  0.58502429  0.25768836  1
  H+  H167  1  0.35979339  0.13409412  0.67345822  1
  H+  H168  1  0.72381261  0.10392820  0.83883919  1
  H+  H169  1  0.98482083  0.12480726  0.32184142  1
  H+  H170  1  0.62926915  0.89648988  0.16081196  1
  H+  H171  1  0.59756919  0.86667178  1.01792999  1
  H+  H172  1  0.12311613  0.26959069  0.49368669  1
  H+  H173  1  0.14570557  0.02786737  0.50765505  1
  H+  H174  1  0.84840908  0.96641094  0.01093142  1
  H+  H175  1  0.60162737  0.71963742  1.00352291  1
  H+  H176  1  0.14804300  0.86223470  0.18049454  1
  H+  H177  1  0.13947548  0.24535235  0.00332289  1
  H+  H178  1  0.73404443  0.39895027  1.02917649  1
  H+  H179  1  0.12776265  0.86039669  0.98844034  1
  H+  H180  1  0.61758828  0.38275162  0.81877592  1
  H+  H181  1  0.87418125  0.50772774  0.13381428  1
  H+  H182  1  0.12193715  0.23217989  0.16407080  1
  H+  H183  1  0.65967082  0.57516488  0.89628053  1
  H+  H184  1  0.13527849  0.52288484  0.31549670  1
  H+  H185  1  0.15684505  0.55317069  0.56509566  1
  H+  H186  1  0.63758782  0.53153850  0.99729072  1
  H+  H187  1  0.02720286  0.36941333  -0.02269587  1
  H+  H188  1  0.76957516  0.91536010  0.33617152  1
  H+  H189  1  0.49942246  0.86245652  0.18521163  1
  H+  H190  1  0.13647489  0.29179884  0.65320035  1
  H+  H191  1  0.60752554  0.47860293  0.49030684  1
  H+  H192  1  0.11438755  0.63910248  0.00555509  1
  H+  H193  1  0.23208527  0.60953998  1.00949350  1
  H+  H194  1  0.13529042  0.60211803  0.51252551  1
  H+  H195  1  0.89824408  0.87482105  0.49338329  1
  H+  H196  1  0.36313415  0.63587333  0.49210575  1
  H+  H197  1  0.17332446  0.82397588  0.56438955  1
  H+  H198  1  0.36651835  0.72239699  0.99883157  1
  H+  H199  1  0.15705245  0.36620943  0.15909563  1
  H+  H200  1  0.89762946  0.63424283  0.66818208  1
  H+  H201  1  0.76726783  0.63653627  0.66780376  1
  H+  H202  1  0.85385240  0.13863352  0.49872046  1
  H+  H203  1  0.14506788  0.13894849  0.65990481  1
  H+  H204  1  0.31402646  0.63162531  0.72580721  1
  H+  H205  1  0.98542827  0.10921611  1.01584302  1
  H+  H206  1  0.24967560  0.83802135  0.65530320  1
  H+  H207  1  -0.03083872  0.36627153  0.50348466  1
  H+  H208  1  0.46706083  0.10358611  0.66047347  1
  H+  H209  1  0.61506488  0.26927111  0.00335166  1
  H+  H210  1  0.13909210  0.13159301  0.84310142  1
  H+  H211  1  0.51331054  0.13656970  0.00926877  1
  H+  H212  1  0.02677137  0.05554528  0.44519343  1
  H+  H213  1  0.85322510  0.72877947  0.66771693  1
  H+  H214  1  0.15279094  0.89476532  0.67082411  1
  H+  H215  1  0.89832606  0.55122572  0.19846204  1
  H+  H216  1  0.27679977  0.89092749  0.34476632  1
  H+  H217  1  0.02753128  0.63861132  0.68983241  1
  H+  H218  1  0.59840271  0.12036461  0.67580220  1
  H+  H219  1  0.22660791  0.61456155  0.16327624  1
  H+  H220  1  0.63319699  0.36904379  0.16076306  1
  H+  H221  1  0.02169625  0.34612957  0.81054121  1
  H+  H222  1  0.63783087  0.61267282  0.16866816  1
  H+  H223  1  0.27076499  0.89074005  0.49700979  1
  H+  H224  1  0.14004520  0.61854555  0.16436306  1
  H+  H225  1  0.46762058  0.60054739  -0.01040110  1
  H+  H226  1  0.60035964  0.22863275  0.33091927  1
  H+  H227  1  0.48283169  0.36286634  0.65539791  1
  H+  H228  1  0.12103952  0.23643054  0.33163300  1
  H+  H229  1  0.11730310  0.88954885  0.49460693  1
  H+  H230  1  0.59514969  0.40740753  0.71377707  1
  H+  H231  1  0.49763194  0.40436411  0.33387760  1
  H+  H232  1  0.27039505  0.63013923  0.49515984  1
  H+  H233  1  0.56171810  0.39372496  0.01309551  1
  H+  H234  1  0.09400066  0.66709675  0.77394100  1
  H+  H235  1  0.36922021  0.88319338  0.15776609  1
  H+  H236  1  0.36830140  0.64426190  0.34105825  1
  H+  H237  1  0.51201449  0.87267186  0.01915088  1
  H+  H238  1  0.12136208  0.35776884  0.49134578  1
  H+  H239  1  0.86188864  -0.01512094  0.48900365  1
  H+  H240  1  0.61504545  0.47599433  0.16562229  1
  H+  H241  1  0.17807037  0.34255483  0.26151859  1
  H+  H242  1  0.13548957  0.77545171  0.98803435  1
  H+  H243  1  0.12074403  0.10973383  0.99538016  1
  H+  H244  1  0.23376960  0.37275750  0.32290855  1
  H+  H245  1  0.40492752  0.44117477  0.35731256  1
  H+  H246  1  0.89928499  0.62672748  0.51103677  1
  H+  H247  1  0.26969391  0.13784857  0.82857035  1
  H+  H248  1  0.59805241  0.83503568  0.84422240  1
  H+  H249  1  0.23232570  0.85445432  0.17452671  1
  H+  H250  1  0.03633804  0.88542348  0.16484382  1
  H+  H251  1  0.25391180  0.89810076  0.82449282  1
  H+  H252  1  0.97798804  0.85322803  0.31882574  1
  H+  H253  1  0.36638299  0.62983389  -0.00248469  1
  H+  H254  1  0.51825476  0.12914377  0.83326695  1
  H+  H255  1  0.39509987  0.26201626  0.84332017  1
  H+  H256  1  0.96359659  0.10702875  0.50121702  1
  H+  H257  1  0.90262220  1.03206220  0.18379411  1
  H+  H258  1  0.27516276  0.36438992  0.01971705  1
  H+  H259  1  0.59633477  0.91393275  0.52321446  1
  H+  H260  1  0.57462394  0.32497801  0.29457976  1
  H+  H261  1  0.42162756  0.84300215  0.28132791  1
  H+  H262  1  0.38207214  0.79913889  0.81560779  1
  H+  H263  1  0.47537091  0.85201568  0.66976733  1
  H+  H264  1  0.38751859  0.51635118  0.17817353  1
  H+  H265  1  0.60675598  0.98078402  0.83729546  1
  H+  H266  1  0.63635278  0.25951827  0.82654207  1
  H+  H267  1  0.84458919  0.38498911  0.68077647  1
  H+  H268  1  0.88655278  0.30104030  0.26704839  1
  H+  H269  1  0.43493964  0.61495234  0.58524692  1
  H+  H270  1  0.47104011  0.60492305  0.48917929  1
  H+  H271  1  0.01447941  0.37939364  0.33011315  1
  H+  H272  1  0.89398078  0.87327319  0.65259764  1
  H+  H273  1  1.02402665  0.16590533  0.82165751  1
  H+  H274  1  0.41478702  0.31512378  0.93990232  1
  H+  H275  1  0.72034932  0.12277579  0.50895444  1
  H+  H276  1  0.12208145  0.87375080  0.83916525  1
  H+  H277  1  0.23597016  0.12169954  0.17745368  1
  H+  H278  1  0.11218206  0.73324289  0.83027658  1
  H+  H279  1  0.87859019  0.52909223  1.00130107  1
  H+  H280  1  0.51168979  0.90252009  0.84293106  1
  H+  H281  1  0.98038558  0.37651210  0.65946531  1
  H+  H282  1  0.13473142  0.63791247  0.33335947  1
  H+  H283  1  0.13993961  0.11197337  0.50116038  1
  H+  H284  1  0.38757117  0.02557415  0.33079923  1
  H+  H285  1  0.63187111  0.37605425  0.49832507  1
  H+  H286  1  0.18724249  0.28186778  0.84676165  1
  H+  H287  1  0.86722119  0.23236660  0.67351458  1
  H+  H288  1  0.41654672  0.08175635  0.23446189  1
  H+  H289  1  0.91736336  0.34134982  0.60341597  1
  H+  H290  1  0.57184770  0.65427296  0.05982703  1
  H+  H291  1  0.40710144  0.83364272  0.93570885  1
  H+  H292  1  0.36331164  0.13727694  0.34021024  1
  H+  H293  1  0.57998619  0.92479560  0.41179423  1
  H+  H294  1  0.92347441  0.09718187  0.26219672  1
  H+  H295  1  0.41391268  0.82616046  0.61160389  1
  H+  H296  1  0.11631258  0.93444822  0.11816929  1
  H+  H297  1  0.32612028  0.16027354  0.10103138  1
  H+  H298  1  0.39017095  0.02238591  0.17509984  1
  H+  H299  1  0.83419361  0.67190338  0.08511500  1
  H+  H300  1  0.82777046  0.15441725  0.76691779  1
  H+  H301  1  0.10789641  0.72382944  0.15714674  1
  H+  H302  1  0.26907309  0.88830676  0.00801046  1
  H+  H303  1  0.15331886  0.33580590  0.58702735  1
  H+  H304  1  0.09099856  0.19520811  0.73077989  1
  H+  H305  1  0.09783981  1.00639061  0.67782735  1
  H+  H306  1  0.67073797  0.09074962  0.23388681  1
  H+  H307  1  0.22844899  0.75678699  0.61577661  1
  H+  H308  1  -0.00771480  0.69939103  0.40167450  1
  H+  H309  1  0.02688454  0.74469838  0.40751653  1
  H+  H310  1  0.10562590  0.38253347  0.33071512  1
  H+  H311  1  0.63618735  0.34059838  0.95184369  1
  H+  H312  1  0.40872530  0.08172411  0.93956604  1
  H+  H313  1  0.87121736  0.15200948  0.16201862  1
  H+  H314  1  0.33591914  0.91250806  0.10014802  1
  H+  H315  1  0.40050655  0.58702036  0.26735355  1
  H+  H316  1  0.33649024  0.43331369  0.40472008  1
  H+  H317  1  0.88048676  1.01463260  0.81986650  1
  H+  H318  1  0.60491163  0.73551080  0.33720002  1
  H+  H319  1  0.04495153  0.90467956  0.04266886  1
  H+  H320  1  0.16234393  0.09630690  0.90313984  1
  H+  H321  1  0.37649271  0.01870967  0.65654355  1
  H+  H322  1  0.32955555  0.16180641  0.76876157  1
  H+  H323  1  0.92618149  0.32946876  0.91692300  1
  H+  H324  1  0.96500846  0.66141326  0.26093047  1
  H+  H325  1  0.34188058  0.17704450  0.39806850  1
  H+  H326  1  0.81998583  0.68190534  0.76457813  1
  H+  H327  1  0.69177593  0.93405393  0.58133485  1
  H+  H328  1  0.67197352  0.57307720  0.26400079  1
  H+  H329  1  0.08484587  0.15132931  0.06438949  1
  H+  H330  1  0.49348944  0.59421792  0.83147099  1
  H+  H331  1  0.58025599  0.17868351  0.43366854  1
  H+  H332  1  0.77453629  0.40798450  0.49636739  1
  H+  H333  1  0.84560386  0.87838497  -0.00230829  1
  H+  H334  1  0.96288126  0.61955908  0.26862188  1
  H+  H335  1  0.37358991  0.86034022  0.51346451  1
  H+  H336  1  0.63593712  0.27928357  0.15890711  1
  H+  H337  1  0.20075228  0.63048952  0.90590010  1
  H+  H338  1  0.83862441  0.94128070  0.39486447  1
  H+  H339  1  0.30673131  0.75386094  0.86275667  1
  H+  H340  1  0.32864601  0.91682285  0.73510015  1
  H+  H341  1  0.82653590  0.16811176  0.43860793  1
  H+  H342  1  0.93558400  0.61020570  0.61100495  1
  H+  H343  1  0.65863598  0.34924557  0.60058856  1
  H+  H344  1  0.92957391  0.09802113  0.88610769  1
  H+  H345  1  0.83847270  0.18513055  0.06270271  1
  H+  H346  1  0.41378302  0.08500439  0.56607026  1
  H+  H347  1  0.74756592  0.86337706  0.16932553  1
  H+  H348  1  0.64940033  0.89479357  0.58946104  1
  H+  H349  1  0.56863036  0.92358136  0.74319559  1
  H+  H350  1  0.33871475  0.67353534  0.41062193  1
  H+  H351  1  0.95657571  0.38609436  0.19554732  1
  H+  H352  1  0.66804340  0.58096881  0.56389622  1
  H+  H353  1  0.39940815  0.55496126  0.93494923  1
  H+  H354  1  0.15787138  0.84413469  0.89620893  1
  H+  H355  1  0.10562053  0.39515486  0.06889942  1
  H+  H356  1  0.35896044  0.45794536  0.01431171  1
  H+  H357  1  0.12295908  0.89353654  0.33876833  1
  H+  H358  1  0.85492760  0.22635745  0.34445848  1
  H+  H359  1  0.57988461  0.91213906  0.10798112  1
  H+  H360  1  0.66216215  0.85708579  0.27555015  1
  H+  H361  1  0.73062212  0.13055706  0.98937230  1
  H+  H362  1  0.35326943  0.21426315  0.00797812  1
  H+  H363  1  0.08998145  0.38806868  0.75745249  1
  H+  H364  1  0.63468092  0.88322684  0.33759203  1
  H+  H365  1  0.91572637  0.55776408  0.89247028  1
  H+  H366  1  0.88036910  0.95964383  0.73779974  1
  H+  H367  1  0.07268385  0.41255887  0.42461298  1
  H+  H368  1  0.17634835  0.09384615  0.27161979  1
  H+  H369  1  0.63905535  0.81579902  0.93600458  1
  H+  H370  1  0.55379986  0.61649203  0.73449731  1
  H+  H371  1  0.08077829  0.26462364  0.80118192  1
  H+  H372  1  0.88299913  0.88331339  0.18357549  1
  H+  H373  1  0.89040205  0.76312818  0.31859664  1
  H+  H374  1  0.70084452  0.32533265  0.87449415  1
  H+  H375  1  0.56280641  0.14298487  0.73497546  1
  H+  H376  1  0.64499238  0.51516547  0.64802274  1
  H+  H377  1  0.08329530  0.67439081  0.05898553  1
  H+  H378  1  0.57400117  0.64642819  0.41640903  1
  H+  H379  1  0.91475428  0.08802447  0.56590716  1
  H+  H380  1  0.06867612  0.93643479  0.77416853  1
  H+  H381  1  0.58123710  0.43754288  0.07746733  1
  H+  H382  1  0.16959724  0.09982924  0.60196135  1
  H+  H383  1  0.89411060  0.12781748  0.65540595  1
  O2-  O384  1  0.08620912  0.16929760  0.15406577  1
  O2-  O385  1  0.05318798  0.11621145  0.45597886  1
  O2-  O386  1  0.08445135  0.21058012  0.80537847  1
  O2-  O387  1  0.11486587  0.40974924  0.11291082  1
  O2-  O388  1  0.07312942  0.40947259  0.47007607  1
  O2-  O389  1  0.07890930  0.35675339  0.79584158  1
  O2-  O390  1  0.08151435  0.66819614  0.13483791  1
  O2-  O391  1  0.09158246  0.66208418  0.48547230  1
  O2-  O392  1  0.09911059  0.67377898  0.82129679  1
  O2-  O393  1  0.10170002  0.92296673  0.16102572  1
  O2-  O394  1  0.09136549  0.92363991  0.47867884  1
  O2-  O395  1  0.07194252  0.92921746  0.81895112  1
  O2-  O396  1  0.32936324  0.16396161  0.14666878  1
  O2-  O397  1  0.34040287  0.17681827  0.47795313  1
  O2-  O398  1  0.32983497  0.15997700  0.81436393  1
  O2-  O399  1  0.34912819  0.41812402  0.15645042  1
  O2-  O400  1  0.32643262  0.41740860  0.48234808  1
  O2-  O401  1  0.30677844  0.36367526  0.83240377  1
  O2-  O402  1  0.33741428  0.66251242  0.13432907  1
  O2-  O403  1  0.33068645  0.66657301  0.47964258  1
  O2-  O404  1  0.32401133  0.62065716  0.80333442  1
  O2-  O405  1  0.33700202  0.91144598  0.14606909  1
  O2-  O406  1  0.33243176  0.91920032  0.48391886  1
  O2-  O407  1  0.31625694  0.92455804  0.81179535  1
  O2-  O408  1  0.58318146  0.16889796  0.14485015  1
  O2-  O409  1  0.57810574  0.18020710  0.47896314  1
  O2-  O410  1  0.57649860  0.15582663  0.81438492  1
  O2-  O411  1  0.58364846  0.41671649  0.14896178  1
  O2-  O412  1  0.56961048  0.42101627  0.47170019  1
  O2-  O413  1  0.58731925  0.41326024  0.80591693  1
  O2-  O414  1  0.57574753  0.65732679  0.14240612  1
  O2-  O415  1  0.57361974  0.64071932  0.46229548  1
  O2-  O416  1  0.55163026  0.63637805  0.81610562  1
  O2-  O417  1  0.59132949  0.92108371  0.15442126  1
  O2-  O418  1  0.56453144  0.92312611  0.49079905  1
  O2-  O419  1  0.56579766  0.91926396  0.82258426  1
  O2-  O420  1  0.84331065  0.18472068  0.14877407  1
  O2-  O421  1  0.82391240  0.16917957  0.48393380  1
  O2-  O422  1  0.82492769  0.15066488  0.81192796  1
  O2-  O423  1  0.80776740  0.41269492  0.10112338  1
  O2-  O424  1  0.83705422  0.44047872  0.48563005  1
  O2-  O425  1  0.84679800  0.40206104  0.79039378  1
  O2-  O426  1  0.83761954  0.67111174  0.13103584  1
  O2-  O427  1  0.83688012  0.66983387  0.47931743  1
  O2-  O428  1  0.82013875  0.69053209  0.80933402  1
  O2-  O429  1  0.85123368  0.91229928  0.19971860  1
  O2-  O430  1  0.84171135  0.93003518  0.46459464  1
  O2-  O431  1  0.84382275  0.95221985  0.79968263  1
  O2-  O432  1  0.17616198  0.09413394  0.19649971  1
  O2-  O433  1  0.17343968  0.08917460  0.52126804  1
  O2-  O434  1  0.16337049  0.09629478  0.85650348  1
  O2-  O435  1  0.18072573  0.33685910  0.18565731  1
  O2-  O436  1  0.15357910  0.32887531  0.50747432  1
  O2-  O437  1  0.23905140  0.31550888  0.87282582  1
  O2-  O438  1  0.16969491  0.59023115  0.18268499  1
  O2-  O439  1  0.16517477  0.56870357  0.52129192  1
  O2-  O440  1  0.22028672  0.65943102  0.86677739  1
  O2-  O441  1  0.17292515  0.82547255  0.19173850  1
  O2-  O442  1  0.16463291  0.83114159  0.52039455  1
  O2-  O443  1  0.15506715  0.84433902  0.85089526  1
  O2-  O444  1  0.41912849  0.08288682  0.18891518  1
  O2-  O445  1  0.41324248  0.08454485  0.52015639  1
  O2-  O446  1  0.41316549  0.08477415  0.86125854  1
  O2-  O447  1  0.43429633  0.34475658  0.18941006  1
  O2-  O448  1  0.41105414  0.34146899  0.52556145  1
  O2-  O449  1  0.42648054  0.32194820  0.85931498  1
  O2-  O450  1  0.41277763  0.57884036  0.19207818  1
  O2-  O451  1  0.41313746  0.58494921  0.50753387  1
  O2-  O452  1  0.38796775  0.52805055  0.86125400  1
  O2-  O453  1  0.44011006  0.82238927  0.20385030  1
  O2-  O454  1  0.40466504  0.83033536  0.52856324  1
  O2-  O455  1  0.36246005  0.80941638  0.85438355  1
  O2-  O456  1  0.67449146  0.09277603  0.18864066  1
  O2-  O457  1  0.66034605  0.09821625  0.52520156  1
  O2-  O458  1  0.66341770  0.07763081  0.85508214  1
  O2-  O459  1  0.67011722  0.34117224  0.17013794  1
  O2-  O460  1  0.66629519  0.35173221  0.51620973  1
  O2-  O461  1  0.67370402  0.32288334  0.83576684  1
  O2-  O462  1  0.67179837  0.58669840  0.18394236  1
  O2-  O463  1  0.67295034  0.58160276  0.51757314  1
  O2-  O464  1  0.65575298  0.57633718  0.85109667  1
  O2-  O465  1  0.69036729  0.83994072  0.14909191  1
  O2-  O466  1  0.68478336  0.80590443  0.50724632  1
  O2-  O467  1  0.62025770  0.80071507  0.86346897  1
  O2-  O468  1  0.92728346  0.09441161  0.19041531  1
  O2-  O469  1  0.90574377  0.08092566  0.51978969  1
  O2-  O470  1  0.92960690  0.10072051  0.84193370  1
  O2-  O471  1  0.95169994  0.36045906  0.15580146  1
  O2-  O472  1  0.91104626  0.34148349  0.52205278  1
  O2-  O473  1  0.92284247  0.31730828  0.83957840  1
  O2-  O474  1  0.90758554  0.56482984  0.15529822  1
  O2-  O475  1  0.93163761  0.59928587  0.52708077  1
  O2-  O476  1  0.92362610  0.55299836  0.84865396  1
  O2-  O477  1  0.93653174  0.82824981  0.17967019  1
  O2-  O478  1  0.92307271  0.84226665  0.51219633  1
  O2-  O479  1  0.89669243  0.84569980  0.84798784  1
  O2-  O480  1  0.17159165  0.09217003  0.31735249  1
  O2-  O481  1  0.16926839  0.10152404  0.64708503  1
  O2-  O482  1  0.15937940  0.08469610  0.97477147  1
  O2-  O483  1  0.17407898  0.34043414  0.30754227  1
  O2-  O484  1  0.15581844  0.34702750  0.63113679  1
  O2-  O485  1  0.18151771  0.30812323  0.99551101  1
  O2-  O486  1  0.16953570  0.58373570  0.30344088  1
  O2-  O487  1  0.14151013  0.52469494  0.64538316  1
  O2-  O488  1  0.16737859  0.57734888  1.00702430  1
  O2-  O489  1  0.17803938  0.83829863  0.31532384  1
  O2-  O490  1  0.20295712  0.79018752  0.63024904  1
  O2-  O491  1  0.16575596  0.83754709  0.97564593  1
  O2-  O492  1  0.41510808  0.08408471  0.31251759  1
  O2-  O493  1  0.40669237  0.07895642  0.64197915  1
  O2-  O494  1  0.40737692  0.07854813  0.98505870  1
  O2-  O495  1  0.47759062  0.32289212  0.29316850  1
  O2-  O496  1  0.41970505  0.33500260  0.64485521  1
  O2-  O497  1  0.40997662  0.30861507  0.98483939  1
  O2-  O498  1  0.40169964  0.59456526  0.31297467  1
  O2-  O499  1  0.45128009  0.64264166  0.62568513  1
  O2-  O500  1  0.40491414  0.56996918  0.97937233  1
  O2-  O501  1  0.41800576  0.84135478  0.32648947  1
  O2-  O502  1  0.41371138  0.82278618  0.65662943  1
  O2-  O503  1  0.40825611  0.83045252  0.98022687  1
  O2-  O504  1  0.66531615  0.08998076  0.31437092  1
  O2-  O505  1  0.66978952  0.08428629  0.65007502  1
  O2-  O506  1  0.67160127  0.10009791  0.97219358  1
  O2-  O507  1  0.62684202  0.31812219  0.29304096  1
  O2-  O508  1  0.65122273  0.33823239  0.64515734  1
  O2-  O509  1  0.64341757  0.33322885  0.99473854  1
  O2-  O510  1  0.67790893  0.56350908  0.30763425  1
  O2-  O511  1  0.66884995  0.57746966  0.63619049  1
  O2-  O512  1  0.67112526  0.58886087  0.97485066  1
  O2-  O513  1  0.67094841  0.85949964  0.31944970  1
  O2-  O514  1  0.70783971  0.88674569  0.72122670  1
  O2-  O515  1  0.64797668  0.82072466  0.98163508  1
  O2-  O516  1  0.92230178  0.09488491  0.30888928  1
  O2-  O517  1  0.93014610  0.10464351  0.63719975  1
  O2-  O518  1  0.91505375  0.08106631  1.01927519  1
  O2-  O519  1  0.89574775  0.31964210  0.30931249  1
  O2-  O520  1  0.91938388  0.33841957  0.64848643  1
  O2-  O521  1  0.93326408  0.33873822  0.96183286  1
  O2-  O522  1  0.88760755  0.54165088  0.37293706  1
  O2-  O523  1  0.94241531  0.62081157  0.65510253  1
  O2-  O524  1  0.91273052  0.58157779  0.97693960  1
  O2-  O525  1  0.92157134  0.82089495  0.29846239  1
  O2-  O526  1  0.91472784  0.83511188  0.63670244  1
  O2-  O527  1  0.90405327  0.83180887  0.96459846  1
  O2-  O528  1  0.07434061  0.14503271  0.02039529  1
  O2-  O529  1  0.08675507  0.17403738  0.34363803  1
  O2-  O530  1  0.09480512  0.19124534  0.68505799  1
  O2-  O531  1  0.09060343  0.39232571  -0.01069870  1
  O2-  O532  1  0.07373539  0.41071818  0.34629636  1
  O2-  O533  1  0.10170053  0.43935520  0.67394610  1
  O2-  O534  1  0.08382150  0.67148180  0.01333989  1
  O2-  O535  1  0.10880281  0.67183660  0.35385665  1
  O2-  O536  1  0.08608753  0.65513028  0.70725735  1
  O2-  O537  1  0.06039307  0.90314437  0.00055704  1
  O2-  O538  1  0.09020944  0.92096227  0.35418149  1
  O2-  O539  1  0.05164079  0.95713899  0.70137161  1
  O2-  O540  1  0.31998276  0.15248630  0.02418366  1
  O2-  O541  1  0.33755986  0.17287289  0.35278299  1
  O2-  O542  1  0.33418803  0.16739813  0.69146972  1
  O2-  O543  1  0.33777718  0.40125476  0.03347055  1
  O2-  O544  1  0.34901503  0.44157634  0.36014393  1
  O2-  O545  1  0.34061934  0.41828312  0.71100503  1
  O2-  O546  1  0.33753337  0.66218235  0.01421331  1
  O2-  O547  1  0.34543602  0.68116291  0.36374412  1
  O2-  O548  1  0.30627001  0.63918413  0.68192091  1
  O2-  O549  1  0.32920073  0.91535373  0.02393184  1
  O2-  O550  1  0.33749711  0.92142709  0.36087076  1
  O2-  O551  1  0.33477959  0.91247588  0.69016084  1
  O2-  O552  1  0.57505329  0.17058876  0.02167666  1
  O2-  O553  1  0.57823840  0.17256487  0.35362005  1
  O2-  O554  1  0.55513633  0.13478991  0.69041417  1
  O2-  O555  1  0.57745794  0.44811024  0.03288922  1
  O2-  O556  1  0.50710315  0.45459736  0.36046028  1
  O2-  O557  1  0.58965082  0.41194479  0.66932343  1
  O2-  O558  1  0.57251131  0.65681243  0.01476989  1
  O2-  O559  1  0.57528436  0.67371633  0.34536052  1
  O2-  O560  1  0.55659986  0.60409156  0.69106384  1
  O2-  O561  1  0.56651706  0.89105883  0.04075708  1
  O2-  O562  1  0.58213596  0.92511857  0.36654525  1
  O2-  O563  1  0.57897783  0.91884260  0.69912885  1
  O2-  O564  1  0.83723638  0.17881001  0.01801693  1
  O2-  O565  1  0.82821513  0.16550096  0.36012157  1
  O2-  O566  1  0.83877839  0.17020027  0.68503316  1
  O2-  O567  1  0.78673980  0.44858768  0.04824444  1
  O2-  O568  1  0.80098394  0.38569279  0.32380155  1
  O2-  O569  1  0.81097394  0.41322589  0.69097584  1
  O2-  O570  1  0.83345315  0.67187642  0.00980626  1
  O2-  O571  1  0.83312534  0.66196576  0.35440567  1
  O2-  O572  1  0.82565103  0.67123516  0.68684039  1
  O2-  O573  1  0.81226462  0.90310065  0.01632407  1
  O2-  O574  1  0.83328525  0.94575295  0.34832792  1
  O2-  O575  1  0.90521736  0.96470742  0.69392472  1
