# generated using pymatgen
data_H2O
_symmetry_space_group_name_H-M   'P 1'
_cell_length_a   17.98502839
_cell_length_b   17.98001648
_cell_length_c   21.99477381
_cell_angle_alpha   89.96467411
_cell_angle_beta   90.01934868
_cell_angle_gamma   119.98911868
_symmetry_Int_Tables_number   1
_chemical_formula_structural   H2O
_chemical_formula_sum   'H384 O192'
_cell_volume   6160.25757018
_cell_formula_units_Z   192
loop_
 _symmetry_equiv_pos_site_id
 _symmetry_equiv_pos_as_xyz
  1  'x, y, z'
loop_
 _atom_type_symbol
 _atom_type_oxidation_number
  H+  1.0
  O2-  -2.0
loop_
 _atom_site_type_symbol
 _atom_site_label
 _atom_site_symmetry_multiplicity
 _atom_site_fract_x
 _atom_site_fract_y
 _atom_site_fract_z
 _atom_site_occupancy
  H+  H0  1  0.86332869  0.85208508  0.70976507  1
  H+  H1  1  0.61566268  0.88991977  0.99950168  1
  H+  H2  1  0.41407782  0.75574272  0.31385044  1
  H+  H3  1  0.02199708  0.64392067  0.66315831  1
  H+  H4  1  0.64435356  0.36535597  0.17489624  1
  H+  H5  1  0.87494012  0.85582816  0.84222373  1
  H+  H6  1  0.35803716  0.72247863  0.66917559  1
  H+  H7  1  0.37525208  0.52644148  -0.01604767  1
  H+  H8  1  0.32448956  0.65110848  0.43144755  1
  H+  H9  1  0.27090286  0.63658572  0.15976014  1
  H+  H10  1  0.37689228  0.50458721  0.32979436  1
  H+  H11  1  0.50777090  0.10948870  0.82444140  1
  H+  H12  1  0.77463861  0.12593020  0.50567524  1
  H+  H13  1  0.36165683  0.09219977  -0.02108750  1
  H+  H14  1  0.98889599  0.84798183  0.51117201  1
  H+  H15  1  0.86997622  0.14179815  0.35231574  1
  H+  H16  1  0.30608653  0.14850822  0.72445828  1
  H+  H17  1  0.87890910  0.88910696  0.50515323  1
  H+  H18  1  0.12198416  0.58837833  0.49969658  1
  H+  H19  1  0.63341191  0.36088796  0.86044170  1
  H+  H20  1  0.35272533  0.23439497  0.67800067  1
  H+  H21  1  0.12939213  0.39003850  0.83370306  1
  H+  H22  1  0.63692005  0.76405552  0.65660279  1
  H+  H23  1  0.69291106  0.97463365  0.78401816  1
  H+  H24  1  0.89261919  0.51216328  0.99471835  1
  H+  H25  1  0.08615342  -0.03945302  0.33080068  1
  H+  H26  1  0.78727785  0.88751116  0.50407091  1
  H+  H27  1  0.88716394  0.87533311  0.17480268  1
  H+  H28  1  0.14660984  0.75476070  0.98649654  1
  H+  H29  1  0.14298645  0.50954451  0.65566052  1
  H+  H30  1  0.62000282  0.48306388  1.01233053  1
  H+  H31  1  0.86343906  0.72428340  0.49585967  1
  H+  H32  1  0.26726502  0.38232215  0.67488559  1
  H+  H33  1  0.12049086  0.12422070  0.48810091  1
  H+  H34  1  0.34673424  0.62389054  0.49521749  1
  H+  H35  1  0.16529720  0.55956415  0.59236330  1
  H+  H36  1  0.39879255  0.63633516  0.83143283  1
  H+  H37  1  0.72119383  0.85150401  0.35006518  1
  H+  H38  1  0.13417011  0.83707357  0.98889666  1
  H+  H39  1  0.10268680  0.21550669  0.32414146  1
  H+  H40  1  0.63651505  0.76464110  0.83166661  1
  H+  H41  1  0.11567974  0.38590415  0.30594817  1
  H+  H42  1  0.52268082  0.88566141  0.15236972  1
  H+  H43  1  0.86823727  0.75128198  0.33096737  1
  H+  H44  1  0.65133167  0.87100626  0.50990675  1
  H+  H45  1  0.97811906  0.61939471  0.51410080  1
  H+  H46  1  0.52942507  0.64449440  0.81311626  1
  H+  H47  1  0.88530476  0.02465661  1.01599016  1
  H+  H48  1  0.63248760  0.22907734  0.33694347  1
  H+  H49  1  0.79329115  0.63075424  0.00308596  1
  H+  H50  1  0.10168709  0.98519205  0.85884652  1
  H+  H51  1  0.86047515  0.87803520  0.00427402  1
  H+  H52  1  0.73351121  0.62013794  0.83023690  1
  H+  H53  1  0.39394853  0.38029836  0.51680813  1
  H+  H54  1  0.87832880  0.27109388  0.98286529  1
  H+  H55  1  0.61727598  0.26998238  0.01517329  1
  H+  H56  1  0.66596391  0.09455345  0.09928437  1
  H+  H57  1  0.38660544  0.14988041  0.34072510  1
  H+  H58  1  0.08351981  0.42827608  0.25922967  1
  H+  H59  1  0.67638123  0.61559143  0.68040488  1
  H+  H60  1  0.89803541  0.26065435  0.52654380  1
  H+  H61  1  -0.02276837  0.61621710  0.32731976  1
  H+  H62  1  0.11571712  0.64756797  0.33230995  1
  H+  H63  1  0.41031217  0.88131697  0.81491048  1
  H+  H64  1  0.89044351  0.27372998  0.17416994  1
  H+  H65  1  0.35352945  0.47580028  0.67725346  1
  H+  H66  1  0.12681048  0.36173712  -0.00502232  1
  H+  H67  1  0.83888266  0.65787307  0.76382382  1
  H+  H68  1  0.63222393  0.36096609  0.50913554  1
  H+  H69  1  0.61417640  0.97435437  0.14722740  1
  H+  H70  1  0.10810715  0.08588038  0.32082128  1
  H+  H71  1  0.36697892  0.98941528  0.48914274  1
  H+  H72  1  0.90814754  0.81950172  0.93538409  1
  H+  H73  1  0.47093953  0.36176820  0.31290249  1
  H+  H74  1  0.97386895  0.61190286  0.83693540  1
  H+  H75  1  0.12926682  0.27347150  -0.00285449  1
  H+  H76  1  1.02533554  0.38052718  0.68362267  1
  H+  H77  1  0.57576404  0.66994912  0.58974209  1
  H+  H78  1  1.10828181  0.22079739  0.82600431  1
  H+  H79  1  0.76406322  0.87282288  0.15459730  1
  H+  H80  1  0.07563704  0.15798425  0.73800387  1
  H+  H81  1  0.21844850  0.11881674  0.65602803  1
  H+  H82  1  0.47366589  0.87222666  0.51010135  1
  H+  H83  1  0.57774006  0.61006742  0.66270176  1
  H+  H84  1  0.16323856  0.97720778  0.50304110  1
  H+  H85  1  0.26593581  0.38799329  0.00206523  1
  H+  H86  1  0.36273207  0.62502377  0.33768799  1
  H+  H87  1  0.38689283  0.37099845  0.66945815  1
  H+  H88  1  0.36761611  0.73942080  0.81608630  1
  H+  H89  1  0.76977134  0.61071278  0.67611628  1
  H+  H90  1  0.38520524  0.37035011  0.16490031  1
  H+  H91  1  0.42068318  0.09382008  0.55409187  1
  H+  H92  1  1.01905274  0.81956586  0.64194726  1
  H+  H93  1  0.62099569  0.02256169  1.01575210  1
  H+  H94  1  0.21271646  0.88808777  0.32992093  1
  H+  H95  1  0.85317612  -0.03597275  0.15516786  1
  H+  H96  1  0.72964292  0.61785005  0.17135337  1
  H+  H97  1  0.86468317  -0.02247417  0.83590052  1
  H+  H98  1  0.59998956  0.63667227  0.00268574  1
  H+  H99  1  0.63831220  0.85983448  0.15970007  1
  H+  H100  1  0.84227406  0.36141819  0.84026116  1
  H+  H101  1  0.88830242  0.52454875  0.33146714  1
  H+  H102  1  0.62948134  0.48321688  0.82671872  1
  H+  H103  1  0.01371416  0.11730644  0.17256037  1
  H+  H104  1  0.62965789  0.76683017  0.34797805  1
  H+  H105  1  0.60894354  0.62408483  0.34549326  1
  H+  H106  1  0.36772190  0.99617762  0.82986653  1
  H+  H107  1  -0.00980061  0.34389916  0.51756335  1
  H+  H108  1  0.88563515  0.59587551  0.66413602  1
  H+  H109  1  0.36571803  0.49390262  0.51216666  1
  H+  H110  1  0.28238539  0.82899944  0.78826485  1
  H+  H111  1  0.78476696  0.13922377  0.14300771  1
  H+  H112  1  0.87778260  0.72108174  0.00587936  1
  H+  H113  1  0.85916228  0.62771409  0.34408483  1
  H+  H114  1  0.22906624  0.11408751  0.50638086  1
  H+  H115  1  0.63736599  0.14023385  0.33641483  1
  H+  H116  1  0.87775952  0.10376882  0.51817102  1
  H+  H117  1  0.86405610  0.63628701  0.82928742  1
  H+  H118  1  0.36203810  0.22183419  0.33841282  1
  H+  H119  1  -0.02465549  0.85181839  -0.00895105  1
  H+  H120  1  0.76882792  0.38992499  0.49193230  1
  H+  H121  1  0.36230748  0.22880646  0.16457346  1
  H+  H122  1  1.01287963  0.13446040  0.34061588  1
  H+  H123  1  0.57990825  0.90831996  0.06102805  1
  H+  H124  1  0.10981041  0.95811647  -0.00508594  1
  H+  H125  1  0.13480828  0.11014515  0.99861141  1
  H+  H126  1  0.86898633  0.23618383  0.67410177  1
  H+  H127  1  0.61636036  0.96940784  0.66858256  1
  H+  H128  1  0.63694255  0.52223208  0.31433835  1
  H+  H129  1  0.40836020  0.12509043  0.14926350  1
  H+  H130  1  0.48963894  0.11937300  0.00057638  1
  H+  H131  1  0.03114162  0.64147512  0.16995371  1
  H+  H132  1  0.86756197  1.03100622  0.67458977  1
  H+  H133  1  0.87424815  0.70008021  0.67564284  1
  H+  H134  1  0.31271277  0.08218200  0.80434760  1
  H+  H135  1  0.62599726  0.47409515  0.68065709  1
  H+  H136  1  0.13853873  0.62205413  0.17268570  1
  H+  H137  1  0.45999813  0.61643805  0.99081269  1
  H+  H138  1  0.09735500  0.73214664  0.81510720  1
  H+  H139  1  0.27572093  0.39889309  0.15168689  1
  H+  H140  1  0.86893276  0.47591234  0.16571554  1
  H+  H141  1  0.38160770  0.24716579  0.00867801  1
  H+  H142  1  0.10135711  0.12788032  0.67554090  1
  H+  H143  1  0.10122546  0.74726616  0.50511983  1
  H+  H144  1  0.37882608  0.13795665  0.65324776  1
  H+  H145  1  0.23164450  0.35286741  0.51877568  1
  H+  H146  1  0.82858435  0.41627981  0.72606436  1
  H+  H147  1  0.97049638  0.10760115  0.66796064  1
  H+  H148  1  0.84981219  -0.00506110  0.32983462  1
  H+  H149  1  0.13606318  0.53082952  0.16986460  1
  H+  H150  1  0.80015775  0.14720164  -0.07217562  1
  H+  H151  1  0.64210642  0.61786426  0.82557643  1
  H+  H152  1  0.20139652  1.00136759  0.74197517  1
  H+  H153  1  0.12099831  0.97301670  0.15311252  1
  H+  H154  1  0.75787980  0.13481539  -0.00902831  1
  H+  H155  1  0.12796618  0.48989871  0.82695449  1
  H+  H156  1  0.82411831  0.80804866  0.71144888  1
  H+  H157  1  0.22787041  0.62568108  0.83638897  1
  H+  H158  1  0.62352207  0.89073945  0.35522149  1
  H+  H159  1  0.86382310  0.39040135  0.34667864  1
  H+  H160  1  0.86375916  0.28516273  0.83977768  1
  H+  H161  1  0.61270364  0.37913639  0.67685815  1
  H+  H162  1  0.61529682  0.73054316  0.53156624  1
  H+  H163  1  0.23001323  0.10662613  0.17616094  1
  H+  H164  1  0.28289083  1.01471804  0.37211849  1
  H+  H165  1  1.04686286  0.60345285  0.98991916  1
  H+  H166  1  0.61206576  0.39038086  0.01721673  1
  H+  H167  1  0.63789037  0.26234163  0.66543903  1
  H+  H168  1  0.86924284  0.72257534  0.15575597  1
  H+  H169  1  0.35276664  0.39283226  0.83103035  1
  H+  H170  1  0.52559273  0.11876047  0.68119394  1
  H+  H171  1  0.47001233  0.84820989  0.65882575  1
  H+  H172  1  0.35457855  0.24197176  0.49519995  1
  H+  H173  1  0.85812122  0.87474420  0.35027260  1
  H+  H174  1  0.28466731  0.64405309  0.33260504  1
  H+  H175  1  0.75227876  0.43546213  0.79948896  1
  H+  H176  1  0.38273507  0.61444434  0.17430099  1
  H+  H177  1  0.72319436  0.85625481  -0.00922780  1
  H+  H178  1  0.48834912  0.11285398  0.50085625  1
  H+  H179  1  0.14754370  0.30044961  0.12885038  1
  H+  H180  1  0.73619033  0.37037033  0.33305535  1
  H+  H181  1  0.15880324  0.33682891  0.89886017  1
  H+  H182  1  0.65913245  0.81664251  0.89699507  1
  H+  H183  1  0.19658581  0.87078608  0.82609098  1
  H+  H184  1  0.85431118  0.37783440  1.01178415  1
  H+  H185  1  0.75259934  0.90711416  0.68853438  1
  H+  H186  1  0.26928172  0.87392181  0.00082094  1
  H+  H187  1  0.12052470  0.73070953  0.16868053  1
  H+  H188  1  0.37760596  0.98366718  0.14323515  1
  H+  H189  1  0.42541234  0.60500520  0.89029404  1
  H+  H190  1  0.11447881  0.36293513  0.49899735  1
  H+  H191  1  0.41046527  0.57887611  0.23338104  1
  H+  H192  1  0.68156285  0.60877980  0.91969915  1
  H+  H193  1  0.84102067  0.66195407  0.09779057  1
  H+  H194  1  0.64621724  0.11611511  0.50977425  1
  H+  H195  1  0.99608638  0.86044175  0.33523303  1
  H+  H196  1  0.64422082  0.89295572  0.82525611  1
  H+  H197  1  0.68616564  0.58485560  0.58523937  1
  H+  H198  1  0.10995274  0.78238832  0.65313295  1
  H+  H199  1  0.58673402  0.15419007  0.24679633  1
  H+  H200  1  0.86701075  0.14574105  0.67360575  1
  H+  H201  1  0.60706172  0.10659908  0.01835693  1
  H+  H202  1  0.95481967  0.24781466  0.79941663  1
  H+  H203  1  0.96897997  0.92305592  0.21596126  1
  H+  H204  1  0.70779355  0.33868525  0.86761276  1
  H+  H205  1  0.11234307  0.37417252  0.68207241  1
  H+  H206  1  0.13942890  0.02753485  0.66767140  1
  H+  H207  1  0.53978375  0.89397829  0.34334469  1
  H+  H208  1  0.51811310  0.63194315  0.16060567  1
  H+  H209  1  0.39497986  0.04375723  0.32034258  1
  H+  H210  1  0.36576986  0.48610085  0.15638577  1
  H+  H211  1  0.48735903  0.38933642  0.84172283  1
  H+  H212  1  0.63989984  0.10455530  0.66708396  1
  H+  H213  1  0.13226313  0.90604547  0.75469048  1
  H+  H214  1  0.15027067  0.54008801  0.31866124  1
  H+  H215  1  0.72489459  0.60956742  0.33006354  1
  H+  H216  1  0.65047166  0.02708516  0.86061871  1
  H+  H217  1  0.90975121  0.60723873  0.99483099  1
  H+  H218  1  0.61900284  0.97656717  0.50195821  1
  H+  H219  1  0.37570967  0.61133819  0.66839408  1
  H+  H220  1  0.68268745  0.84452368  0.57070733  1
  H+  H221  1  0.58933160  0.91010294  0.72663438  1
  H+  H222  1  0.11233106  0.85373476  0.56144975  1
  H+  H223  1  0.65021427  0.11784748  0.16665629  1
  H+  H224  1  0.65625110  0.03032114  0.33677196  1
  H+  H225  1  0.61742555  0.48410941  0.16602494  1
  H+  H226  1  0.01648046  0.38740737  0.15987634  1
  H+  H227  1  0.87774097  0.23504951  0.35450566  1
  H+  H228  1  0.85903614  0.47782344  0.49280080  1
  H+  H229  1  0.50176225  0.88837468  0.82000402  1
  H+  H230  1  0.22245660  0.11074874  -0.00373717  1
  H+  H231  1  0.20685429  0.61047743  -0.00444520  1
  H+  H232  1  0.14809226  0.25797241  0.51150100  1
  H+  H233  1  0.36104624  0.72396536  0.15230664  1
  H+  H234  1  0.72525240  0.35210779  0.65940543  1
  H+  H235  1  0.58589009  0.42267111  0.10842010  1
  H+  H236  1  0.22345277  0.09187992  0.81189699  1
  H+  H237  1  0.14892901  0.86813756  0.16827409  1
  H+  H238  1  0.02066438  0.13753513  0.02258295  1
  H+  H239  1  0.48207582  0.87673217  -0.01896553  1
  H+  H240  1  0.50066308  0.78930982  0.27772018  1
  H+  H241  1  0.14353084  0.88584185  0.66673890  1
  H+  H242  1  0.84852166  0.49052109  0.82246710  1
  H+  H243  1  0.31595410  0.81963045  0.35080852  1
  H+  H244  1  0.62942868  0.77122217  -0.00606563  1
  H+  H245  1  0.17896697  0.60071172  0.26227460  1
  H+  H246  1  0.33217370  0.62207737  0.00032773  1
  H+  H247  1  0.13790809  0.10089268  0.17595922  1
  H+  H248  1  0.36611875  0.89011920  -0.00471569  1
  H+  H249  1  0.88775710  0.01321251  0.51946643  1
  H+  H250  1  0.23967712  0.87205446  0.17192366  1
  H+  H251  1  0.36025590  1.00260774  0.66031644  1
  H+  H252  1  0.31464986  0.40561649  0.76861662  1
  H+  H253  1  0.52923141  0.39499729  0.50446139  1
  H+  H254  1  0.10076623  0.20352971  0.18446809  1
  H+  H255  1  0.73218084  0.11214358  0.66535159  1
  H+  H256  1  0.49232526  0.11793649  0.32413950  1
  H+  H257  1  0.88356611  0.10865499  0.99707532  1
  H+  H258  1  0.88639955  0.10416883  0.17150277  1
  H+  H259  1  0.72467210  0.68715795  0.96408167  1
  H+  H260  1  0.47491110  0.17353910  0.63354236  1
  H+  H261  1  0.63089841  0.85034711  0.65779062  1
  H+  H262  1  0.62101228  0.22773908  0.49094384  1
  H+  H263  1  0.77293846  0.63705227  0.50222771  1
  H+  H264  1  0.36381050  0.00325802  0.98405517  1
  H+  H265  1  0.58350451  0.40894770  0.25760153  1
  H+  H266  1  0.38428755  0.37211556  0.99491999  1
  H+  H267  1  0.47724214  0.37906615  0.99936538  1
  H+  H268  1  0.01246049  0.38593866  0.00433272  1
  H+  H269  1  0.89705509  0.34097517  0.93445184  1
  H+  H270  1  0.46819085  0.59106430  0.33287137  1
  H+  H271  1  0.89009097  0.60791533  0.17639795  1
  H+  H272  1  1.03224467  0.88529327  0.15292749  1
  H+  H273  1  0.38595931  0.87345122  0.50649888  1
  H+  H274  1  0.27745015  0.91309114  0.64764967  1
  H+  H275  1  0.62001701  0.47948824  0.50790012  1
  H+  H276  1  0.88659522  0.61427322  0.50743521  1
  H+  H277  1  0.86460806  0.46911551  0.66503391  1
  H+  H278  1  0.47099762  0.61979859  0.52971061  1
  H+  H279  1  0.33361531  0.84446623  0.32186574  1
  H+  H280  1  0.89526078  0.36431787  0.66389626  1
  H+  H281  1  0.09700594  0.87025166  0.32922878  1
  H+  H282  1  0.61666572  0.38369087  0.31512292  1
  H+  H283  1  0.12841853  0.37030286  0.15675204  1
  H+  H284  1  0.63423092  0.76906681  0.16119356  1
  H+  H285  1  0.47460621  0.36999146  0.17004589  1
  H+  H286  1  0.97723682  0.36527516  0.32332918  1
  H+  H287  1  0.73501115  0.36683730  0.17405374  1
  H+  H288  1  0.22279876  0.36453194  0.83785268  1
  H+  H289  1  0.91678006  0.57969095  0.23801441  1
  H+  H290  1  0.51038907  0.13487749  0.07047343  1
  H+  H291  1  0.10900171  0.73209500  0.33324624  1
  H+  H292  1  0.84350280  0.16155291  0.45003087  1
  H+  H293  1  0.49221720  0.12070785  0.16872308  1
  H+  H294  1  0.33479087  0.17332302  0.10496627  1
  H+  H295  1  0.87820122  0.76687378  0.83799199  1
  H+  H296  1  0.08641479  0.90676039  0.05696758  1
  H+  H297  1  0.82668671  0.65684117  0.40405192  1
  H+  H298  1  0.76628752  0.38068044  0.01852248  1
  H+  H299  1  0.30914780  0.95209318  0.40457785  1
  H+  H300  1  0.97963733  0.10544347  0.84076138  1
  H+  H301  1  0.21803927  0.34544855  0.30969105  1
  H+  H302  1  0.82679832  0.90215725  0.06372103  1
  H+  H303  1  0.83695283  0.41597547  0.10549259  1
  H+  H304  1  0.93272752  0.33204180  0.60788522  1
  H+  H305  1  0.26921645  0.91654178  0.48939971  1
  H+  H306  1  0.91357936  0.57330817  0.59953115  1
  H+  H307  1  0.09800921  0.47721740  0.00518529  1
  H+  H308  1  0.30601118  0.64798590  0.06299970  1
  H+  H309  1  0.86864324  0.19557911  0.76261676  1
  H+  H310  1  0.16204500  0.31922193  0.60805101  1
  H+  H311  1  0.89434750  0.06081644  0.23258081  1
  H+  H312  1  0.35311984  0.36635054  0.33165601  1
  H+  H313  1  0.11619811  0.13136988  0.82738969  1
  H+  H314  1  0.64159505  0.07029334  0.92082390  1
  H+  H315  1  0.74406960  0.12012510  0.34311664  1
  H+  H316  1  0.16267954  0.59323012  0.89370668  1
  H+  H317  1  0.11003931  0.69412450  0.55748438  1
  H+  H318  1  0.95827628  0.84979132  0.67141038  1
  H+  H319  1  0.58086605  0.14765137  0.74206820  1
  H+  H320  1  0.07284201  0.42061431  0.09800855  1
  H+  H321  1  0.40857726  0.82741342  0.60221574  1
  H+  H322  1  0.90958694  0.07465374  0.58501061  1
  H+  H323  1  0.16520937  0.07119959  0.56459007  1
  H+  H324  1  0.83132942  0.42176748  0.40520091  1
  H+  H325  1  0.08259667  0.68265795  0.72007353  1
  H+  H326  1  0.39052338  0.86561553  0.16637597  1
  H+  H327  1  0.17532098  0.10289926  0.88889560  1
  H+  H328  1  0.66137868  0.32441764  0.56530769  1
  H+  H329  1  0.88568371  0.36093048  0.17664107  1
  H+  H330  1  0.64413771  0.61818048  0.53658737  1
  H+  H331  1  0.68241117  0.33788037  0.27063735  1
  H+  H332  1  0.43265540  0.85934643  0.91813080  1
  H+  H333  1  0.39989007  0.58356185  0.58090364  1
  H+  H334  1  0.33904143  0.44381423  0.44989663  1
  H+  H335  1  0.11007504  0.64894979  0.82075469  1
  H+  H336  1  0.58197301  0.66715821  0.74996889  1
  H+  H337  1  0.65340594  0.32870244  0.95585172  1
  H+  H338  1  0.89672683  0.81681387  0.27219602  1
  H+  H339  1  0.16818149  0.84677527  0.26461645  1
  H+  H340  1  0.32478968  0.90897925  0.74365177  1
  H+  H341  1  0.46692785  0.61095939  0.66173005  1
  H+  H342  1  0.57167173  0.66079182  0.06511735  1
  H+  H343  1  0.42886465  0.36070937  0.90067619  1
  H+  H344  1  0.47561998  0.36794260  0.67096613  1
  H+  H345  1  0.59999610  0.11790249  0.83600864  1
  H+  H346  1  0.26916988  0.62880112  0.66768018  1
  H+  H347  1  0.41800799  0.34322623  0.57480413  1
  H+  H348  1  0.20976611  0.58764339  0.49459008  1
  H+  H349  1  0.59666986  0.41542225  0.77150918  1
  H+  H350  1  0.58904027  0.91919061  0.44232577  1
  H+  H351  1  0.29133037  0.35301231  0.38704800  1
  H+  H352  1  0.59740163  0.16647012  0.43238870  1
  H+  H353  1  0.67323629  0.59396884  0.23262222  1
  H+  H354  1  0.60838101  0.63295264  0.15884140  1
  H+  H355  1  0.11005730  0.87245419  0.84290021  1
  H+  H356  1  0.79440351  0.03074651  0.29976127  1
  H+  H357  1  0.86426845  0.17004314  0.09797962  1
  H+  H358  1  0.33136997  0.18098337  0.43585389  1
  H+  H359  1  0.33605265  0.91327970  0.09225066  1
  H+  H360  1  0.32998440  0.42503771  0.05925370  1
  H+  H361  1  0.62437482  0.22700978  0.19676045  1
  H+  H362  1  0.89775278  0.11463709  0.83986561  1
  H+  H363  1  0.42592168  0.82873631  0.22070123  1
  H+  H364  1  0.77417407  0.88552850  0.83513026  1
  H+  H365  1  1.01212115  0.89269200  0.86297344  1
  H+  H366  1  0.40581349  0.33187531  0.25799773  1
  H+  H367  1  0.38978569  0.05852286  0.88625123  1
  H+  H368  1  0.16515886  0.32189061  0.24713830  1
  H+  H369  1  0.42487073  0.19729164  0.03504447  1
  H+  H370  1  0.09853010  0.16414784  0.43133223  1
  H+  H371  1  0.10610323  0.44586659  0.48858079  1
  H+  H372  1  0.93317973  0.82386936  0.56939565  1
  H+  H373  1  0.08878554  0.16562749  0.07462773  1
  H+  H374  1  0.90649111  0.32524769  0.27385983  1
  H+  H375  1  0.67124016  0.08407671  0.57161316  1
  H+  H376  1  0.32665910  0.67270224  0.76067629  1
  H+  H377  1  0.09557901  0.42117806  0.76674310  1
  H+  H378  1  0.84300021  0.91429909  0.41204145  1
  H+  H379  1  0.92012228  0.57602678  0.89945823  1
  H+  H380  1  0.81084777  0.94004052  0.74915154  1
  H+  H381  1  0.14655593  0.05591119  0.26545726  1
  H+  H382  1  0.12983691  0.26226686  0.66857009  1
  H+  H383  1  0.57268915  0.64041250  0.40692115  1
  O2-  O384  1  0.07672169  0.15016601  0.16121563  1
  O2-  O385  1  0.09943777  0.16363794  0.47592913  1
  O2-  O386  1  0.07994655  0.16134120  0.81084878  1
  O2-  O387  1  0.07703505  0.41908575  0.14375343  1
  O2-  O388  1  0.07891681  0.38374168  0.47880827  1
  O2-  O389  1  0.10024803  0.42718628  0.81411293  1
  O2-  O390  1  0.09098032  0.67020652  0.15466347  1
  O2-  O391  1  0.09110329  0.68927687  0.51532975  1
  O2-  O392  1  0.07215836  0.66982153  0.80482341  1
  O2-  O393  1  0.09121267  0.91277556  0.13665219  1
  O2-  O394  1  0.16703682  0.92434358  0.48864350  1
  O2-  O395  1  0.07453565  0.92230256  0.87132476  1
  O2-  O396  1  0.33399748  0.16805396  0.15003457  1
  O2-  O397  1  0.31234535  0.18608169  0.47731599  1
  O2-  O398  1  0.26932623  0.08808604  0.78060133  1
  O2-  O399  1  0.33660325  0.42621103  0.13883965  1
  O2-  O400  1  0.33844585  0.43332525  0.49334856  1
  O2-  O401  1  0.30711413  0.40279898  0.81365801  1
  O2-  O402  1  0.33056433  0.66130052  0.14272413  1
  O2-  O403  1  0.30678789  0.63832585  0.47431034  1
  O2-  O404  1  0.32846040  0.67817615  0.80683890  1
  O2-  O405  1  0.34187396  0.92036371  0.13777182  1
  O2-  O406  1  0.32553884  0.92918902  0.47333262  1
  O2-  O407  1  0.32304649  0.89059346  0.78742027  1
  O2-  O408  1  0.59463534  0.16325451  0.20266424  1
  O2-  O409  1  0.59650513  0.16627866  0.47744668  1
  O2-  O410  1  0.56868875  0.13947700  0.81135621  1
  O2-  O411  1  0.58566959  0.42169437  0.15399287  1
  O2-  O412  1  0.58970893  0.42084077  0.49046805  1
  O2-  O413  1  0.60394125  0.42097535  0.81692890  1
  O2-  O414  1  0.57628136  0.65992650  0.14149168  1
  O2-  O415  1  0.58023345  0.66904394  0.54373356  1
  O2-  O416  1  0.58910022  0.66839513  0.79533831  1
  O2-  O417  1  0.58324176  0.91232162  0.13679612  1
  O2-  O418  1  0.59051696  0.91583931  0.48767801  1
  O2-  O419  1  0.63873813  0.94175382  0.80623629  1
  O2-  O420  1  0.84969095  0.16897112  0.14092045  1
  O2-  O421  1  0.83742595  0.15064882  0.49491977  1
  O2-  O422  1  0.89301025  0.21223218  0.80520066  1
  O2-  O423  1  0.83717600  0.41454875  0.15123587  1
  O2-  O424  1  0.82727756  0.42013720  0.47386536  1
  O2-  O425  1  0.80536497  0.43331488  0.80354476  1
  O2-  O426  1  0.83583781  0.66250557  0.14353887  1
  O2-  O427  1  0.83044901  0.66402469  0.48101458  1
  O2-  O428  1  0.83486293  0.66507162  0.80998205  1
  O2-  O429  1  0.82802600  0.90338774  0.14161076  1
  O2-  O430  1  0.84936931  0.92037378  0.49046266  1
  O2-  O431  1  0.83369151  0.91688524  0.81865186  1
  O2-  O432  1  0.16820868  0.06962942  0.18821167  1
  O2-  O433  1  0.16970253  0.06576194  0.51988868  1
  O2-  O434  1  0.15768863  0.08771117  0.84650950  1
  O2-  O435  1  0.16152199  0.33821616  0.16407554  1
  O2-  O436  1  0.17177765  0.31536398  0.53249725  1
  O2-  O437  1  0.15810293  0.33917353  0.85358897  1
  O2-  O438  1  0.16974453  0.58979995  0.18626644  1
  O2-  O439  1  0.14878259  0.55472837  0.51120791  1
  O2-  O440  1  0.16568576  0.59026373  0.84867116  1
  O2-  O441  1  0.18027549  0.84287706  0.18930391  1
  O2-  O442  1  0.09463045  0.84937778  0.51715327  1
  O2-  O443  1  0.13536465  0.84125699  0.81680918  1
  O2-  O444  1  0.44450041  0.09952782  0.13859168  1
  O2-  O445  1  0.42616401  0.08431358  0.51073617  1
  O2-  O446  1  0.39258969  0.05695872  0.84088080  1
  O2-  O447  1  0.41275061  0.33821959  0.18197898  1
  O2-  O448  1  0.42074676  0.34600659  0.52948196  1
  O2-  O449  1  0.42918359  0.37124302  0.85663229  1
  O2-  O450  1  0.41358851  0.58351414  0.18829689  1
  O2-  O451  1  0.40722068  0.58722386  0.53460068  1
  O2-  O452  1  0.43829079  0.61718543  0.84652254  1
  O2-  O453  1  0.41995545  0.83209851  0.17590398  1
  O2-  O454  1  0.41492018  0.84592939  0.52656173  1
  O2-  O455  1  0.44272663  0.85661726  0.83489240  1
  O2-  O456  1  0.67782794  0.09055959  0.14309029  1
  O2-  O457  1  0.67425935  0.08397077  0.52611143  1
  O2-  O458  1  0.66440865  0.08259631  0.87938307  1
  O2-  O459  1  0.67507565  0.33679866  0.19135618  1
  O2-  O460  1  0.66161735  0.32711561  0.52018238  1
  O2-  O461  1  0.65308768  0.32703344  0.88486609  1
  O2-  O462  1  0.66964108  0.58892414  0.18718604  1
  O2-  O463  1  0.67922827  0.58958932  0.53975311  1
  O2-  O464  1  0.67274407  0.59130344  0.84661580  1
  O2-  O465  1  0.66950514  0.83021042  0.17348256  1
  O2-  O466  1  0.68458762  0.84329762  0.52493468  1
  O2-  O467  1  0.66561174  0.82278657  0.85180458  1
  O2-  O468  1  0.90976471  0.06829406  0.18851531  1
  O2-  O469  1  0.90988799  0.07340410  0.53685129  1
  O2-  O470  1  0.91883094  0.07750598  0.85601491  1
  O2-  O471  1  0.91801366  0.33230644  0.19216647  1
  O2-  O472  1  0.93398465  0.32025401  0.54046052  1
  O2-  O473  1  0.85230170  0.32297417  0.86623181  1
  O2-  O474  1  0.91965138  0.57793241  0.19226016  1
  O2-  O475  1  0.91570460  0.58313670  0.52295921  1
  O2-  O476  1  0.91427402  0.58070589  0.85455872  1
  O2-  O477  1  0.93211969  0.86660240  0.19794523  1
  O2-  O478  1  0.92991858  0.83113047  0.52450699  1
  O2-  O479  1  0.90116897  0.82284361  0.85994483  1
  O2-  O480  1  0.12794343  0.04541585  0.30882354  1
  O2-  O481  1  0.15632887  0.08051800  0.64442487  1
  O2-  O482  1  0.16312820  0.07894386  0.98234818  1
  O2-  O483  1  0.15886918  0.31789783  0.29184062  1
  O2-  O484  1  0.16093469  0.32314164  0.65364591  1
  O2-  O485  1  0.15832453  0.33286280  0.97994732  1
  O2-  O486  1  0.18165959  0.60172675  0.30803004  1
  O2-  O487  1  0.17453812  0.56699914  0.63695408  1
  O2-  O488  1  0.14425073  0.58347295  0.97513827  1
  O2-  O489  1  0.15704204  0.84468897  0.30965108  1
  O2-  O490  1  0.12334143  0.84022425  0.63432341  1
  O2-  O491  1  0.17244876  0.81554104  0.97509957  1
  O2-  O492  1  0.43696341  0.10032883  0.30342312  1
  O2-  O493  1  0.42094158  0.11947372  0.63700138  1
  O2-  O494  1  0.39208202  0.06303983  0.96423611  1
  O2-  O495  1  0.40836080  0.33218051  0.30366465  1
  O2-  O496  1  0.41567135  0.33835186  0.65519033  1
  O2-  O497  1  0.41821181  0.34378539  0.98299972  1
  O2-  O498  1  0.40950388  0.56407991  0.31454174  1
  O2-  O499  1  0.40234604  0.57714481  0.65214751  1
  O2-  O500  1  0.40206389  0.58798745  0.97206624  1
  O2-  O501  1  0.46007608  0.80715562  0.29068029  1
  O2-  O502  1  0.40895003  0.81825846  0.64711471  1
  O2-  O503  1  0.42491357  0.85685319  0.96260311  1
  O2-  O504  1  0.69071520  0.08890375  0.31877542  1
  O2-  O505  1  0.67200076  0.07735141  0.64954782  1
  O2-  O506  1  0.65045533  0.08733408  1.01846295  1
  O2-  O507  1  0.67580247  0.33592252  0.31568599  1
  O2-  O508  1  0.66286681  0.32091836  0.64797651  1
  O2-  O509  1  0.65418595  0.33045475  1.00239287  1
  O2-  O510  1  0.66636174  0.58629906  0.31125761  1
  O2-  O511  1  0.69186283  0.57697391  0.66015294  1
  O2-  O512  1  0.69125055  0.62447276  0.96476167  1
  O2-  O513  1  0.66088582  0.82811362  0.33682537  1
  O2-  O514  1  0.66946262  0.82744883  0.64609848  1
  O2-  O515  1  0.66285762  0.82934469  0.97495770  1
  O2-  O516  1  0.85417927  0.04566414  0.30646868  1
  O2-  O517  1  0.91084102  0.08344372  0.65016918  1
  O2-  O518  1  0.91316104  0.08739867  1.02356806  1
  O2-  O519  1  0.91380651  0.33021896  0.31886022  1
  O2-  O520  1  0.92828434  0.33442412  0.65496774  1
  O2-  O521  1  0.90876820  0.33473769  0.97856310  1
  O2-  O522  1  0.91456078  0.58429765  0.31441259  1
  O2-  O523  1  0.91848461  0.56921285  0.64465420  1
  O2-  O524  1  0.93122599  0.57051552  0.97739422  1
  O2-  O525  1  0.89786945  0.81387900  0.31721896  1
  O2-  O526  1  0.95882149  0.80940086  0.64216418  1
  O2-  O527  1  0.91216088  0.81953364  0.98114129  1
  O2-  O528  1  0.08471915  0.16904386  0.03007178  1
  O2-  O529  1  0.07464574  0.15779939  0.34400607  1
  O2-  O530  1  0.07079681  0.15735704  0.69168568  1
  O2-  O531  1  0.07240344  0.41729940  0.02111585  1
  O2-  O532  1  0.08850918  0.42244367  0.30293983  1
  O2-  O533  1  0.08639045  0.40798614  0.69939360  1
  O2-  O534  1  0.10909612  0.63575136  0.00066980  1
  O2-  O535  1  0.07883351  0.67103468  0.34546419  1
  O2-  O536  1  0.08086513  0.68997617  0.67559426  1
  O2-  O537  1  0.08040966  0.89923503  0.01211304  1
  O2-  O538  1  0.05939535  0.89596804  0.34680858  1
  O2-  O539  1  0.15109673  0.95005444  0.72196215  1
  O2-  O540  1  0.36794901  0.18948551  0.02680710  1
  O2-  O541  1  0.34735787  0.16779601  0.35935663  1
  O2-  O542  1  0.31960966  0.17013781  0.68051418  1
  O2-  O543  1  0.32788012  0.42077406  0.01399464  1
  O2-  O544  1  0.31295858  0.38632955  0.34965214  1
  O2-  O545  1  0.32733754  0.41425613  0.69088625  1
  O2-  O546  1  0.29200313  0.63861724  0.01899220  1
  O2-  O547  1  0.34466106  0.66736916  0.34848767  1
  O2-  O548  1  0.32709337  0.66233506  0.68799290  1
  O2-  O549  1  0.33055134  0.91309904  0.01497760  1
  O2-  O550  1  0.29433017  0.96797599  0.36364033  1
  O2-  O551  1  0.32529965  0.94386380  0.67567843  1
  O2-  O552  1  0.53866738  0.15076308  0.02976646  1
  O2-  O553  1  0.60038274  0.16625382  0.34627023  1
  O2-  O554  1  0.58509656  0.15217502  0.69514886  1
  O2-  O555  1  0.58466611  0.42584207  0.02972323  1
  O2-  O556  1  0.58350297  0.41293135  0.30195075  1
  O2-  O557  1  0.58734878  0.41259972  0.69438553  1
  O2-  O558  1  0.56964948  0.66499466  0.01957608  1
  O2-  O559  1  0.57209239  0.64676420  0.36294188  1
  O2-  O560  1  0.56882436  0.65881431  0.66764517  1
  O2-  O561  1  0.58407563  0.91812879  0.01581931  1
  O2-  O562  1  0.59545053  0.92624459  0.36464695  1
  O2-  O563  1  0.58367701  0.90789940  0.68201575  1
  O2-  O564  1  0.81488743  0.15752395  -0.02889218  1
  O2-  O565  1  0.85031430  0.17669701  0.37409419  1
  O2-  O566  1  0.83668875  0.17484924  0.69058069  1
  O2-  O567  1  0.82858923  0.41172242  0.02905606  1
  O2-  O568  1  0.83403224  0.42225416  0.35797334  1
  O2-  O569  1  0.83186373  0.40833582  0.68176486  1
  O2-  O570  1  0.85095009  0.65981155  0.02169339  1
  O2-  O571  1  0.82554101  0.65579038  0.35826918  1
  O2-  O572  1  0.84066970  0.64289906  0.69415857  1
  O2-  O573  1  0.82791842  0.90641209  0.01827589  1
  O2-  O574  1  0.83311864  0.90900242  0.36706741  1
  O2-  O575  1  0.79080553  0.95923531  0.71291129  1
