# generated using pymatgen
data_H2O
_symmetry_space_group_name_H-M   'P 1'
_cell_length_a   17.99210394
_cell_length_b   17.98991236
_cell_length_c   22.01126291
_cell_angle_alpha   90.00500434
_cell_angle_beta   89.99914423
_cell_angle_gamma   119.98336864
_symmetry_Int_Tables_number   1
_chemical_formula_structural   H2O
_chemical_formula_sum   'H384 O192'
_cell_volume   6171.05402355
_cell_formula_units_Z   192
loop_
 _symmetry_equiv_pos_site_id
 _symmetry_equiv_pos_as_xyz
  1  'x, y, z'
loop_
 _atom_type_symbol
 _atom_type_oxidation_number
  H+  1.0
  O2-  -2.0
loop_
 _atom_site_type_symbol
 _atom_site_label
 _atom_site_symmetry_multiplicity
 _atom_site_fract_x
 _atom_site_fract_y
 _atom_site_fract_z
 _atom_site_occupancy
  H+  H0  1  0.61492326  0.14083417  0.49603796  1
  H+  H1  1  0.33572732  0.66948794  0.10618781  1
  H+  H2  1  0.51609137  0.63856145  0.33248614  1
  H+  H3  1  0.36348903  0.89250089  0.49930732  1
  H+  H4  1  0.28420353  0.63351040  0.01188261  1
  H+  H5  1  0.87845636  0.01307044  0.65923014  1
  H+  H6  1  0.65206912  0.33746167  0.31510538  1
  H+  H7  1  0.51163787  0.37162412  0.68854169  1
  H+  H8  1  0.21735747  0.85716748  1.00209997  1
  H+  H9  1  0.27095605  0.88231579  0.67886857  1
  H+  H10  1  0.89107224  0.37824706  0.65689732  1
  H+  H11  1  0.39071868  0.62939987  0.84404014  1
  H+  H12  1  0.57753416  0.15983649  1.06561894  1
  H+  H13  1  0.10125420  0.11235080  0.34505904  1
  H+  H14  1  0.61112046  0.88722133  0.16288638  1
  H+  H15  1  0.39256219  1.03069989  0.51362552  1
  H+  H16  1  0.64943600  0.67848545  0.99733191  1
  H+  H17  1  1.02095372  0.39705857  0.67622344  1
  H+  H18  1  0.77154643  0.38243587  0.01748427  1
  H+  H19  1  0.63209959  0.01890089  0.83404554  1
  H+  H20  1  0.67449761  0.82130584  0.90553259  1
  H+  H21  1  0.58603358  0.16636281  0.43469015  1
  H+  H22  1  0.38094225  0.52626459  0.31324365  1
  H+  H23  1  0.11555571  0.73939817  0.00847705  1
  H+  H24  1  0.88766536  0.35408041  0.16802731  1
  H+  H25  1  0.02390902  0.63925031  0.49430947  1
  H+  H26  1  0.25934626  0.65605005  0.68695697  1
  H+  H27  1  0.85367715  -0.03777944  0.33296211  1
  H+  H28  1  0.62612748  0.10392564  0.82676929  1
  H+  H29  1  0.87348523  0.85473117  0.66804710  1
  H+  H30  1  -0.01673846  0.86646722  0.81059279  1
  H+  H31  1  0.61564147  0.12214782  0.34349682  1
  H+  H32  1  0.38715365  0.77765597  0.51187310  1
  H+  H33  1  0.35411677  0.72722187  0.84372680  1
  H+  H34  1  0.19950446  0.32952838  0.30385231  1
  H+  H35  1  0.34790768  0.94429741  0.01668975  1
  H+  H36  1  0.83045110  0.91021627  0.39619040  1
  H+  H37  1  0.62780174  0.77498802  0.32438732  1
  H+  H38  1  0.01612858  0.65614348  0.81781035  1
  H+  H39  1  0.13502872  0.24041552  1.01283640  1
  H+  H40  1  0.62079328  0.21053471  0.33543281  1
  H+  H41  1  0.27745885  0.13721709  0.50278270  1
  H+  H42  1  1.02331611  0.63580479  0.33929630  1
  H+  H43  1  0.39632599  0.49549550  -0.00301307  1
  H+  H44  1  0.87983734  0.38769043  0.30183799  1
  H+  H45  1  0.37568834  0.84482821  0.01110600  1
  H+  H46  1  0.86716057  0.89138545  0.81485845  1
  H+  H47  1  0.60250323  0.45784566  0.69462429  1
  H+  H48  1  0.87501043  0.85112621  0.32196437  1
  H+  H49  1  0.28618169  0.15457960  0.00487092  1
  H+  H50  1  0.63368810  0.62362283  0.48917758  1
  H+  H51  1  0.38961421  1.01306062  0.31535873  1
  H+  H52  1  0.21850927  0.04277086  0.31446960  1
  H+  H53  1  0.65163898  0.07421047  0.26073871  1
  H+  H54  1  0.72291339  0.11291498  0.66055853  1
  H+  H55  1  0.62689351  0.35574324  0.66800948  1
  H+  H56  1  0.32943885  0.91131668  0.73905044  1
  H+  H57  1  0.87589944  0.76516434  0.66945990  1
  H+  H58  1  0.90173035  0.53000124  0.83937653  1
  H+  H59  1  0.11756372  0.89676862  0.16784879  1
  H+  H60  1  0.15145534  0.12253191  0.99758847  1
  H+  H61  1  0.27506448  0.89285279  0.49894802  1
  H+  H62  1  0.14106324  0.87366537  0.84322667  1
  H+  H63  1  0.37715089  0.63807990  1.01235937  1
  H+  H64  1  0.90417101  0.58937902  0.99433192  1
  H+  H65  1  0.57507679  0.92243286  0.43480536  1
  H+  H66  1  -0.04999609  0.34305859  -0.00476343  1
  H+  H67  1  0.86137460  0.46293032  0.16295088  1
  H+  H68  1  0.09755468  0.19842753  0.33969425  1
  H+  H69  1  0.76764615  0.62180693  0.68113058  1
  H+  H70  1  0.88542120  0.53124641  0.65874031  1
  H+  H71  1  0.72533437  0.10123896  0.31199066  1
  H+  H72  1  0.92935438  0.20268135  0.37762101  1
  H+  H73  1  0.24474015  0.37545009  0.14758571  1
  H+  H74  1  0.76456451  0.38525689  0.52936121  1
  H+  H75  1  0.13616515  0.61300222  0.50514368  1
  H+  H76  1  0.36886231  0.14041960  0.50423180  1
  H+  H77  1  0.02113313  0.37902590  0.14057411  1
  H+  H78  1  0.63136319  1.02686354  0.65623326  1
  H+  H79  1  0.12723686  0.52918381  0.15085858  1
  H+  H80  1  1.03502677  0.91006416  1.02018189  1
  H+  H81  1  0.72631315  0.62044788  0.32644488  1
  H+  H82  1  0.88212360  0.11123617  0.50980911  1
  H+  H83  1  0.34187343  0.17918711  0.10236849  1
  H+  H84  1  0.61085666  1.01377526  0.17522052  1
  H+  H85  1  0.30469087  0.44803265  0.69200139  1
  H+  H86  1  0.60507398  0.88539317  0.34033575  1
  H+  H87  1  0.36328650  0.48229843  0.50988119  1
  H+  H88  1  0.82852022  0.16610899  0.44074298  1
  H+  H89  1  0.38357959  0.36066591  0.51915306  1
  H+  H90  1  0.51839868  0.39235586  0.50022562  1
  H+  H91  1  0.76261222  0.10559120  -0.00449382  1
  H+  H92  1  0.11041978  0.63557399  0.67573247  1
  H+  H93  1  0.60827468  0.86308621  0.83320682  1
  H+  H94  1  0.13444173  0.16583150  0.19140678  1
  H+  H95  1  0.14374093  0.53626903  0.99043481  1
  H+  H96  1  0.77990513  0.37875136  0.29764268  1
  H+  H97  1  0.62709312  0.86853689  0.66506019  1
  H+  H98  1  0.34233376  0.56842724  0.67355011  1
  H+  H99  1  -0.03575259  0.85159027  0.32334864  1
  H+  H100  1  0.63072474  0.53984111  0.32951093  1
  H+  H101  1  0.62339012  0.65011977  0.15803299  1
  H+  H102  1  0.47041678  0.86084486  0.17912695  1
  H+  H103  1  0.86590380  0.72084795  0.81988303  1
  H+  H104  1  0.60773443  0.48326419  0.49646976  1
  H+  H105  1  0.52115183  0.63697846  0.48509464  1
  H+  H106  1  0.72006895  0.86063584  0.32814568  1
  H+  H107  1  0.51513903  0.89420297  0.67230877  1
  H+  H108  1  0.92082755  0.59978005  0.56677004  1
  H+  H109  1  1.01761366  0.38680623  0.48691956  1
  H+  H110  1  0.08660702  0.17006996  0.76899551  1
  H+  H111  1  0.10133571  0.37003991  0.33256980  1
  H+  H112  1  0.73480523  0.86380730  0.84642764  1
  H+  H113  1  0.72254905  0.86792897  0.49311605  1
  H+  H114  1  0.38542801  0.87106839  0.66652088  1
  H+  H115  1  0.19706063  0.34018761  0.64826101  1
  H+  H116  1  0.38944097  0.61610563  0.51319152  1
  H+  H117  1  0.10768579  0.75316221  0.81971494  1
  H+  H118  1  0.46470448  0.08966789  0.60670246  1
  H+  H119  1  0.66829725  0.71863587  0.69367089  1
  H+  H120  1  0.82417558  0.41244348  0.72104105  1
  H+  H121  1  0.38643616  0.76164552  1.00512092  1
  H+  H122  1  0.11697981  0.98323112  0.82991197  1
  H+  H123  1  0.61011134  0.64651852  0.33297582  1
  H+  H124  1  0.46812828  0.86244178  0.33088963  1
  H+  H125  1  0.21919559  0.86347497  0.33327592  1
  H+  H126  1  0.57671612  0.66866814  0.42318823  1
  H+  H127  1  -0.01255363  0.11208048  -0.00747286  1
  H+  H128  1  0.13681104  0.86526022  0.66054012  1
  H+  H129  1  0.01932758  0.88447462  0.49990964  1
  H+  H130  1  0.18210327  0.38269007  1.01380767  1
  H+  H131  1  0.98192189  0.36445838  0.31680837  1
  H+  H132  1  0.89590328  0.84101416  1.05250445  1
  H+  H133  1  0.76602538  0.13464411  0.49871886  1
  H+  H134  1  0.92125722  0.83323103  0.75444049  1
  H+  H135  1  0.24197394  0.12091696  0.17601377  1
  H+  H136  1  0.40064422  0.27214366  0.17525515  1
  H+  H137  1  0.50230574  0.63835868  0.99007381  1
  H+  H138  1  0.11715439  0.73475617  0.15912212  1
  H+  H139  1  0.63766709  0.36053665  0.17184609  1
  H+  H140  1  0.62376567  0.01638388  0.98824930  1
  H+  H141  1  0.41992093  0.59653626  0.26126212  1
  H+  H142  1  0.86785067  0.72957637  0.15342450  1
  H+  H143  1  0.86046245  0.71937408  0.33092835  1
  H+  H144  1  0.07022091  0.41574177  0.04764696  1
  H+  H145  1  0.76952795  0.13170418  0.83098936  1
  H+  H146  1  0.86282943  0.88778428  0.49361869  1
  H+  H147  1  0.47654818  0.33579829  0.94251892  1
  H+  H148  1  0.47960699  0.09447490  0.31549385  1
  H+  H149  1  -0.03186543  0.10110708  0.66276791  1
  H+  H150  1  0.38197996  0.77131246  0.33321553  1
  H+  H151  1  0.88133775  0.60483825  0.32023131  1
  H+  H152  1  0.10620616  0.39547359  0.83212111  1
  H+  H153  1  0.91179003  0.07822480  0.56763363  1
  H+  H154  1  0.84915531  0.12205327  0.67540171  1
  H+  H155  1  0.78735432  0.99591815  0.04995944  1
  H+  H156  1  0.58842945  0.08809531  0.18032661  1
  H+  H157  1  0.35239754  0.21195039  0.67422794  1
  H+  H158  1  0.88203931  0.23456796  0.33559500  1
  H+  H159  1  -0.03634280  0.36063151  0.84384647  1
  H+  H160  1  0.88477994  0.77190732  0.50909086  1
  H+  H161  1  0.27559425  0.63692380  0.50029831  1
  H+  H162  1  0.86189408  0.88740097  0.16527554  1
  H+  H163  1  0.88298070  0.27307291  0.50904827  1
  H+  H164  1  0.54212134  0.62072758  0.65181003  1
  H+  H165  1  0.91010552  0.82646147  0.57118188  1
  H+  H166  1  0.61959940  0.14163040  0.00636327  1
  H+  H167  1  0.09627280  0.21280402  0.67033569  1
  H+  H168  1  0.20076140  0.62474462  0.83650554  1
  H+  H169  1  0.88293820  0.36182176  0.51954074  1
  H+  H170  1  0.90963886  0.10042703  0.21547023  1
  H+  H171  1  0.08222061  0.39091123  -0.02084228  1
  H+  H172  1  0.10714228  0.12953375  0.67493568  1
  H+  H173  1  0.88418604  0.52758312  0.51856606  1
  H+  H174  1  0.38017501  0.28251177  0.33371319  1
  H+  H175  1  0.54338519  0.40897022  0.01923799  1
  H+  H176  1  0.02124635  0.63821953  0.67150659  1
  H+  H177  1  0.12680522  0.26589888  0.49969915  1
  H+  H178  1  0.52946079  0.82136670  0.79003984  1
  H+  H179  1  0.87243737  0.48502348  0.30378230  1
  H+  H180  1  0.38724143  1.02662286  0.84371885  1
  H+  H181  1  0.66582364  0.08586282  0.56583865  1
  H+  H182  1  0.86455403  -0.02257387  0.49131991  1
  H+  H183  1  0.48210562  0.63183100  0.17315312  1
  H+  H184  1  0.83706415  0.35107072  0.81822746  1
  H+  H185  1  0.18076886  0.07819896  0.26508717  1
  H+  H186  1  0.11822783  0.23287984  0.82741304  1
  H+  H187  1  0.60936445  0.39308787  0.84567788  1
  H+  H188  1  0.88228853  0.09805399  0.31641672  1
  H+  H189  1  0.88868593  0.61148025  0.84385529  1
  H+  H190  1  0.34539357  0.37883648  0.31742735  1
  H+  H191  1  0.13372868  0.86773869  -0.00109855  1
  H+  H192  1  0.16003336  0.62977786  0.99938083  1
  H+  H193  1  0.94935921  0.58775718  0.93172460  1
  H+  H194  1  0.51407113  0.87648817  1.01153917  1
  H+  H195  1  0.76058898  0.39418907  0.66575058  1
  H+  H196  1  0.85764739  0.98400732  0.02083000  1
  H+  H197  1  0.85992127  0.13288305  0.83209355  1
  H+  H198  1  0.89624026  0.20583653  0.16728226  1
  H+  H199  1  0.41770638  0.07757652  1.02247774  1
  H+  H200  1  0.77518708  0.60805537  0.00419395  1
  H+  H201  1  0.77598040  0.64114111  0.48208596  1
  H+  H202  1  0.07690346  0.40592351  0.39231628  1
  H+  H203  1  0.52190538  0.12912286  0.81555125  1
  H+  H204  1  0.62999095  0.27241196  0.50515911  1
  H+  H205  1  0.61639866  0.77572545  0.65980600  1
  H+  H206  1  0.64571369  0.78051755  0.17551293  1
  H+  H207  1  0.63988118  0.28394938  1.00621591  1
  H+  H208  1  0.27659861  0.15762961  0.35381222  1
  H+  H209  1  0.39974128  0.40759386  0.99086870  1
  H+  H210  1  0.35615182  0.72848894  0.16575277  1
  H+  H211  1  0.23154612  0.87417477  0.17867021  1
  H+  H212  1  0.89648743  0.85246497  0.98263832  1
  H+  H213  1  0.22229678  0.10989673  0.66346250  1
  H+  H214  1  0.92436939  0.32502637  0.25522680  1
  H+  H215  1  0.21442289  0.35708099  0.50794584  1
  H+  H216  1  -0.03564807  0.08882188  0.31587203  1
  H+  H217  1  -0.01930033  0.11664916  0.83736229  1
  H+  H218  1  0.23216913  0.38020150  0.84306510  1
  H+  H219  1  0.13200269  0.52504040  0.66366147  1
  H+  H220  1  0.70929661  0.83055351  1.01406028  1
  H+  H221  1  0.37377370  0.34972960  0.66561466  1
  H+  H222  1  0.15982003  0.58311276  0.60314944  1
  H+  H223  1  -0.01899681  0.61653412  0.16821535  1
  H+  H224  1  0.11469732  0.98026839  0.67222887  1
  H+  H225  1  0.72989131  0.62040317  0.17392455  1
  H+  H226  1  0.64026620  0.60488385  0.68398943  1
  H+  H227  1  0.84864464  0.36364531  0.01641434  1
  H+  H228  1  0.46264782  0.37792569  0.33059044  1
  H+  H229  1  0.09898594  0.87366669  0.34274426  1
  H+  H230  1  0.60646256  0.97393072  0.33730981  1
  H+  H231  1  0.84936804  0.18881832  1.00914960  1
  H+  H232  1  0.27527772  0.89126367  0.83551296  1
  H+  H233  1  0.86722598  0.98031061  0.82734200  1
  H+  H234  1  0.22498596  0.10986798  0.84224935  1
  H+  H235  1  0.67860443  0.59759691  -0.06754654  1
  H+  H236  1  0.12944329  0.98988204  0.01174416  1
  H+  H237  1  0.35827115  0.13204233  0.82809613  1
  H+  H238  1  0.02383029  0.63402438  0.00198381  1
  H+  H239  1  0.11369393  0.72759014  0.49452663  1
  H+  H240  1  0.63370466  0.78056173  0.49178144  1
  H+  H241  1  0.14250498  0.52682369  0.33205916  1
  H+  H242  1  0.13526986  0.10978601  0.50759086  1
  H+  H243  1  0.48131222  0.11888267  0.50791086  1
  H+  H244  1  0.86404846  0.63895597  0.48913240  1
  H+  H245  1  0.36589828  0.64048531  0.34510081  1
  H+  H246  1  0.59956698  0.87106598  0.00841220  1
  H+  H247  1  0.36254714  0.36508970  0.14728549  1
  H+  H248  1  0.46373745  0.52680169  0.64319484  1
  H+  H249  1  0.66961920  0.83846481  0.23836757  1
  H+  H250  1  0.09417384  0.95917673  0.34143753  1
  H+  H251  1  0.13438877  0.52362131  0.50312989  1
  H+  H252  1  0.60199741  0.12735385  0.65493669  1
  H+  H253  1  0.88028133  0.26684461  0.84257125  1
  H+  H254  1  0.36426618  0.35976207  0.84448963  1
  H+  H255  1  0.14232910  0.61503341  0.33598348  1
  H+  H256  1  0.12206232  0.26192070  0.26177467  1
  H+  H257  1  0.48235957  0.62780769  0.83898028  1
  H+  H258  1  0.59339304  0.40855015  0.34734382  1
  H+  H259  1  0.13595981  0.02136398  0.50743617  1
  H+  H260  1  0.61874041  0.72336640  0.82940195  1
  H+  H261  1  0.97857039  0.87277953  0.17073540  1
  H+  H262  1  0.64651526  0.54869643  -0.00308781  1
  H+  H263  1  0.01686120  0.13102897  0.49761488  1
  H+  H264  1  0.89325094  0.10066316  0.98754009  1
  H+  H265  1  0.64284479  0.61587978  0.84282154  1
  H+  H266  1  0.37820502  0.16004131  0.00610530  1
  H+  H267  1  0.38709335  0.27249793  0.51466772  1
  H+  H268  1  0.47459586  0.86805761  0.50940876  1
  H+  H269  1  0.34479525  0.21412128  0.82565647  1
  H+  H270  1  0.46990543  0.85961395  0.85646175  1
  H+  H271  1  0.35045540  0.74317133  0.68679168  1
  H+  H272  1  0.11455826  0.54037589  0.83042042  1
  H+  H273  1  0.64352259  0.37601361  0.00970279  1
  H+  H274  1  0.37515042  0.50367151  0.83833356  1
  H+  H275  1  0.54255608  0.18737035  0.15786962  1
  H+  H276  1  0.82947294  0.41688228  0.58361460  1
  H+  H277  1  0.36848764  0.89505922  0.16801959  1
  H+  H278  1  0.69907019  0.34414771  0.84701184  1
  H+  H279  1  0.10430715  0.38349910  0.48635348  1
  H+  H280  1  0.11704552  0.39499076  0.13519433  1
  H+  H281  1  0.89079074  0.61351551  0.16998956  1
  H+  H282  1  0.21698163  0.61432302  0.16338962  1
  H+  H283  1  0.35770389  0.59886428  0.64702937  1
  H+  H284  1  0.36401834  0.89183596  0.83893414  1
  H+  H285  1  0.63399520  1.02625579  0.50574462  1
  H+  H286  1  0.11519615  0.64233662  0.15289052  1
  H+  H287  1  0.88897398  0.62123519  0.66291672  1
  H+  H288  1  0.62962296  0.36240540  0.50476421  1
  H+  H289  1  0.64771510  0.54708578  0.62720946  1
  H+  H290  1  0.34192846  0.41977820  0.45503912  1
  H+  H291  1  0.80337384  0.40293763  0.40179384  1
  H+  H292  1  0.41856403  0.33365633  0.23285770  1
  H+  H293  1  0.39042310  0.62591030  0.17480810  1
  H+  H294  1  0.77548659  0.63332759  0.83385445  1
  H+  H295  1  0.40681451  0.28182208  -0.00532998  1
  H+  H296  1  0.57892883  0.92639541  0.72980241  1
  H+  H297  1  0.38262897  0.14058723  0.14570365  1
  H+  H298  1  0.32007317  0.15126843  0.73166782  1
  H+  H299  1  0.36943807  0.31273607  0.90286838  1
  H+  H300  1  0.09862403  0.92850318  0.76768518  1
  H+  H301  1  0.41108965  0.83410100  0.91600429  1
  H+  H302  1  0.43740903  0.60449828  0.93344038  1
  H+  H303  1  0.16145187  0.83324551  0.90216988  1
  H+  H304  1  0.07189020  0.15141389  0.43659311  1
  H+  H305  1  0.13485103  0.77519586  0.65917952  1
  H+  H306  1  0.91343783  0.83334184  0.22698399  1
  H+  H307  1  0.56783676  0.43384110  0.40888385  1
  H+  H308  1  0.32701293  0.91568427  0.40421627  1
  H+  H309  1  0.65958651  0.33757782  0.91249871  1
  H+  H310  1  0.32190687  0.90062151  0.08234184  1
  H+  H311  1  0.09602166  0.17768834  0.06906539  1
  H+  H312  1  0.13593775  0.31608251  0.59146008  1
  H+  H313  1  0.92588570  0.34349245  0.60380380  1
  H+  H314  1  0.61963533  0.48418851  0.17098212  1
  H+  H315  1  0.75433492  0.30086761  0.77828204  1
  H+  H316  1  0.83173366  0.40262277  0.10357890  1
  H+  H317  1  0.41556843  0.84051304  0.60637758  1
  H+  H318  1  0.32369286  0.67582230  0.78148629  1
  H+  H319  1  0.13936045  0.25673977  0.17603186  1
  H+  H320  1  0.66786168  0.31258484  0.24785348  1
  H+  H321  1  0.16562625  0.83337053  0.56653522  1
  H+  H322  1  0.64096127  0.52478346  0.84629084  1
  H+  H323  1  0.26749051  0.36360029  0.73095455  1
  H+  H324  1  0.88999240  0.30808293  0.93872948  1
  H+  H325  1  0.36957534  0.45029615  0.78011595  1
  H+  H326  1  0.07598820  0.68849732  0.75133136  1
  H+  H327  1  0.60966694  0.89225921  0.49044706  1
  H+  H328  1  0.20291302  0.39695335  0.20448877  1
  H+  H329  1  0.71969818  0.34789940  0.16598088  1
  H+  H330  1  0.33790315  0.66749605  0.44253342  1
  H+  H331  1  0.33796596  0.18477322  0.41167667  1
  H+  H332  1  0.83242395  0.76620409  0.92157173  1
  H+  H333  1  0.16855375  0.83937213  0.23619563  1
  H+  H334  1  0.99178336  0.15716694  0.17845119  1
  H+  H335  1  0.08750409  0.67873035  0.07238475  1
  H+  H336  1  0.14806602  0.03701880  0.17504101  1
  H+  H337  1  0.02654594  0.89009976  0.67686760  1
  H+  H338  1  0.13893360  0.11631357  0.84411290  1
  H+  H339  1  0.82589843  0.93351107  0.11392835  1
  H+  H340  1  0.49941717  0.14443600  0.99185859  1
  H+  H341  1  0.57619995  0.41617941  0.78619322  1
  H+  H342  1  0.82188418  0.15307934  0.73493783  1
  H+  H343  1  0.82714291  0.80400675  0.91335270  1
  H+  H344  1  0.82238083  0.91492380  0.73277821  1
  H+  H345  1  0.17569537  0.08994160  0.93697170  1
  H+  H346  1  0.60409252  0.69121989  0.09959448  1
  H+  H347  1  0.92174784  0.58837155  0.25880773  1
  H+  H348  1  0.41045324  0.83296872  0.23890252  1
  H+  H349  1  0.56499099  0.14068574  0.75084791  1
  H+  H350  1  0.66970933  0.59653135  0.23310069  1
  H+  H351  1  0.83633891  0.66425919  0.39228104  1
  H+  H352  1  0.83445388  0.65625326  0.10069140  1
  H+  H353  1  0.92536352  0.08044911  0.89775180  1
  H+  H354  1  0.78446629  0.53861021  0.04043854  1
  H+  H355  1  0.53141838  0.39225286  0.16894156  1
  H+  H356  1  0.83015925  0.65519748  0.73837638  1
  H+  H357  1  0.29493273  0.40650283  0.36326813  1
  H+  H358  1  0.13136088  0.77377747  0.32871835  1
  H+  H359  1  0.09373881  0.92935293  0.10749597  1
  H+  H360  1  0.16291929  0.08090166  0.60308586  1
  H+  H361  1  0.07232113  0.90863353  0.43799694  1
  H+  H362  1  0.59457655  0.66296189  0.76949875  1
  H+  H363  1  0.34631984  0.40145926  0.08413588  1
  H+  H364  1  0.38049550  0.98866732  0.14757250  1
  H+  H365  1  0.76032169  0.88120556  0.67475652  1
  H+  H366  1  0.41391417  0.32917221  0.60779180  1
  H+  H367  1  0.65469111  0.33361553  0.60372221  1
  H+  H368  1  0.13467060  0.86184122  0.50733135  1
  H+  H369  1  0.07392920  0.41735526  0.77130834  1
  H+  H370  1  0.65272559  0.07599607  0.92878690  1
  H+  H371  1  0.59905842  0.43799251  0.07998482  1
  H+  H372  1  0.08019027  0.66800608  0.40006986  1
  H+  H373  1  0.26120125  0.37671000  0.99239194  1
  H+  H374  1  0.57672199  0.90969128  0.10269137  1
  H+  H375  1  0.80830017  0.42499034  0.43173615  1
  H+  H376  1  0.27623244  0.63840079  0.35090452  1
  H+  H377  1  0.17619461  0.34419853  0.90194828  1
  H+  H378  1  0.10283264  0.38584479  0.67398486  1
  H+  H379  1  0.42418681  0.09315268  0.89883041  1
  H+  H380  1  0.68048990  0.61936400  0.54807603  1
  H+  H381  1  0.75969911  0.88089958  0.17506688  1
  H+  H382  1  0.44395797  0.59158826  0.56213861  1
  H+  H383  1  0.35013614  0.87837605  0.34549423  1
  O2-  O384  1  0.10404751  0.19904562  0.19494207  1
  O2-  O385  1  0.07739254  0.16017649  0.48139221  1
  O2-  O386  1  0.08854562  0.17181296  0.81461758  1
  O2-  O387  1  0.07768905  0.41511577  0.12043193  1
  O2-  O388  1  0.07715072  0.41564585  0.46940732  1
  O2-  O389  1  0.06929716  0.41741106  0.81665743  1
  O2-  O390  1  0.08517239  0.67663922  0.14006618  1
  O2-  O391  1  0.08381235  0.66719420  0.47847182  1
  O2-  O392  1  0.05978281  0.70661349  0.79315993  1
  O2-  O393  1  0.08777936  0.92789455  0.15275364  1
  O2-  O394  1  0.07883084  0.91409031  0.48301306  1
  O2-  O395  1  0.09202702  0.92341095  0.81304354  1
  O2-  O396  1  0.34696814  0.17031285  0.14648575  1
  O2-  O397  1  0.33866714  0.17160091  0.48966984  1
  O2-  O398  1  0.32049419  0.15362421  0.81173929  1
  O2-  O399  1  0.31980232  0.37166133  0.12258093  1
  O2-  O400  1  0.33109394  0.41836917  0.49843431  1
  O2-  O401  1  0.34527424  0.44252545  0.82072715  1
  O2-  O402  1  0.32783086  0.66774313  0.15119619  1
  O2-  O403  1  0.33738167  0.66711955  0.48826053  1
  O2-  O404  1  0.32936506  0.66854213  0.82660228  1
  O2-  O405  1  0.33854044  0.92403975  0.14942124  1
  O2-  O406  1  0.33547493  0.92499720  0.48403289  1
  O2-  O407  1  0.33582541  0.92284238  0.82150802  1
  O2-  O408  1  0.52927207  0.13346466  0.13729711  1
  O2-  O409  1  0.58485478  0.17107616  0.48003524  1
  O2-  O410  1  0.57673802  0.14447803  0.79498536  1
  O2-  O411  1  0.59311799  0.42413578  0.15524148  1
  O2-  O412  1  0.57648081  0.42361803  0.48028045  1
  O2-  O413  1  0.58524901  0.42957447  0.83024832  1
  O2-  O414  1  0.59850388  0.68627227  0.14424855  1
  O2-  O415  1  0.58098617  0.66663987  0.46872501  1
  O2-  O416  1  0.58438907  0.66285135  0.81574617  1
  O2-  O417  1  0.57475228  0.91023788  0.14799177  1
  O2-  O418  1  0.57744592  0.92351927  0.48009021  1
  O2-  O419  1  0.56450737  0.87411169  0.81293172  1
  O2-  O420  1  0.86473067  0.23807687  0.15815719  1
  O2-  O421  1  0.82869920  0.16587259  0.48544865  1
  O2-  O422  1  0.83050083  0.16398048  0.81737742  1
  O2-  O423  1  0.83164824  0.40191433  0.15061076  1
  O2-  O424  1  0.82770465  0.41682438  0.53871583  1
  O2-  O425  1  0.79338195  0.35844656  0.79404072  1
  O2-  O426  1  0.83608568  0.66673040  0.14507284  1
  O2-  O427  1  0.83781514  0.67169775  0.47074849  1
  O2-  O428  1  0.83602587  0.65705638  0.81756405  1
  O2-  O429  1  0.82655352  0.91678351  0.15831966  1
  O2-  O430  1  0.83613439  0.91826328  0.47366490  1
  O2-  O431  1  0.83154032  0.91948662  0.81251045  1
  O2-  O432  1  0.18236007  0.09588404  0.19279144  1
  O2-  O433  1  0.16743131  0.08171499  0.52280430  1
  O2-  O434  1  0.16526158  0.08302602  0.86053622  1
  O2-  O435  1  0.18763574  0.36696409  0.16565561  1
  O2-  O436  1  0.15165130  0.32630196  0.51538236  1
  O2-  O437  1  0.17222376  0.34416639  0.85719374  1
  O2-  O438  1  0.15363761  0.58701521  0.16896879  1
  O2-  O439  1  0.16510875  0.58201630  0.52142862  1
  O2-  O440  1  0.13880420  0.60294851  0.83257866  1
  O2-  O441  1  0.16978007  0.84178645  0.19065176  1
  O2-  O442  1  0.16550430  0.83158463  0.52091624  1
  O2-  O443  1  0.16531611  0.83650507  0.85693126  1
  O2-  O444  1  0.43560659  0.08995208  0.12469087  1
  O2-  O445  1  0.42439200  0.09110295  0.52902637  1
  O2-  O446  1  0.41877251  0.08939341  0.85423195  1
  O2-  O447  1  0.42698310  0.33382701  0.18809210  1
  O2-  O448  1  0.41837433  0.33372726  0.53018505  1
  O2-  O449  1  0.36640755  0.30880517  0.85849779  1
  O2-  O450  1  0.42399497  0.59930196  0.19036618  1
  O2-  O451  1  0.42075906  0.58337812  0.51977349  1
  O2-  O452  1  0.42395855  0.60041796  0.85861908  1
  O2-  O453  1  0.40973648  0.83394380  0.19315600  1
  O2-  O454  1  0.41462118  0.83834289  0.52594770  1
  O2-  O455  1  0.41023179  0.83663305  0.87047685  1
  O2-  O456  1  0.63050051  0.07153850  0.19304085  1
  O2-  O457  1  0.66681787  0.08758946  0.51994611  1
  O2-  O458  1  0.65800215  0.07771241  0.84900288  1
  O2-  O459  1  0.65915030  0.32014925  0.18109119  1
  O2-  O460  1  0.65760428  0.33215212  0.52268581  1
  O2-  O461  1  0.64614683  0.33120355  0.86843253  1
  O2-  O462  1  0.66901932  0.59341579  0.18757686  1
  O2-  O463  1  0.66788407  0.59661432  0.50683555  1
  O2-  O464  1  0.67587671  0.58894667  0.85911898  1
  O2-  O465  1  0.67636264  0.84145199  0.19199076  1
  O2-  O466  1  0.66126153  0.84128506  0.50428217  1
  O2-  O467  1  0.67384411  0.82929315  0.86125472  1
  O2-  O468  1  0.92887230  0.13285118  0.17710502  1
  O2-  O469  1  0.91383416  0.08113547  0.52189682  1
  O2-  O470  1  0.92035387  0.08319976  0.85260395  1
  O2-  O471  1  0.92277203  0.32558750  0.17977583  1
  O2-  O472  1  0.91929413  0.33451807  0.52129598  1
  O2-  O473  1  0.90248404  0.32698712  0.85765031  1
  O2-  O474  1  0.92120851  0.58347186  0.18473360  1
  O2-  O475  1  0.91648626  0.59148359  0.52160178  1
  O2-  O476  1  0.92840857  0.58840158  0.85525000  1
  O2-  O477  1  0.91577935  0.83940789  0.18134091  1
  O2-  O478  1  0.91316158  0.83122207  0.52635432  1
  O2-  O479  1  0.92064372  0.83293830  0.79918993  1
  O2-  O480  1  0.17944696  0.06547598  0.31037510  1
  O2-  O481  1  0.15976250  0.07987496  0.64833793  1
  O2-  O482  1  0.18181536  0.09265188  0.98260708  1
  O2-  O483  1  0.13573585  0.29244102  0.30169110  1
  O2-  O484  1  0.13613204  0.31409187  0.63712998  1
  O2-  O485  1  0.19646759  0.34774848  0.98782631  1
  O2-  O486  1  0.17820998  0.58912313  0.32627717  1
  O2-  O487  1  0.15709547  0.58541576  0.64828538  1
  O2-  O488  1  0.18792553  0.59741089  0.98647756  1
  O2-  O489  1  0.15930458  0.83522768  0.31536321  1
  O2-  O490  1  0.16640509  0.83518860  0.64391878  1
  O2-  O491  1  0.15908269  0.83271412  0.98293696  1
  O2-  O492  1  0.42818784  0.06273215  0.29013232  1
  O2-  O493  1  0.47870174  0.07039609  0.64538939  1
  O2-  O494  1  0.43503721  0.11200219  0.98519306  1
  O2-  O495  1  0.40599799  0.34005891  0.31136843  1
  O2-  O496  1  0.41023810  0.32620197  0.65326804  1
  O2-  O497  1  0.44617503  0.34183121  0.97730952  1
  O2-  O498  1  0.41584263  0.58887416  0.30764471  1
  O2-  O499  1  0.49451927  0.58126437  0.62258566  1
  O2-  O500  1  0.44141479  0.60086420  0.97898454  1
  O2-  O501  1  0.40749115  0.83074446  0.31600499  1
  O2-  O502  1  0.41880482  0.84221500  0.65161278  1
  O2-  O503  1  0.41244182  0.82416312  0.99228733  1
  O2-  O504  1  0.66354422  0.07391515  0.30669277  1
  O2-  O505  1  0.66398302  0.08700492  0.64057301  1
  O2-  O506  1  0.65576775  0.07677661  0.97414317  1
  O2-  O507  1  0.68202211  0.31265903  0.29417026  1
  O2-  O508  1  0.66717613  0.34065350  0.64776712  1
  O2-  O509  1  0.67072652  0.34466904  0.99177401  1
  O2-  O510  1  0.66629998  0.59740915  0.31074125  1
  O2-  O511  1  0.66303329  0.56089376  0.66954128  1
  O2-  O512  1  0.68332204  0.60631884  0.97850320  1
  O2-  O513  1  0.66118573  0.83629884  0.31006157  1
  O2-  O514  1  0.65805213  0.83682550  0.65548095  1
  O2-  O515  1  0.65783889  0.79476784  0.98880528  1
  O2-  O516  1  0.90527348  0.06286683  0.29897634  1
  O2-  O517  1  0.90964902  0.07362358  0.64435846  1
  O2-  O518  1  0.92943302  0.07427060  0.97590810  1
  O2-  O519  1  0.92086862  0.33239821  0.30045231  1
  O2-  O520  1  0.92823306  0.35362859  0.64807181  1
  O2-  O521  1  0.88993993  0.30180270  0.98376413  1
  O2-  O522  1  0.91496338  0.57799751  0.30439373  1
  O2-  O523  1  0.92045012  0.59299615  0.64567185  1
  O2-  O524  1  0.95261225  0.58451002  0.97693181  1
  O2-  O525  1  0.90581004  0.82247953  0.30414928  1
  O2-  O526  1  0.91026153  0.82803057  0.66017211  1
  O2-  O527  1  0.92690662  0.88146874  1.01993644  1
  O2-  O528  1  0.10032141  0.17869922  0.02486599  1
  O2-  O529  1  0.06677201  0.13848645  0.35660642  1
  O2-  O530  1  0.07412537  0.15667542  0.69156844  1
  O2-  O531  1  0.06324129  0.42277406  0.00186336  1
  O2-  O532  1  0.07643618  0.40515736  0.34650475  1
  O2-  O533  1  0.08221318  0.42255925  0.69223776  1
  O2-  O534  1  0.08979670  0.67783781  0.02468800  1
  O2-  O535  1  0.08284826  0.66953105  0.35455268  1
  O2-  O536  1  0.08117357  0.66896952  0.68872496  1
  O2-  O537  1  0.09664702  0.92996104  0.02843894  1
  O2-  O538  1  0.06363710  0.89989750  0.35737142  1
  O2-  O539  1  0.08742702  0.92008738  0.68980443  1
  O2-  O540  1  0.34632919  0.18897523  0.02097295  1
  O2-  O541  1  0.33627245  0.19367907  0.36700657  1
  O2-  O542  1  0.31642714  0.15139676  0.68659421  1
  O2-  O543  1  0.36514313  0.43236895  0.00633372  1
  O2-  O544  1  0.30586109  0.40473234  0.32016453  1
  O2-  O545  1  0.29780309  0.39036285  0.69335824  1
  O2-  O546  1  0.34466016  0.66500670  0.02885954  1
  O2-  O547  1  0.33829417  0.67036664  0.36488082  1
  O2-  O548  1  0.31259619  0.69042260  0.71036341  1
  O2-  O549  1  0.31328566  0.88837766  0.03578129  1
  O2-  O550  1  0.31895482  0.90828055  0.35926155  1
  O2-  O551  1  0.33035087  0.90799977  0.69428342  1
  O2-  O552  1  0.59466312  0.17654783  0.02235937  1
  O2-  O553  1  0.58901377  0.15619213  0.35801160  1
  O2-  O554  1  0.55835742  0.14540397  0.66579660  1
  O2-  O555  1  0.60310030  0.44337797  0.03428913  1
  O2-  O556  1  0.56555022  0.43921510  0.36272297  1
  O2-  O557  1  0.57004638  0.39592511  0.70630332  1
  O2-  O558  1  0.61828670  0.70759600  0.01542927  1
  O2-  O559  1  0.57671787  0.67339254  0.34831043  1
  O2-  O560  1  0.61624780  0.66387460  0.70102734  1
  O2-  O561  1  0.57713914  0.90773441  0.02270992  1
  O2-  O562  1  0.57421069  0.91497004  0.35509603  1
  O2-  O563  1  0.57845740  0.92553675  0.68524565  1
  O2-  O564  1  0.82099830  0.12532359  0.01205936  1
  O2-  O565  1  0.87333550  0.18268664  0.35886935  1
  O2-  O566  1  0.81472604  0.14730274  0.69034288  1
  O2-  O567  1  0.83039943  0.40305775  0.03395262  1
  O2-  O568  1  0.84499945  0.41861273  0.29507941  1
  O2-  O569  1  0.82535595  0.42673101  0.67727702  1
  O2-  O570  1  0.81811490  0.59849379  0.02734812  1
  O2-  O571  1  0.83131724  0.65892842  0.34688576  1
  O2-  O572  1  0.82960541  0.66010855  0.69313848  1
  O2-  O573  1  0.80566258  0.95285515  0.04732205  1
  O2-  O574  1  0.82437817  0.90316209  0.35081203  1
  O2-  O575  1  0.82227330  0.90849154  0.68773239  1
