# generated using pymatgen
data_H2O
_symmetry_space_group_name_H-M   'P 1'
_cell_length_a   17.98222555
_cell_length_b   17.96958600
_cell_length_c   21.99733984
_cell_angle_alpha   89.95730485
_cell_angle_beta   90.00813790
_cell_angle_gamma   119.96807698
_symmetry_Int_Tables_number   1
_chemical_formula_structural   H2O
_chemical_formula_sum   'H384 O192'
_cell_volume   6157.74620791
_cell_formula_units_Z   192
loop_
 _symmetry_equiv_pos_site_id
 _symmetry_equiv_pos_as_xyz
  1  'x, y, z'
loop_
 _atom_type_symbol
 _atom_type_oxidation_number
  H+  1.0
  O2-  -2.0
loop_
 _atom_site_type_symbol
 _atom_site_label
 _atom_site_symmetry_multiplicity
 _atom_site_fract_x
 _atom_site_fract_y
 _atom_site_fract_z
 _atom_site_occupancy
  H+  H0  1  0.95923474  0.59257995  0.98984475  1
  H+  H1  1  0.16471803  0.05488911  0.16769847  1
  H+  H2  1  0.66954431  0.56366613  0.31608915  1
  H+  H3  1  0.45281208  0.61959292  0.32708659  1
  H+  H4  1  0.22768821  0.37020699  -0.00281796  1
  H+  H5  1  0.23074548  0.35543771  0.84510658  1
  H+  H6  1  0.53159477  0.15622818  0.33643756  1
  H+  H7  1  0.59675350  0.36627866  0.54962860  1
  H+  H8  1  0.63553717  0.61885029  0.37136849  1
  H+  H9  1  0.41731505  0.05873450  0.17551287  1
  H+  H10  1  0.62307033  -0.01535839  0.99761124  1
  H+  H11  1  0.62031903  0.58647575  0.64789977  1
  H+  H12  1  0.90442591  0.12614286  0.51947216  1
  H+  H13  1  0.81628613  0.59153871  0.83036119  1
  H+  H14  1  0.95809110  0.58112922  0.33629250  1
  H+  H15  1  0.34346351  0.75855914  0.30704421  1
  H+  H16  1  0.22097620  0.85616682  0.99870551  1
  H+  H17  1  0.11890003  0.71880494  0.82934371  1
  H+  H18  1  0.15371512  0.62440631  0.66161032  1
  H+  H19  1  0.86849947  0.90920595  1.01519392  1
  H+  H20  1  0.61742772  0.73222161  0.01529950  1
  H+  H21  1  0.80368266  0.64618624  0.32600514  1
  H+  H22  1  0.84268106  0.57285166  0.63856115  1
  H+  H23  1  0.23916762  0.16300904  0.83153449  1
  H+  H24  1  0.22382642  0.59716631  0.83384663  1
  H+  H25  1  0.99146905  0.67837774  0.66950366  1
  H+  H26  1  1.09910585  0.62411678  0.34281776  1
  H+  H27  1  0.87346029  0.26802337  0.17624608  1
  H+  H28  1  0.61068711  0.62980049  0.83770705  1
  H+  H29  1  0.12416632  1.02023827  0.32529280  1
  H+  H30  1  0.85033384  0.43495118  0.48932589  1
  H+  H31  1  0.72990135  0.61542740  1.00202334  1
  H+  H32  1  0.47690936  0.10209079  0.02196847  1
  H+  H33  1  0.71685287  0.60925529  0.15460623  1
  H+  H34  1  0.14503694  0.35772069  0.33502332  1
  H+  H35  1  0.61750704  0.59646751  0.49652426  1
  H+  H36  1  0.85171526  0.71766927  0.16680501  1
  H+  H37  1  0.07394545  0.34676025  0.01590367  1
  H+  H38  1  0.21541581  0.47272237  0.38634122  1
  H+  H39  1  0.16248468  0.76642812  0.13657313  1
  H+  H40  1  0.36107978  0.64417969  0.15761538  1
  H+  H41  1  0.49603746  0.59817982  0.66908281  1
  H+  H42  1  0.64247446  0.62038157  1.00693385  1
  H+  H43  1  0.83662432  0.68992204  0.82361646  1
  H+  H44  1  0.99006247  0.11303409  0.79741407  1
  H+  H45  1  0.15508851  0.05162545  0.97273432  1
  H+  H46  1  0.37014909  0.13797609  0.35438506  1
  H+  H47  1  0.66044229  0.36671123  0.84310771  1
  H+  H48  1  0.47506681  0.59906565  0.82693571  1
  H+  H49  1  0.26968636  0.62912627  0.66290794  1
  H+  H50  1  1.00917455  0.84776177  0.67190372  1
  H+  H51  1  0.74729358  0.13074102  0.19574564  1
  H+  H52  1  0.25951887  0.63544361  0.33791438  1
  H+  H53  1  0.38169838  0.26633298  0.65184740  1
  H+  H54  1  0.52415447  0.36812162  0.63078296  1
  H+  H55  1  -0.00214279  0.67570982  0.63584781  1
  H+  H56  1  0.88134374  0.52938468  0.83734852  1
  H+  H57  1  0.94934391  0.45559185  0.53661483  1
  H+  H58  1  0.21619585  0.37170846  0.17330108  1
  H+  H59  1  0.61372252  0.45583902  0.62828503  1
  H+  H60  1  0.22912088  0.61527250  0.98700661  1
  H+  H61  1  0.63696655  0.89463566  0.33648300  1
  H+  H62  1  0.49980365  1.13157446  0.50036147  1
  H+  H63  1  0.76936829  0.88394496  0.84464007  1
  H+  H64  1  0.87634411  0.24123475  0.67259404  1
  H+  H65  1  0.48833869  0.88730622  0.82431070  1
  H+  H66  1  0.85719757  0.62445646  0.00831101  1
  H+  H67  1  0.42537515  0.09019505  0.87761258  1
  H+  H68  1  0.36443364  0.38751466  0.00671842  1
  H+  H69  1  0.81779518  0.47727013  1.02544126  1
  H+  H70  1  0.03867751  0.82379479  0.14805784  1
  H+  H71  1  0.63321769  0.99279840  0.81685552  1
  H+  H72  1  0.87686751  0.44504344  0.73381446  1
  H+  H73  1  0.12336760  0.11440338  0.32563203  1
  H+  H74  1  0.12132915  0.47472781  0.83200304  1
  H+  H75  1  0.19933217  0.75966265  0.68922370  1
  H+  H76  1  0.51281515  0.62835797  0.49930599  1
  H+  H77  1  0.82341962  0.35978769  0.17875538  1
  H+  H78  1  0.87323466  0.86165336  0.34096387  1
  H+  H79  1  0.71176491  0.87438595  0.33952449  1
  H+  H80  1  0.63727264  0.76479393  0.51157269  1
  H+  H81  1  0.89839159  1.03674743  0.67339899  1
  H+  H82  1  0.39031773  0.29796777  0.17336098  1
  H+  H83  1  0.11332083  0.23563893  0.15942469  1
  H+  H84  1  0.87493900  0.78294266  0.50523712  1
  H+  H85  1  0.40309219  0.89262368  0.15211339  1
  H+  H86  1  0.36779737  0.50144332  0.65645742  1
  H+  H87  1  0.52886237  0.35641563  0.87817861  1
  H+  H88  1  0.62915580  -0.01602075  0.62730728  1
  H+  H89  1  0.84261848  0.49255576  0.18624708  1
  H+  H90  1  0.36883040  0.47775182  1.01153790  1
  H+  H91  1  0.71421819  0.51450282  0.28851486  1
  H+  H92  1  0.48496516  0.86157012  0.97902989  1
  H+  H93  1  0.86104013  0.98301051  0.50994164  1
  H+  H94  1  0.37659809  0.24280958  0.82355034  1
  H+  H95  1  0.86884670  0.83269346  0.83883223  1
  H+  H96  1  0.75242174  0.65319265  0.48062310  1
  H+  H97  1  0.94349726  0.11522270  0.90611734  1
  H+  H98  1  0.35595346  0.47464234  0.33975140  1
  H+  H99  1  0.61059023  0.98017574  0.14450613  1
  H+  H100  1  0.95448486  0.36139784  0.18110537  1
  H+  H101  1  0.37651075  0.51611899  0.50344226  1
  H+  H102  1  0.63627671  0.77539064  0.84674324  1
  H+  H103  1  0.19517808  0.87427807  0.17509974  1
  H+  H104  1  0.61302383  0.48767430  0.00802960  1
  H+  H105  1  0.09453759  0.38566300  0.16629912  1
  H+  H106  1  0.35735437  0.62588189  0.66503910  1
  H+  H107  1  0.26219797  0.12637026  0.50567683  1
  H+  H108  1  0.93754415  0.33896777  0.61422844  1
  H+  H109  1  0.73052434  0.34501959  0.67354208  1
  H+  H110  1  0.55166607  0.16416787  0.16834883  1
  H+  H111  1  0.34355364  0.37669774  0.49332881  1
  H+  H112  1  0.88143353  0.89997317  0.68142872  1
  H+  H113  1  0.76064214  0.21080099  0.50287284  1
  H+  H114  1  0.86852115  0.14046071  0.67287340  1
  H+  H115  1  1.02905661  0.14308889  0.15767033  1
  H+  H116  1  0.14712545  0.15275075  0.81890711  1
  H+  H117  1  0.60693865  0.63768523  0.16407320  1
  H+  H118  1  0.38698652  0.85938365  0.50033463  1
  H+  H119  1  0.89672665  0.36201478  0.67305387  1
  H+  H120  1  0.41410068  0.14566222  0.17805031  1
  H+  H121  1  0.97648551  0.54898508  0.50888150  1
  H+  H122  1  0.46814740  0.61473363  0.17424356  1
  H+  H123  1  0.37973507  0.60737736  0.50378265  1
  H+  H124  1  0.35100684  0.39397775  0.16694178  1
  H+  H125  1  0.39765853  0.28326823  0.98963876  1
  H+  H126  1  0.36861114  0.26029372  0.50495474  1
  H+  H127  1  0.88231658  0.62363816  0.49912298  1
  H+  H128  1  0.87335031  0.76337513  0.66128993  1
  H+  H129  1  0.64613004  0.11863984  0.99191123  1
  H+  H130  1  0.64114111  0.86764358  0.99409195  1
  H+  H131  1  0.01669794  0.89681036  0.34782134  1
  H+  H132  1  0.40836976  0.04071726  0.32677770  1
  H+  H133  1  0.15249567  0.89378568  0.63556911  1
  H+  H134  1  0.72422602  0.85448779  -0.00077065  1
  H+  H135  1  0.90105859  1.03150911  0.32334269  1
  H+  H136  1  0.15383119  0.51352848  0.51457978  1
  H+  H137  1  0.26069073  0.39101815  0.49445481  1
  H+  H138  1  0.35399954  -0.02474916  0.81144571  1
  H+  H139  1  0.34939740  0.61450266  0.80399071  1
  H+  H140  1  0.38892761  0.01617072  1.00356259  1
  H+  H141  1  0.14232414  0.27657960  -0.00580635  1
  H+  H142  1  0.81867186  0.23076875  0.43898058  1
  H+  H143  1  0.62149186  0.50895894  0.49445283  1
  H+  H144  1  0.61004741  0.21710237  1.00338745  1
  H+  H145  1  0.85074130  0.88528094  0.17240797  1
  H+  H146  1  0.91585891  0.31855448  0.51673719  1
  H+  H147  1  0.10672286  0.12336033  0.49968887  1
  H+  H148  1  0.30998512  0.88659168  0.73185187  1
  H+  H149  1  0.98690304  0.11447289  0.51390283  1
  H+  H150  1  0.78853927  0.14696804  0.82230873  1
  H+  H151  1  0.10465158  0.87697345  0.48955718  1
  H+  H152  1  0.44343407  0.32894833  0.33075561  1
  H+  H153  1  0.66666359  0.05274319  0.22750642  1
  H+  H154  1  0.13113673  0.27677013  0.66365492  1
  H+  H155  1  0.07605821  0.88873823  0.76860435  1
  H+  H156  1  0.34397554  0.89011194  0.32613763  1
  H+  H157  1  0.33120059  0.12242865  0.66751982  1
  H+  H158  1  0.88075215  0.17034765  0.32853643  1
  H+  H159  1  0.34087761  0.20667632  0.35171579  1
  H+  H160  1  0.74804665  0.34765384  0.33623220  1
  H+  H161  1  0.21663705  0.84819993  0.84073455  1
  H+  H162  1  0.66870386  0.11533468  0.55818361  1
  H+  H163  1  0.22429325  0.61314533  0.17425749  1
  H+  H164  1  0.26834208  0.36156483  0.66540273  1
  H+  H165  1  0.61092241  0.74739332  0.66232197  1
  H+  H166  1  0.28730572  0.15306755  0.00239098  1
  H+  H167  1  0.89608272  1.03591626  0.81613073  1
  H+  H168  1  0.37157858  1.00712216  0.50825043  1
  H+  H169  1  0.72100488  1.03702938  0.59757570  1
  H+  H170  1  0.26549000  0.87044971  0.48379881  1
  H+  H171  1  0.36660668  0.34941430  0.33372127  1
  H+  H172  1  0.10122760  0.71877582  0.00514764  1
  H+  H173  1  0.54229571  0.11732218  0.67478941  1
  H+  H174  1  0.88672937  0.02543112  0.17290646  1
  H+  H175  1  0.62882842  0.20701916  0.66963261  1
  H+  H176  1  0.61831719  0.46938762  0.14761394  1
  H+  H177  1  0.46170934  0.38289169  0.83168418  1
  H+  H178  1  0.13912184  0.82395928  0.28416268  1
  H+  H179  1  0.39687172  0.77024853  -0.01952402  1
  H+  H180  1  0.26917481  0.90763864  0.33997542  1
  H+  H181  1  0.64837364  0.34238985  0.64540843  1
  H+  H182  1  0.12704118  1.01108674  0.51942151  1
  H+  H183  1  0.56491815  0.23085014  0.49094718  1
  H+  H184  1  0.80785192  0.99579394  0.37543649  1
  H+  H185  1  0.84992734  0.58346352  0.48310514  1
  H+  H186  1  0.63077215  0.86610708  0.17625063  1
  H+  H187  1  0.75914516  0.62373121  0.66337418  1
  H+  H188  1  0.82019428  0.89429683  0.07790729  1
  H+  H189  1  0.36482308  0.89285499  0.81902531  1
  H+  H190  1  0.36834678  0.87296421  -0.01981305  1
  H+  H191  1  0.60872458  0.72855775  0.17176250  1
  H+  H192  1  0.16537459  0.57837676  0.60154262  1
  H+  H193  1  0.11806903  0.22578212  0.34174789  1
  H+  H194  1  0.37630738  0.52686229  0.17090978  1
  H+  H195  1  0.09095000  0.70876987  0.34971311  1
  H+  H196  1  0.87963049  0.14629605  0.81237394  1
  H+  H197  1  0.36053729  0.73317409  0.15056468  1
  H+  H198  1  0.13833215  0.61030798  0.98526882  1
  H+  H199  1  0.34819353  0.63633896  0.33104048  1
  H+  H200  1  0.85916997  0.94028072  0.87711782  1
  H+  H201  1  0.63319308  0.16703187  0.51646563  1
  H+  H202  1  0.65920868  0.57402928  0.58532266  1
  H+  H203  1  1.01864254  0.37294458  0.52829152  1
  H+  H204  1  0.63505396  0.15530850  0.17496719  1
  H+  H205  1  0.03731320  0.38802491  0.68581149  1
  H+  H206  1  0.51552783  0.87813079  0.66896576  1
  H+  H207  1  0.14690414  0.13369187  0.17759242  1
  H+  H208  1  0.29428271  0.16004355  0.16554882  1
  H+  H209  1  0.36790816  0.09409556  0.51715764  1
  H+  H210  1  0.14045000  0.52091310  0.33357204  1
  H+  H211  1  0.90826102  0.75455940  -0.01372713  1
  H+  H212  1  0.12191718  0.47951666  0.68161505  1
  H+  H213  1  0.57903918  0.41501932  0.33929149  1
  H+  H214  1  0.09430477  0.47331390  0.15969059  1
  H+  H215  1  0.80448967  0.32897851  0.47536303  1
  H+  H216  1  0.35026805  0.44670172  0.81780087  1
  H+  H217  1  0.65795750  0.12757231  0.83120801  1
  H+  H218  1  1.00977240  0.85790525  0.82175143  1
  H+  H219  1  0.83115262  0.16299749  0.10326893  1
  H+  H220  1  0.12786341  0.15189534  0.00062877  1
  H+  H221  1  0.55343963  0.95027591  0.36819497  1
  H+  H222  1  0.25583587  0.14664101  0.67107805  1
  H+  H223  1  0.14440509  0.62583583  0.17459102  1
  H+  H224  1  0.39144122  -0.00015211  0.66446616  1
  H+  H225  1  0.87190904  0.30237282  0.33805169  1
  H+  H226  1  0.88115746  0.15065753  -0.00694100  1
  H+  H227  1  0.90449567  0.27682201  0.82465174  1
  H+  H228  1  0.02555200  0.14153998  0.34183954  1
  H+  H229  1  0.58629358  0.92130501  0.72262522  1
  H+  H230  1  0.62291067  0.89940780  0.82073866  1
  H+  H231  1  0.33484460  0.67159835  0.06054465  1
  H+  H232  1  0.83573180  0.44035276  0.33851680  1
  H+  H233  1  0.92806292  0.58979630  0.74866020  1
  H+  H234  1  0.51749856  0.39275162  0.00285581  1
  H+  H235  1  0.59653740  0.59085729  0.35207443  1
  H+  H236  1  0.95358281  0.85082730  0.18546365  1
  H+  H237  1  0.88323430  0.64262577  0.34755290  1
  H+  H238  1  0.62750791  0.33035884  0.94617633  1
  H+  H239  1  0.47785992  0.86129814  0.50657147  1
  H+  H240  1  0.55278834  0.15338543  0.81731353  1
  H+  H241  1  0.99151904  0.13173799  0.96973801  1
  H+  H242  1  0.18220511  0.95084113  0.12214324  1
  H+  H243  1  0.01720406  0.88136837  0.49670812  1
  H+  H244  1  0.73744027  0.12417995  0.99084829  1
  H+  H245  1  0.11915103  0.86245118  0.34154264  1
  H+  H246  1  0.14230705  0.36835919  0.84568707  1
  H+  H247  1  0.49614501  0.72400239  0.39345782  1
  H+  H248  1  1.05201320  0.83695573  0.18072646  1
  H+  H249  1  0.67690762  0.29117884  0.17104610  1
  H+  H250  1  0.09096391  0.17394378  0.06098505  1
  H+  H251  1  0.84960703  0.45509751  0.66793946  1
  H+  H252  1  0.66493640  1.07850919  0.36090250  1
  H+  H253  1  0.36978036  0.63875169  1.00679689  1
  H+  H254  1  0.92875540  0.34424434  0.88442620  1
  H+  H255  1  0.89182612  0.87577490  0.51542557  1
  H+  H256  1  0.60274474  0.30585966  0.33136249  1
  H+  H257  1  0.36516530  0.72708706  0.48985406  1
  H+  H258  1  0.07872775  0.92535253  0.40635483  1
  H+  H259  1  0.88888292  0.78134902  0.33703798  1
  H+  H260  1  0.76553453  0.89151647  0.17089691  1
  H+  H261  1  0.34332650  0.85467940  0.67334245  1
  H+  H262  1  0.23170655  0.60938202  0.50655960  1
  H+  H263  1  0.30815753  0.92870515  0.13281847  1
  H+  H264  1  0.38405824  0.76259084  0.65446931  1
  H+  H265  1  0.70461607  0.59235876  0.84501975  1
  H+  H266  1  0.05808140  0.79930993  0.69198702  1
  H+  H267  1  0.12737864  0.76034957  0.50682476  1
  H+  H268  1  0.07981862  0.65770665  0.05934826  1
  H+  H269  1  0.12071990  0.11989160  0.68890738  1
  H+  H270  1  0.69689230  0.35437172  -0.00214751  1
  H+  H271  1  0.88124979  0.54756526  0.93981566  1
  H+  H272  1  0.17485175  0.84630185  1.06040260  1
  H+  H273  1  0.57848489  0.75678913  0.35291700  1
  H+  H274  1  0.60950781  0.44959744  0.87924052  1
  H+  H275  1  0.10990461  0.61793046  0.49735475  1
  H+  H276  1  0.61664573  0.83859279  0.66164346  1
  H+  H277  1  0.39607269  0.12658310  0.82336918  1
  H+  H278  1  0.38712900  0.35747798  0.65554583  1
  H+  H279  1  0.77298108  0.88962980  0.50857675  1
  H+  H280  1  0.78113011  0.41336120  0.08150850  1
  H+  H281  1  0.86404783  0.29530036  -0.03540278  1
  H+  H282  1  0.13040344  0.90979953  0.00066048  1
  H+  H283  1  0.15510508  0.57303604  0.26957153  1
  H+  H284  1  0.70419737  0.13815486  0.30183171  1
  H+  H285  1  0.52109677  0.89356631  0.15114713  1
  H+  H286  1  0.96006491  0.35876020  -0.02120050  1
  H+  H287  1  0.01004326  0.17002076  0.69777111  1
  H+  H288  1  0.39048812  1.00432542  0.09374357  1
  H+  H289  1  0.99201058  0.78056841  0.94883234  1
  H+  H290  1  0.40412970  0.84332132  0.21200277  1
  H+  H291  1  0.22743445  0.35259862  0.32528579  1
  H+  H292  1  0.16533326  0.18585840  0.63642607  1
  H+  H293  1  0.66629289  0.57198710  0.21404758  1
  H+  H294  1  0.31822517  0.39013831  0.72927626  1
  H+  H295  1  0.60900130  0.16662862  0.75813531  1
  H+  H296  1  0.92014720  0.08964942  0.22937319  1
  H+  H297  1  0.66353186  0.83516594  0.90531806  1
  H+  H298  1  0.85953339  0.93038333  0.74248504  1
  H+  H299  1  0.79070820  0.45665146  0.85930368  1
  H+  H300  1  0.07942367  0.15685335  0.44091923  1
  H+  H301  1  0.60049594  0.17032167  0.06781302  1
  H+  H302  1  0.15974142  0.31845560  0.59651269  1
  H+  H303  1  0.33926140  0.18286535  0.76316146  1
  H+  H304  1  0.89806856  0.82854770  0.24498029  1
  H+  H305  1  0.90247531  0.29454768  0.27382408  1
  H+  H306  1  0.13194360  0.42365519  0.42432850  1
  H+  H307  1  0.68991556  0.30335873  0.82080917  1
  H+  H308  1  0.84797437  0.62604687  0.16514895  1
  H+  H309  1  0.68516795  0.09539336  0.89144004  1
  H+  H310  1  0.58967528  0.67703783  0.07840444  1
  H+  H311  1  0.44057575  0.10650686  0.26964771  1
  H+  H312  1  0.61708590  0.95951467  0.52611702  1
  H+  H313  1  0.61618723  0.87660300  0.50324827  1
  H+  H314  1  0.39170248  0.56535602  0.86845576  1
  H+  H315  1  0.53582252  0.57157418  0.72188682  1
  H+  H316  1  0.58721773  0.41534983  0.06711086  1
  H+  H317  1  0.49268192  0.62028574  0.01310448  1
  H+  H318  1  0.23950422  0.89313363  0.63722630  1
  H+  H319  1  0.82055266  0.68960517  0.42687004  1
  H+  H320  1  0.28500866  0.77678570  0.26408903  1
  H+  H321  1  0.81081545  0.64228572  0.72535283  1
  H+  H322  1  0.44775325  0.59341331  0.95050366  1
  H+  H323  1  0.65894507  0.81677299  0.57400441  1
  H+  H324  1  0.60969064  0.95273832  0.42364537  1
  H+  H325  1  0.58611423  0.92176802  0.05533714  1
  H+  H326  1  0.56647981  0.66988982  0.43989800  1
  H+  H327  1  0.12461494  0.62981712  0.82705362  1
  H+  H328  1  0.41191206  0.82734123  0.59797678  1
  H+  H329  1  0.13142299  0.69008555  0.73469817  1
  H+  H330  1  0.36840247  0.14119449  0.01736414  1
  H+  H331  1  0.15933167  0.08628175  0.25844267  1
  H+  H332  1  0.83754592  0.66671856  0.06642261  1
  H+  H333  1  0.80004015  0.38793476  0.42156918  1
  H+  H334  1  0.93534937  0.57042365  0.18125387  1
  H+  H335  1  0.91064104  0.82790490  0.60457035  1
  H+  H336  1  0.65972687  0.58312718  0.91043313  1
  H+  H337  1  0.91390573  0.23644557  0.02806360  1
  H+  H338  1  0.65606282  0.84332328  0.24063015  1
  H+  H339  1  0.59815990  0.67236619  0.77708922  1
  H+  H340  1  0.42726987  0.84439882  0.88092213  1
  H+  H341  1  0.91007006  0.79990934  0.88925856  1
  H+  H342  1  0.31706222  0.65359213  0.75463058  1
  H+  H343  1  0.40220878  0.58113102  0.26374170  1
  H+  H344  1  0.92641058  0.09423686  0.61170357  1
  H+  H345  1  0.83764085  0.17395206  0.73330530  1
  H+  H346  1  0.00639757  0.36968546  0.82773709  1
  H+  H347  1  0.32392363  0.41899179  0.10384782  1
  H+  H348  1  0.42256850  0.34325781  0.92866957  1
  H+  H349  1  0.17309497  0.84608671  0.55056466  1
  H+  H350  1  0.32609227  0.41663229  0.40128123  1
  H+  H351  1  0.13025007  0.97768267  0.07766302  1
  H+  H352  1  0.34638995  0.18483949  0.10324283  1
  H+  H353  1  0.82149260  0.93389792  0.41888967  1
  H+  H354  1  1.00463820  0.59785476  0.78926653  1
  H+  H355  1  0.09916729  0.41726536  0.76846388  1
  H+  H356  1  0.87435180  0.52890235  0.58831990  1
  H+  H357  1  0.89499111  0.55529611  0.27885804  1
  H+  H358  1  0.07033186  0.69784990  0.15994373  1
  H+  H359  1  0.32271310  0.15227205  0.44579046  1
  H+  H360  1  0.06770980  0.64039904  0.44149209  1
  H+  H361  1  0.55353547  0.36750691  0.40220530  1
  H+  H362  1  0.86645595  0.13634285  0.16088986  1
  H+  H363  1  0.04342016  0.90746901  -0.01019988  1
  H+  H364  1  0.40352639  0.32643827  0.56038097  1
  H+  H365  1  0.16946481  0.57436476  0.89832891  1
  H+  H366  1  0.54409656  0.37285379  0.75478620  1
  H+  H367  1  0.64090986  0.39402934  0.14418650  1
  H+  H368  1  0.14895999  0.07624401  0.57656007  1
  H+  H369  1  0.63860843  0.16878146  0.34975224  1
  H+  H370  1  0.34105179  0.89409092  0.04219844  1
  H+  H371  1  0.39428065  0.33707082  0.23776677  1
  H+  H372  1  0.56627175  0.42118485  0.75532214  1
  H+  H373  1  0.49342681  0.36228545  0.49114774  1
  H+  H374  1  0.17201732  0.34052538  0.91352549  1
  H+  H375  1  0.34963746  0.35827037  0.83202644  1
  H+  H376  1  0.03611729  0.37214190  0.07262529  1
  H+  H377  1  0.15852242  0.33467439  0.23314583  1
  H+  H378  1  0.18501522  0.12767217  0.92276809  1
  H+  H379  1  0.33148714  0.91315650  0.42862021  1
  H+  H380  1  0.41702376  0.05994285  0.60745426  1
  H+  H381  1  0.40074958  0.56394732  0.59714766  1
  H+  H382  1  0.12548284  0.84112955  0.84204198  1
  H+  H383  1  0.33035589  0.66868100  0.42976365  1
  O2-  O384  1  0.09011939  0.17525641  0.14436491  1
  O2-  O385  1  0.07470924  0.15225686  0.48557417  1
  O2-  O386  1  0.06842576  0.13714074  0.75560060  1
  O2-  O387  1  0.05995621  0.41118475  0.15034128  1
  O2-  O388  1  0.11778933  0.40452994  0.49978993  1
  O2-  O389  1  0.09387999  0.41208270  0.81579395  1
  O2-  O390  1  0.11987285  0.70080366  0.13960224  1
  O2-  O391  1  0.06912111  0.63849966  0.48661774  1
  O2-  O392  1  0.09860624  0.66164921  0.80723694  1
  O2-  O393  1  0.15488431  0.98691775  0.11925803  1
  O2-  O394  1  0.07731608  0.91255406  0.47992166  1
  O2-  O395  1  0.07196074  0.89028286  0.81337078  1
  O2-  O396  1  0.35292991  0.18788321  0.14847361  1
  O2-  O397  1  0.32314971  0.15641273  0.49178009  1
  O2-  O398  1  0.34461806  0.18132006  0.80788787  1
  O2-  O399  1  0.32043105  0.42407584  0.14867318  1
  O2-  O400  1  0.32024233  0.41330164  0.47782819  1
  O2-  O401  1  0.31352712  0.38371917  0.81258676  1
  O2-  O402  1  0.32829337  0.67118999  0.14054949  1
  O2-  O403  1  0.33467728  0.66607384  0.47469281  1
  O2-  O404  1  0.31500779  0.64257847  0.79921396  1
  O2-  O405  1  0.37567195  0.96661919  0.13036504  1
  O2-  O406  1  0.32819965  0.90378803  0.47323807  1
  O2-  O407  1  0.32351897  0.91248750  0.80467898  1
  O2-  O408  1  0.61148559  0.18661956  0.15257944  1
  O2-  O409  1  0.55765398  0.17363334  0.48381067  1
  O2-  O410  1  0.61292678  0.17698661  0.80442744  1
  O2-  O411  1  0.59945820  0.41141861  0.13038569  1
  O2-  O412  1  0.55590750  0.39166083  0.47414601  1
  O2-  O413  1  0.59117051  0.38852366  0.88664855  1
  O2-  O414  1  0.57697018  0.67017829  0.15325155  1
  O2-  O415  1  0.57321034  0.65864006  0.48305427  1
  O2-  O416  1  0.58415480  0.66414804  0.82057566  1
  O2-  O417  1  0.58297778  0.91852886  0.13718510  1
  O2-  O418  1  0.59174594  0.91508061  0.49324242  1
  O2-  O419  1  0.59963366  0.93285576  0.80080113  1
  O2-  O420  1  0.83161866  0.16366215  0.14836303  1
  O2-  O421  1  0.81964055  0.25452723  0.47891529  1
  O2-  O422  1  0.84810967  0.17879661  0.80312589  1
  O2-  O423  1  0.79478472  0.39238921  0.16229040  1
  O2-  O424  1  0.79772339  0.38290425  0.46865811  1
  O2-  O425  1  0.83640876  0.51703164  0.86903796  1
  O2-  O426  1  0.82612838  0.66131829  0.14559106  1
  O2-  O427  1  0.80000076  0.70638958  0.46295545  1
  O2-  O428  1  0.79884962  0.62969916  0.80891797  1
  O2-  O429  1  0.82561433  0.91894305  0.15490863  1
  O2-  O430  1  0.83233046  0.92451631  0.49128209  1
  O2-  O431  1  0.83394677  0.91317600  0.83817215  1
  O2-  O432  1  0.17824650  0.10546786  0.19566336  1
  O2-  O433  1  0.15628723  0.07255079  0.53235230  1
  O2-  O434  1  0.18918902  0.16210178  0.85121357  1
  O2-  O435  1  0.15510030  0.33851325  0.18808412  1
  O2-  O436  1  0.16302271  0.37014830  0.52520875  1
  O2-  O437  1  0.17160232  0.33816745  0.86560726  1
  O2-  O438  1  0.16466373  0.58725500  0.19072643  1
  O2-  O439  1  0.17192691  0.57514975  0.52243581  1
  O2-  O440  1  0.16401131  0.56745907  0.85225521  1
  O2-  O441  1  0.21422371  0.86843382  0.13488928  1
  O2-  O442  1  0.16023835  0.82389758  0.50672635  1
  O2-  O443  1  0.15758270  0.81229547  0.85673146  1
  O2-  O444  1  0.44594662  0.11725161  0.19438425  1
  O2-  O445  1  0.40051105  0.06447766  0.52817353  1
  O2-  O446  1  0.42613248  0.09323260  0.83340702  1
  O2-  O447  1  0.40256425  0.35198309  0.19385148  1
  O2-  O448  1  0.39993245  0.32406805  0.51460904  1
  O2-  O449  1  0.41716396  0.33732460  0.85633352  1
  O2-  O450  1  0.40685810  0.58766694  0.18715501  1
  O2-  O451  1  0.40826968  0.57606576  0.52032188  1
  O2-  O452  1  0.41101207  0.55966211  0.82830690  1
  O2-  O453  1  0.42030940  0.85101711  0.16836551  1
  O2-  O454  1  0.41579137  0.82833571  0.51737185  1
  O2-  O455  1  0.42757099  0.85749169  0.83731233  1
  O2-  O456  1  0.69591293  0.11495173  0.22257494  1
  O2-  O457  1  0.68557696  0.16854776  0.53520460  1
  O2-  O458  1  0.68966602  0.09690081  0.84639152  1
  O2-  O459  1  0.70677132  0.35225050  0.18697217  1
  O2-  O460  1  0.59583998  0.34808748  0.50568677  1
  O2-  O461  1  0.70987874  0.36513677  0.82471374  1
  O2-  O462  1  0.65654213  0.57663548  0.17033760  1
  O2-  O463  1  0.65196532  0.56909113  0.50891392  1
  O2-  O464  1  0.64759364  0.57048100  0.86618707  1
  O2-  O465  1  0.65979139  0.83747584  0.19586669  1
  O2-  O466  1  0.66627792  0.82437349  0.52809799  1
  O2-  O467  1  0.66677971  0.83649987  0.85953809  1
  O2-  O468  1  0.92010088  0.08778045  0.18419447  1
  O2-  O469  1  0.92633311  0.08946634  0.53395224  1
  O2-  O470  1  0.93494605  0.09766153  0.82267595  1
  O2-  O471  1  0.89413068  0.32512421  0.19594492  1
  O2-  O472  1  0.96150326  0.36417141  0.54233856  1
  O2-  O473  1  0.93837359  0.33953112  0.83810281  1
  O2-  O474  1  0.87976192  0.55476672  0.19908151  1
  O2-  O475  1  0.92711744  0.49513678  0.52642333  1
  O2-  O476  1  0.94265108  0.55635020  0.77600456  1
  O2-  O477  1  0.89403175  0.82245611  0.19954191  1
  O2-  O478  1  0.91642486  0.83854315  0.52618734  1
  O2-  O479  1  0.89460122  0.79578402  0.84530136  1
  O2-  O480  1  0.14997120  0.07984478  0.30679590  1
  O2-  O481  1  0.15642619  0.12997652  0.65148073  1
  O2-  O482  1  0.18666611  0.11510593  0.96733070  1
  O2-  O483  1  0.16534521  0.32282722  0.31287548  1
  O2-  O484  1  0.17552053  0.29423649  0.63165991  1
  O2-  O485  1  0.16777552  0.33885616  0.98051864  1
  O2-  O486  1  0.15584525  0.57726440  0.31508793  1
  O2-  O487  1  0.16784427  0.57944689  0.64678366  1
  O2-  O488  1  0.17007485  0.58201621  0.97062211  1
  O2-  O489  1  0.14707386  0.82840633  0.32810344  1
  O2-  O490  1  0.20163171  0.90324137  0.60967097  1
  O2-  O491  1  0.16290166  0.83681136  1.01580187  1
  O2-  O492  1  0.44344018  0.10247427  0.31538011  1
  O2-  O493  1  0.42134644  0.06061735  0.65261181  1
  O2-  O494  1  0.41279911  0.07039206  1.02715844  1
  O2-  O495  1  0.38448320  0.30951367  0.31618199  1
  O2-  O496  1  0.41374998  0.32638821  0.63555696  1
  O2-  O497  1  0.42546492  0.34445490  0.97564018  1
  O2-  O498  1  0.39586710  0.57884313  0.30940463  1
  O2-  O499  1  0.40114056  0.56286841  0.64275128  1
  O2-  O500  1  0.43325896  0.58836183  0.99345891  1
  O2-  O501  1  0.34256536  0.80509834  0.28169353  1
  O2-  O502  1  0.41249338  0.82532463  0.64321115  1
  O2-  O503  1  0.42586012  0.82906262  0.96207128  1
  O2-  O504  1  0.69088721  0.13906788  0.34580078  1
  O2-  O505  1  0.66122433  0.02050951  0.59080090  1
  O2-  O506  1  0.67872213  0.09133289  0.97454140  1
  O2-  O507  1  0.63397047  0.27598810  0.31562620  1
  O2-  O508  1  0.67985776  0.31067860  0.64810673  1
  O2-  O509  1  0.65639113  0.30662322  0.97066098  1
  O2-  O510  1  0.71195550  0.56767244  0.28619434  1
  O2-  O511  1  0.65898232  0.56735050  0.63068001  1
  O2-  O512  1  0.66775453  0.58635671  0.98954638  1
  O2-  O513  1  0.65327638  0.85232714  0.32187901  1
  O2-  O514  1  0.64435035  0.80579134  0.64671287  1
  O2-  O515  1  0.66520417  0.83027458  0.98128777  1
  O2-  O516  1  0.92446529  0.09150324  0.30886744  1
  O2-  O517  1  0.91885674  0.09665398  0.65663114  1
  O2-  O518  1  0.93489923  0.11227193  0.95072353  1
  O2-  O519  1  0.89946171  0.27497178  0.31644578  1
  O2-  O520  1  0.92586652  0.32818856  0.65919350  1
  O2-  O521  1  0.91242780  0.34973371  0.95068092  1
  O2-  O522  1  0.89627832  0.55292942  0.32401472  1
  O2-  O523  1  0.83671987  0.51844811  0.62353577  1
  O2-  O524  1  0.89626055  0.56473543  0.98347259  1
  O2-  O525  1  0.90951434  0.84171694  0.32211130  1
  O2-  O526  1  0.91097942  0.82514116  0.65006106  1
  O2-  O527  1  0.95323110  0.80165819  0.95995690  1
  O2-  O528  1  0.09325988  0.17822467  0.01587401  1
  O2-  O529  1  0.08570407  0.16375922  0.35578855  1
  O2-  O530  1  0.05985813  0.20583635  0.72494450  1
  O2-  O531  1  0.02089721  0.34253017  0.03252507  1
  O2-  O532  1  0.15315873  0.44329637  0.38130354  1
  O2-  O533  1  0.09724608  0.42130885  0.70041795  1
  O2-  O534  1  0.07201608  0.65634534  0.01475271  1
  O2-  O535  1  0.06342741  0.64717569  0.36056904  1
  O2-  O536  1  0.14541581  0.70389659  0.69060527  1
  O2-  O537  1  0.10350731  0.94709834  0.00144013  1
  O2-  O538  1  0.07833948  0.92612971  0.35996083  1
  O2-  O539  1  0.06612791  0.85693723  0.68733348  1
  O2-  O540  1  0.34501805  0.18065027  0.02244785  1
  O2-  O541  1  0.32771419  0.15159274  0.37130590  1
  O2-  O542  1  0.31738854  0.16596775  0.68142279  1
  O2-  O543  1  0.33289864  0.41620017  0.02271030  1
  O2-  O544  1  0.32666820  0.41459759  0.35561065  1
  O2-  O545  1  0.32618923  0.39935980  0.68462003  1
  O2-  O546  1  0.33950852  0.67104676  0.01531402  1
  O2-  O547  1  0.32238529  0.67049857  0.34777462  1
  O2-  O548  1  0.33154773  0.66147930  0.67703670  1
  O2-  O549  1  0.33556150  0.89987385  -0.00154510  1
  O2-  O550  1  0.33121896  0.93114923  0.34757095  1
  O2-  O551  1  0.30038495  0.87088177  0.68727769  1
  O2-  O552  1  0.58669912  0.15834562  0.02404772  1
  O2-  O553  1  0.59498251  0.19817491  0.35359694  1
  O2-  O554  1  0.60272861  0.14823480  0.68825479  1
  O2-  O555  1  0.57957498  0.42416661  0.01978289  1
  O2-  O556  1  0.55090249  0.35751309  0.35659242  1
  O2-  O557  1  0.58587746  0.39296158  0.62001299  1
  O2-  O558  1  0.59073778  0.67257154  0.03276975  1
  O2-  O559  1  0.53130048  0.70412980  0.37318071  1
  O2-  O560  1  0.55292228  0.61521802  0.69030965  1
  O2-  O561  1  0.59024621  0.92273121  0.01034361  1
  O2-  O562  1  0.61289917  0.96893928  0.37884647  1
  O2-  O563  1  0.57862761  0.90821204  0.67813684  1
  O2-  O564  1  0.85999130  0.18230351  0.01921455  1
  O2-  O565  1  0.85908856  0.10761541  0.33715277  1
  O2-  O566  1  0.83863488  0.17449435  0.68642900  1
  O2-  O567  1  0.76431351  0.43359844  0.04546112  1
  O2-  O568  1  0.80666793  0.37991429  0.35370917  1
  O2-  O569  1  0.85115535  0.41157037  0.69664874  1
  O2-  O570  1  0.83550843  0.66442717  0.02114221  1
  O2-  O571  1  0.85593347  0.67888336  0.35102297  1
  O2-  O572  1  0.81848370  0.65261776  0.68084287  1
  O2-  O573  1  0.81405631  0.87244371  0.03541044  1
  O2-  O574  1  0.81301403  0.94377267  0.37436722  1
  O2-  O575  1  0.86355283  0.93978898  0.69872940  1
