# generated using pymatgen
data_H2O
_symmetry_space_group_name_H-M   'P 1'
_cell_length_a   17.99284228
_cell_length_b   17.98376881
_cell_length_c   21.99570160
_cell_angle_alpha   90.01238527
_cell_angle_beta   89.98804084
_cell_angle_gamma   120.00642051
_symmetry_Int_Tables_number   1
_chemical_formula_structural   H2O
_chemical_formula_sum   'H384 O192'
_cell_volume   6163.40661864
_cell_formula_units_Z   192
loop_
 _symmetry_equiv_pos_site_id
 _symmetry_equiv_pos_as_xyz
  1  'x, y, z'
loop_
 _atom_type_symbol
 _atom_type_oxidation_number
  H+  1.0
  O2-  -2.0
loop_
 _atom_site_type_symbol
 _atom_site_label
 _atom_site_symmetry_multiplicity
 _atom_site_fract_x
 _atom_site_fract_y
 _atom_site_fract_z
 _atom_site_occupancy
  H+  H0  1  0.23244971  0.86654599  0.83822126  1
  H+  H1  1  0.27777274  0.88805557  0.49265897  1
  H+  H2  1  0.28013070  0.14167467  0.49495850  1
  H+  H3  1  0.30124238  0.69508383  0.17401321  1
  H+  H4  1  0.48315554  0.60744995  0.64349628  1
  H+  H5  1  0.37350771  0.83085196  0.50862612  1
  H+  H6  1  0.58842371  0.35722142  0.16423465  1
  H+  H7  1  0.24996212  0.36935727  0.50489312  1
  H+  H8  1  0.76881388  0.62953321  0.49958387  1
  H+  H9  1  0.85974087  0.46930039  0.49323944  1
  H+  H10  1  0.60110522  0.38702831  0.83116139  1
  H+  H11  1  0.97992643  0.61236062  0.32791813  1
  H+  H12  1  0.39154264  0.28989284  0.50996270  1
  H+  H13  1  0.11484695  0.21152176  0.34663386  1
  H+  H14  1  0.38627201  0.25854002  0.33475623  1
  H+  H15  1  0.18697877  0.09810788  0.59291020  1
  H+  H16  1  -0.03896799  0.85291831  -0.01331745  1
  H+  H17  1  0.23294819  0.84346876  0.16479187  1
  H+  H18  1  0.17796415  0.33871011  0.98259784  1
  H+  H19  1  0.13016981  0.22769419  0.03774079  1
  H+  H20  1  0.62540322  0.10266427  0.98954526  1
  H+  H21  1  0.71342117  0.10030234  -0.01427339  1
  H+  H22  1  0.41155862  0.61251909  0.22431623  1
  H+  H23  1  0.60283177  -0.02929796  0.99751902  1
  H+  H24  1  0.75326599  0.60456263  0.17478478  1
  H+  H25  1  0.53349662  0.10371033  0.65625872  1
  H+  H26  1  0.70521250  0.85471783  0.51382861  1
  H+  H27  1  0.17419409  0.66080853  0.20650094  1
  H+  H28  1  0.86217480  0.14268346  0.65756476  1
  H+  H29  1  0.72944812  0.36480121  -0.01277673  1
  H+  H30  1  0.90741883  0.79373869  0.17396642  1
  H+  H31  1  0.02585452  0.13302728  0.83465879  1
  H+  H32  1  0.39685545  1.03048241  0.50203947  1
  H+  H33  1  0.52765037  0.14397311  0.49605876  1
  H+  H34  1  0.09030336  0.17036754  0.14567570  1
  H+  H35  1  0.37744000  0.77666067  0.99147338  1
  H+  H36  1  0.35979482  0.22202627  0.17361471  1
  H+  H37  1  0.69715273  0.35711398  0.80349597  1
  H+  H38  1  0.12938569  0.29427010  0.20294608  1
  H+  H39  1  0.88564286  0.02101262  0.84636812  1
  H+  H40  1  0.50272717  0.87644754  -0.00494033  1
  H+  H41  1  0.88875436  0.36527137  0.32487794  1
  H+  H42  1  0.61877377  0.24551158  0.31436870  1
  H+  H43  1  0.87292638  0.23319497  0.85964531  1
  H+  H44  1  0.03851328  0.38650841  0.72881450  1
  H+  H45  1  0.72445544  0.60619605  0.61490980  1
  H+  H46  1  0.36034004  0.96743028  0.15386925  1
  H+  H47  1  0.86560493  0.72270595  1.00260737  1
  H+  H48  1  0.61669988  0.38655343  1.00595700  1
  H+  H49  1  0.12765337  0.41608682  0.17755338  1
  H+  H50  1  0.83513622  -0.03698645  0.16193541  1
  H+  H51  1  0.89603876  0.73473192  0.32881735  1
  H+  H52  1  0.58777658  0.98594364  0.67361261  1
  H+  H53  1  0.37314451  0.14077499  0.82297347  1
  H+  H54  1  0.47462840  0.36570284  0.84273110  1
  H+  H55  1  0.58958372  0.86982808  0.19772542  1
  H+  H56  1  0.23912656  0.11748014  0.83791692  1
  H+  H57  1  0.61671576  0.76806656  0.50985082  1
  H+  H58  1  0.47070212  0.86161909  0.83640306  1
  H+  H59  1  0.61472266  0.39676934  0.69512564  1
  H+  H60  1  0.12346048  0.61758024  0.85255489  1
  H+  H61  1  0.37357327  0.47369309  0.67603658  1
  H+  H62  1  0.28048594  0.61958463  0.67725729  1
  H+  H63  1  0.87025401  0.03256032  0.34199538  1
  H+  H64  1  0.60230098  0.63277369  0.34314330  1
  H+  H65  1  0.11885566  0.72344841  0.33971573  1
  H+  H66  1  0.41680208  0.59256391  0.78756605  1
  H+  H67  1  0.10565396  0.93607187  -0.02319539  1
  H+  H68  1  0.45615413  0.56304563  0.49927964  1
  H+  H69  1  0.11437072  0.38929629  0.34364752  1
  H+  H70  1  0.40677100  0.55854869  0.59705816  1
  H+  H71  1  0.86684762  0.25749489  0.50380313  1
  H+  H72  1  0.37736234  0.41476707  0.00569881  1
  H+  H73  1  0.58655126  0.92923071  0.43749575  1
  H+  H74  1  0.94431666  0.83291374  0.64955100  1
  H+  H75  1  0.86099639  0.61994178  0.34186098  1
  H+  H76  1  0.11517174  0.13578212  0.83020851  1
  H+  H77  1  0.38482004  0.76056650  0.67175883  1
  H+  H78  1  0.94820020  0.09896492  0.18375198  1
  H+  H79  1  0.38848588  0.27222270  0.84170789  1
  H+  H80  1  0.98006124  0.37760930  0.17470354  1
  H+  H81  1  0.73019084  0.12348158  0.32462011  1
  H+  H82  1  0.89312085  0.28259264  0.99690551  1
  H+  H83  1  0.63610428  0.10764579  0.83253018  1
  H+  H84  1  0.63757360  0.52551836  0.85248502  1
  H+  H85  1  0.39586428  0.64966019  0.31947059  1
  H+  H86  1  0.05187733  0.64681723  0.67088229  1
  H+  H87  1  0.62786782  0.28906381  0.65135392  1
  H+  H88  1  0.39157036  0.03106277  0.98813612  1
  H+  H89  1  0.86452502  0.10376483  0.17733391  1
  H+  H90  1  0.83824577  0.83739927  0.35119011  1
  H+  H91  1  0.27028435  0.11433818  0.17407917  1
  H+  H92  1  0.35921732  0.32604318  0.16603034  1
  H+  H93  1  0.62601967  0.51941923  0.33434674  1
  H+  H94  1  0.36311384  0.37788562  0.35568068  1
  H+  H95  1  0.13672172  0.86067352  0.50447091  1
  H+  H96  1  0.37937070  0.84704565  0.65398861  1
  H+  H97  1  0.34524264  0.65515164  -0.00112843  1
  H+  H98  1  0.39704751  0.56211973  0.99859816  1
  H+  H99  1  0.50864602  0.91231831  0.34094941  1
  H+  H100  1  0.85421489  0.72343396  0.80869980  1
  H+  H101  1  0.63531728  0.76870346  0.82771967  1
  H+  H102  1  0.62298061  0.24806556  0.50197406  1
  H+  H103  1  0.84965809  0.75954519  0.64746163  1
  H+  H104  1  0.50133026  0.87916779  0.67735026  1
  H+  H105  1  0.08765191  0.66700155  0.40068437  1
  H+  H106  1  0.62992944  0.35999922  0.50839452  1
  H+  H107  1  0.72018367  0.36020893  0.50324857  1
  H+  H108  1  0.63667111  0.38277252  0.34287842  1
  H+  H109  1  0.07897464  0.16019036  0.74082865  1
  H+  H110  1  0.42821638  0.34011086  0.60596842  1
  H+  H111  1  0.80736161  0.46150434  0.62672575  1
  H+  H112  1  0.15518894  0.32493612  0.39916761  1
  H+  H113  1  0.89261399  0.52107713  0.32550554  1
  H+  H114  1  0.89887808  0.61697219  0.99062247  1
  H+  H115  1  0.97174682  0.62084318  0.83120903  1
  H+  H116  1  0.61971621  0.14459835  0.50196657  1
  H+  H117  1  0.85319032  0.63530395  0.80900406  1
  H+  H118  1  0.60640392  0.89246294  0.49716163  1
  H+  H119  1  0.36803287  0.89051230  0.00046914  1
  H+  H120  1  0.34850612  0.63820424  0.83834207  1
  H+  H121  1  0.02979209  0.82867568  0.13528130  1
  H+  H122  1  0.71436687  0.34307626  0.17878236  1
  H+  H123  1  0.13383182  0.09361927  0.33463671  1
  H+  H124  1  0.86374350  0.14266278  0.34329512  1
  H+  H125  1  0.34736587  0.59644718  0.48568377  1
  H+  H126  1  0.60613350  0.88481263  0.81569860  1
  H+  H127  1  0.15989022  0.41432334  0.00049668  1
  H+  H128  1  0.79102936  0.63607433  0.03319799  1
  H+  H129  1  1.04118986  0.21534586  0.96697979  1
  H+  H130  1  0.37882235  0.77324086  0.84096224  1
  H+  H131  1  0.12764092  0.06095872  0.18386134  1
  H+  H132  1  0.21002364  0.61639452  0.86086488  1
  H+  H133  1  0.14703593  0.50901453  0.67596998  1
  H+  H134  1  0.65055019  0.61044785  1.03602488  1
  H+  H135  1  0.79396478  0.60606687  0.16487702  1
  H+  H136  1  0.35852438  0.37785206  0.82956381  1
  H+  H137  1  0.85273979  0.64575529  0.65795409  1
  H+  H138  1  0.83747552  0.95152097  0.00938144  1
  H+  H139  1  0.48874826  0.37132757  0.99247097  1
  H+  H140  1  1.03359761  0.39930187  1.01813735  1
  H+  H141  1  0.82790894  0.16937263  -0.05635444  1
  H+  H142  1  0.35871828  0.87671097  0.15184117  1
  H+  H143  1  0.37123232  0.14660413  0.49668988  1
  H+  H144  1  0.60575920  0.99117779  0.33200985  1
  H+  H145  1  0.62839450  0.01209090  0.18311708  1
  H+  H146  1  0.64254721  0.27130272  0.22521170  1
  H+  H147  1  0.98244897  0.60852839  0.97935671  1
  H+  H148  1  0.47848982  0.61110729  0.84225564  1
  H+  H149  1  0.05682511  0.93859228  0.68612711  1
  H+  H150  1  0.61300224  0.85333631  0.32891987  1
  H+  H151  1  -0.01882245  0.60398169  0.16871320  1
  H+  H152  1  0.50130480  0.64160714  0.15612679  1
  H+  H153  1  0.60336182  0.62340075  0.49664018  1
  H+  H154  1  0.52704036  0.39271780  0.50578882  1
  H+  H155  1  0.19560744  0.16624663  0.99964389  1
  H+  H156  1  0.27150614  0.88473263  0.64173888  1
  H+  H157  1  0.58146377  0.62533887  0.16200259  1
  H+  H158  1  0.61720561  0.22612789  -0.00175781  1
  H+  H159  1  0.47004803  0.62706940  0.32102535  1
  H+  H160  1  0.00451437  0.38192420  0.48659510  1
  H+  H161  1  0.40748226  0.11780225  0.65800931  1
  H+  H162  1  0.41561775  1.07075211  0.22968252  1
  H+  H163  1  0.99979166  0.83379778  0.32564366  1
  H+  H164  1  0.90669329  0.27741721  0.66889553  1
  H+  H165  1  0.91197182  0.36771361  0.84596895  1
  H+  H166  1  0.88543614  0.03092257  0.66083269  1
  H+  H167  1  0.88220113  0.77070683  0.49658535  1
  H+  H168  1  0.30535055  0.15732667  1.00376024  1
  H+  H169  1  0.24086986  0.85413188  0.32200988  1
  H+  H170  1  0.12361205  0.72807963  0.49564911  1
  H+  H171  1  0.15077061  1.01146551  0.67621602  1
  H+  H172  1  0.18402349  0.39458288  0.89772938  1
  H+  H173  1  0.77758397  0.39630976  0.34078289  1
  H+  H174  1  0.39371542  0.10211080  0.32646978  1
  H+  H175  1  0.60965780  0.70421351  1.00486648  1
  H+  H176  1  0.11103682  0.61951993  0.13099661  1
  H+  H177  1  0.86349191  0.47893397  1.00362707  1
  H+  H178  1  0.41104189  0.32072330  0.27763582  1
  H+  H179  1  0.58249151  0.16249816  0.05695993  1
  H+  H180  1  0.60359737  0.20896192  0.14906721  1
  H+  H181  1  0.16499732  0.06851591  1.00888373  1
  H+  H182  1  0.39175504  0.36107691  0.66545059  1
  H+  H183  1  0.86624700  0.88750051  0.82423509  1
  H+  H184  1  0.17421897  0.14465040  0.65106349  1
  H+  H185  1  0.62605177  0.72550770  0.65824953  1
  H+  H186  1  0.85533797  0.35961269  0.69364880  1
  H+  H187  1  0.74421133  0.90787837  0.35337785  1
  H+  H188  1  0.02184225  0.88209316  0.49204253  1
  H+  H189  1  0.39411219  0.15435843  -0.00406593  1
  H+  H190  1  0.27763982  0.12093328  0.34793303  1
  H+  H191  1  0.61258624  0.75821805  0.17699226  1
  H+  H192  1  0.06243683  0.08901593  0.69428661  1
  H+  H193  1  0.77648662  0.88714827  0.81853760  1
  H+  H194  1  0.09542063  0.46856596  0.48825421  1
  H+  H195  1  0.71951730  0.11383672  0.51483141  1
  H+  H196  1  0.45521815  0.33568193  0.17071477  1
  H+  H197  1  0.92012595  0.09166425  0.56642365  1
  H+  H198  1  0.72474984  0.61266525  0.84176908  1
  H+  H199  1  0.62121470  0.47471145  0.02853831  1
  H+  H200  1  -0.02530647  0.11982050  0.66421085  1
  H+  H201  1  0.48584320  0.11566219  0.98649548  1
  H+  H202  1  0.22140470  0.59237454  0.50252979  1
  H+  H203  1  0.13993712  0.98167081  0.17796120  1
  H+  H204  1  0.36457241  0.88522249  0.82421039  1
  H+  H205  1  0.12585057  0.63859114  0.49473072  1
  H+  H206  1  0.85828410  0.13397158  0.49474191  1
  H+  H207  1  0.65958747  0.82514328  0.76812351  1
  H+  H208  1  0.61954376  0.48036937  0.50514599  1
  H+  H209  1  0.89283575  0.37086069  -0.00006765  1
  H+  H210  1  0.13932425  0.61155737  0.33315668  1
  H+  H211  1  0.94471818  0.08374932  1.00450464  1
  H+  H212  1  0.35011726  0.68671845  0.49765701  1
  H+  H213  1  0.12413168  0.98216794  0.83903297  1
  H+  H214  1  0.11306476  0.95731446  0.34264400  1
  H+  H215  1  0.52816947  0.13121455  0.81293535  1
  H+  H216  1  0.40097936  0.38510998  0.51545144  1
  H+  H217  1  0.85546088  0.89029855  0.66887325  1
  H+  H218  1  0.78252184  0.48062580  0.61291005  1
  H+  H219  1  0.56014097  0.90887435  0.25037068  1
  H+  H220  1  0.70041012  0.84951775  0.17734152  1
  H+  H221  1  0.85249307  0.88838970  0.49222806  1
  H+  H222  1  0.02217082  0.12560598  0.34090293  1
  H+  H223  1  0.90950654  0.56962859  0.66718136  1
  H+  H224  1  0.12906603  0.50433265  0.17245623  1
  H+  H225  1  0.14318899  0.87516848  0.66494908  1
  H+  H226  1  0.02848190  0.21692081  -0.00041552  1
  H+  H227  1  1.00188102  0.61073983  0.51115067  1
  H+  H228  1  0.14564212  0.43113821  0.81050529  1
  H+  H229  1  0.26176823  0.66786726  0.00570440  1
  H+  H230  1  0.39802049  0.25977443  0.99543136  1
  H+  H231  1  0.15271634  0.37774876  0.66645354  1
  H+  H232  1  0.86359215  0.23129475  0.34139712  1
  H+  H233  1  0.51743449  0.38231018  0.35391275  1
  H+  H234  1  0.96054372  0.89064400  0.19236506  1
  H+  H235  1  0.70920679  0.33761240  0.69315102  1
  H+  H236  1  -0.02182331  0.36570017  0.32299490  1
  H+  H237  1  0.62957194  0.02645357  0.51012296  1
  H+  H238  1  0.14238106  0.83675547  0.16568682  1
  H+  H239  1  0.70915840  0.84897865  0.99381802  1
  H+  H240  1  0.33935290  0.90816568  0.58975024  1
  H+  H241  1  0.83494586  0.87497086  0.16718244  1
  H+  H242  1  0.97804686  0.11601086  0.50667458  1
  H+  H243  1  0.84914951  0.37585203  0.49233595  1
  H+  H244  1  0.87662963  0.87860964  0.34102170  1
  H+  H245  1  0.08417209  0.90619866  0.43499377  1
  H+  H246  1  0.36295106  0.46852185  0.82472877  1
  H+  H247  1  0.63844602  0.61414026  0.60828338  1
  H+  H248  1  0.12578946  0.87448178  0.33934762  1
  H+  H249  1  0.59995971  0.87516893  0.99714185  1
  H+  H250  1  0.86670126  0.23639680  0.16009736  1
  H+  H251  1  0.57607777  0.65781041  0.06813095  1
  H+  H252  1  0.60276286  0.72177337  0.34847036  1
  H+  H253  1  0.37324375  0.63370631  0.67889614  1
  H+  H254  1  0.60412666  0.12069066  0.14974826  1
  H+  H255  1  0.14477877  0.87025638  0.84643292  1
  H+  H256  1  0.58900156  0.49446648  0.17809541  1
  H+  H257  1  0.24614610  0.39738242  0.65213278  1
  H+  H258  1  0.62200662  0.63075646  0.85374390  1
  H+  H259  1  0.12111391  0.71182116  0.14314304  1
  H+  H260  1  0.63359424  0.85619469  0.67219694  1
  H+  H261  1  0.30172266  0.14733525  0.66683458  1
  H+  H262  1  0.80089262  0.39294301  0.85528984  1
  H+  H263  1  0.87547902  0.48556941  0.83493624  1
  H+  H264  1  0.60934775  0.97663648  0.82507363  1
  H+  H265  1  0.85831690  0.63058207  0.49679222  1
  H+  H266  1  0.14126082  0.64911402  0.67492943  1
  H+  H267  1  0.93110430  0.68402434  0.15529024  1
  H+  H268  1  -0.02352416  0.86171552  0.83728494  1
  H+  H269  1  0.11168927  0.73104938  0.82771970  1
  H+  H270  1  0.38923035  0.23491001  0.67266144  1
  H+  H271  1  0.14418160  0.52463572  0.33115930  1
  H+  H272  1  0.90055407  0.05997891  0.93917481  1
  H+  H273  1  0.39337839  0.02602172  0.83332290  1
  H+  H274  1  0.15645900  0.75892223  0.98402347  1
  H+  H275  1  0.14036299  0.02108142  0.50551198  1
  H+  H276  1  0.57824539  0.42788700  0.77447982  1
  H+  H277  1  0.86996348  0.84974573  0.99036983  1
  H+  H278  1  0.12530804  0.22333793  0.49291773  1
  H+  H279  1  0.25701940  0.36092361  0.15499357  1
  H+  H280  1  0.45059302  0.83901449  0.18979984  1
  H+  H281  1  0.27895414  0.65906678  0.34440843  1
  H+  H282  1  0.59117202  0.15236316  0.75537135  1
  H+  H283  1  0.71794248  0.09970956  0.16559663  1
  H+  H284  1  0.85757842  0.38899268  0.16111742  1
  H+  H285  1  0.39786092  0.65919618  0.16811696  1
  H+  H286  1  0.36649836  0.12329873  0.16941010  1
  H+  H287  1  0.09421891  0.66334933  0.04731095  1
  H+  H288  1  0.90576393  0.71306101  0.09353330  1
  H+  H289  1  0.53098232  0.40148945  0.68390586  1
  H+  H290  1  0.56993038  0.92401632  0.73871840  1
  H+  H291  1  0.33497142  0.91595495  0.76530628  1
  H+  H292  1  0.42418049  0.33723707  0.93186874  1
  H+  H293  1  0.47160362  0.10129706  0.16723248  1
  H+  H294  1  0.72613434  0.86566952  0.68191814  1
  H+  H295  1  0.67496840  0.37887551  0.27916779  1
  H+  H296  1  0.41690925  0.84082575  0.93043678  1
  H+  H297  1  0.90355875  0.07690250  0.27696968  1
  H+  H298  1  0.67554613  0.09155964  0.26225889  1
  H+  H299  1  0.03727831  0.21357101  0.12772049  1
  H+  H300  1  0.34629247  0.17239413  0.76382122  1
  H+  H301  1  0.33777093  0.68010602  0.40160311  1
  H+  H302  1  0.07307886  0.41825950  0.39562962  1
  H+  H303  1  0.42789204  0.08979186  0.56151158  1
  H+  H304  1  0.17978722  0.82155455  0.26331480  1
  H+  H305  1  0.09162518  0.67165972  0.76922072  1
  H+  H306  1  0.61030348  0.64187989  0.69157375  1
  H+  H307  1  0.85579781  0.97794239  0.50305157  1
  H+  H308  1  0.22617498  0.38055173  0.83922836  1
  H+  H309  1  0.94399048  0.34495201  0.90525898  1
  H+  H310  1  0.79427003  0.15884734  0.69276399  1
  H+  H311  1  0.65283275  0.07166364  0.89531657  1
  H+  H312  1  0.38253771  0.58313625  0.93290523  1
  H+  H313  1  0.88776416  0.11052358  0.86153937  1
  H+  H314  1  0.96248334  0.53030123  0.55394359  1
  H+  H315  1  0.25302255  0.86470677  0.99279634  1
  H+  H316  1  0.48585029  0.11638627  0.30746329  1
  H+  H317  1  0.79945070  0.93785323  0.41479432  1
  H+  H318  1  0.09369875  0.43492712  0.07710786  1
  H+  H319  1  0.63764611  0.08304546  0.60467678  1
  H+  H320  1  0.20316227  0.49823307  0.63020415  1
  H+  H321  1  0.18648495  0.36221033  0.25251521  1
  H+  H322  1  0.90807219  0.82550329  0.89106249  1
  H+  H323  1  0.09469157  0.89901605  0.09094194  1
  H+  H324  1  0.71525951  0.60473394  0.32480198  1
  H+  H325  1  0.36693321  0.80533880  0.34603780  1
  H+  H326  1  0.34610584  0.91257846  0.43953678  1
  H+  H327  1  0.91759240  0.33923400  0.23161573  1
  H+  H328  1  0.91226640  0.59203271  0.88993226  1
  H+  H329  1  0.92535012  0.80895878  0.26804286  1
  H+  H330  1  0.31906749  0.66157128  0.77812544  1
  H+  H331  1  0.31871854  0.39281118  0.09484495  1
  H+  H332  1  0.18875631  0.09837650  0.90102269  1
  H+  H333  1  0.39200917  1.02206885  0.64506912  1
  H+  H334  1  0.80093932  0.65398001  0.71294408  1
  H+  H335  1  0.77911348  0.14254608  0.85283017  1
  H+  H336  1  0.63339472  0.26484467  0.82521079  1
  H+  H337  1  0.85012155  0.47315467  0.16198997  1
  H+  H338  1  0.33172293  0.91429634  0.06116917  1
  H+  H339  1  0.29735922  0.43039135  0.00736274  1
  H+  H340  1  0.10181744  0.92951015  0.77824188  1
  H+  H341  1  0.64829483  0.82136665  0.27473151  1
  H+  H342  1  0.65318144  0.82052878  0.93322402  1
  H+  H343  1  0.14658811  0.61068024  0.94535545  1
  H+  H344  1  0.34883817  0.42713737  0.41155589  1
  H+  H345  1  0.63087290  0.56282559  0.23107732  1
  H+  H346  1  0.14231089  0.78378741  0.66548118  1
  H+  H347  1  0.13902006  0.11009598  0.50431102  1
  H+  H348  1  0.34110531  0.15974444  0.40440134  1
  H+  H349  1  0.88700953  0.31419084  0.56353168  1
  H+  H350  1  0.40459694  0.80170826  0.56654953  1
  H+  H351  1  0.17720413  0.34285040  0.55336004  1
  H+  H352  1  0.33328411  0.41010143  0.73360436  1
  H+  H353  1  0.67779342  0.57892662  0.09452146  1
  H+  H354  1  0.19150734  0.60257010  0.24803334  1
  H+  H355  1  0.16636898  0.56630327  0.56368294  1
  H+  H356  1  0.58481495  0.64432749  0.79340174  1
  H+  H357  1  0.80668127  0.89096947  0.06771944  1
  H+  H358  1  0.23661312  0.35890654  0.35826386  1
  H+  H359  1  0.83832587  0.17884187  0.10059031  1
  H+  H360  1  0.62695595  0.16187503  0.30029000  1
  H+  H361  1  0.84589746  0.12394314  -0.00339457  1
  H+  H362  1  0.94081478  0.61309734  0.60374980  1
  H+  H363  1  0.22328093  0.27776794  0.06903737  1
  H+  H364  1  0.84138180  0.92558963  0.73278090  1
  H+  H365  1  0.10396802  0.85309110  -0.00407953  1
  H+  H366  1  0.38059174  0.96529318  0.33781233  1
  H+  H367  1  0.82768753  0.42043676  0.06404125  1
  H+  H368  1  0.82470290  0.16184168  0.43571247  1
  H+  H369  1  0.82972971  0.38742338  0.75478881  1
  H+  H370  1  0.83726056  0.41792080  0.39838369  1
  H+  H371  1  0.90412333  0.82940795  0.55461056  1
  H+  H372  1  0.16584687  0.83442799  0.56495280  1
  H+  H373  1  0.42827019  0.08778732  0.89106013  1
  H+  H374  1  0.83143901  0.65541612  0.40032170  1
  H+  H375  1  0.92705272  0.58917649  0.23029943  1
  H+  H376  1  0.98133680  0.36366993  0.63801429  1
  H+  H377  1  0.66998463  0.33472382  0.92768893  1
  H+  H378  1  0.16732212  0.05901416  0.27991882  1
  H+  H379  1  0.56401142  0.38826903  0.10306482  1
  H+  H380  1  0.56753811  0.64962464  0.43892449  1
  H+  H381  1  0.57816641  0.41955179  0.41402854  1
  H+  H382  1  0.08512936  0.15734325  0.43670614  1
  H+  H383  1  0.18505109  0.83029884  0.92547369  1
  O2-  O384  1  0.05616438  0.19373974  0.16269434  1
  O2-  O385  1  0.08728239  0.16092286  0.48192065  1
  O2-  O386  1  0.08186816  0.16107122  0.81353928  1
  O2-  O387  1  0.09645418  0.44345135  0.15987568  1
  O2-  O388  1  0.06141586  0.41259480  0.46725762  1
  O2-  O389  1  0.13143756  0.46781829  0.78217998  1
  O2-  O390  1  0.08428227  0.65437804  0.12278087  1
  O2-  O391  1  0.09326844  0.66736963  0.48029514  1
  O2-  O392  1  0.07857972  0.67079256  0.81307927  1
  O2-  O393  1  0.08565790  0.88510355  0.13476413  1
  O2-  O394  1  0.08390229  0.91114617  0.48002019  1
  O2-  O395  1  0.09377091  0.92147998  0.82277305  1
  O2-  O396  1  0.33036126  0.15228824  0.15933910  1
  O2-  O397  1  0.34080026  0.17598566  0.48070049  1
  O2-  O398  1  0.34150704  0.17032546  0.80937175  1
  O2-  O399  1  0.28905013  0.34502878  0.12589598  1
  O2-  O400  1  0.35951671  0.44166379  0.48984661  1
  O2-  O401  1  0.33037916  0.40814703  0.81081484  1
  O2-  O402  1  0.35611074  0.73390063  0.15258003  1
  O2-  O403  1  0.32039665  0.63111134  0.47487385  1
  O2-  O404  1  0.31990105  0.66907906  0.82296998  1
  O2-  O405  1  0.33122248  0.90942935  0.13446485  1
  O2-  O406  1  0.34065417  0.91725343  0.48416211  1
  O2-  O407  1  0.33431085  0.91706619  0.80965105  1
  O2-  O408  1  0.57243479  0.14908535  0.13310396  1
  O2-  O409  1  0.59135694  0.17784573  0.48594753  1
  O2-  O410  1  0.58972354  0.15986769  0.79992324  1
  O2-  O411  1  0.55374222  0.38164815  0.14802223  1
  O2-  O412  1  0.58749731  0.41923378  0.48951541  1
  O2-  O413  1  0.57453441  0.42213430  0.82133020  1
  O2-  O414  1  0.56446717  0.66549603  0.14407232  1
  O2-  O415  1  0.56292804  0.64320160  0.48436546  1
  O2-  O416  1  0.58760943  0.65937347  0.83626422  1
  O2-  O417  1  0.55985066  0.90413151  0.20555569  1
  O2-  O418  1  0.58611300  0.93188449  0.48199060  1
  O2-  O419  1  0.57450214  0.91638457  0.80711270  1
  O2-  O420  1  0.83582479  0.17527786  0.14493491  1
  O2-  O421  1  0.82402435  0.16119372  0.48136323  1
  O2-  O422  1  0.83796187  0.16865120  0.86961685  1
  O2-  O423  1  0.82037186  0.41263121  0.14773496  1
  O2-  O424  1  0.82393569  0.41107179  0.47642283  1
  O2-  O425  1  0.85284600  0.42190214  0.83056409  1
  O2-  O426  1  0.93626187  0.73552178  0.13362288  1
  O2-  O427  1  0.82870507  0.65873205  0.47967619  1
  O2-  O428  1  0.82167668  0.66377026  0.79278092  1
  O2-  O429  1  0.80638642  0.90268088  0.14636826  1
  O2-  O430  1  0.81834087  0.91746790  0.48927757  1
  O2-  O431  1  0.83909650  0.92148226  0.80981163  1
  O2-  O432  1  0.16631973  0.04039651  0.19613685  1
  O2-  O433  1  0.17218490  0.08198428  0.51937995  1
  O2-  O434  1  0.18045989  0.08650910  0.85699655  1
  O2-  O435  1  0.17457281  0.35477118  0.20880012  1
  O2-  O436  1  0.18759832  0.32778638  0.51241081  1
  O2-  O437  1  0.17338197  0.37859611  0.85421107  1
  O2-  O438  1  0.19467425  0.61985854  0.20333344  1
  O2-  O439  1  0.16217941  0.57328769  0.51944843  1
  O2-  O440  1  0.15313053  0.59610186  0.87922396  1
  O2-  O441  1  0.17276985  0.80686773  0.18068717  1
  O2-  O442  1  0.16972480  0.83295014  0.51995241  1
  O2-  O443  1  0.17467871  0.83744346  0.85836014  1
  O2-  O444  1  0.41157627  0.07285556  0.18389904  1
  O2-  O445  1  0.42724543  0.09154421  0.51584416  1
  O2-  O446  1  0.42734906  0.08732568  0.84572169  1
  O2-  O447  1  0.39384123  0.30334576  0.18691583  1
  O2-  O448  1  0.42601934  0.34743587  0.52874418  1
  O2-  O449  1  0.41420221  0.33117059  0.85976241  1
  O2-  O450  1  0.40893166  0.61241327  0.17853282  1
  O2-  O451  1  0.39538878  0.53070501  0.51497259  1
  O2-  O452  1  0.41595441  0.58397113  0.83145835  1
  O2-  O453  1  0.38652907  0.81371499  0.18778897  1
  O2-  O454  1  0.37240061  0.78134736  0.52846843  1
  O2-  O455  1  0.41114311  0.83584425  0.85292607  1
  O2-  O456  1  0.65979379  0.07644273  0.18285219  1
  O2-  O457  1  0.65848606  0.08716815  0.52843359  1
  O2-  O458  1  0.66158208  0.07386388  0.85035868  1
  O2-  O459  1  0.65191020  0.30802350  0.18890768  1
  O2-  O460  1  0.66009037  0.32676983  0.51906277  1
  O2-  O461  1  0.66236171  0.32639312  0.83892674  1
  O2-  O462  1  0.61742310  0.55636643  0.18694149  1
  O2-  O463  1  0.67329188  0.58460990  0.52615048  1
  O2-  O464  1  0.67183959  0.58620102  0.86686649  1
  O2-  O465  1  0.64272278  0.81771817  0.19631558  1
  O2-  O466  1  0.64427025  0.82681748  0.52655916  1
  O2-  O467  1  0.66194659  0.82981182  0.81355999  1
  O2-  O468  1  0.88645637  0.06628847  0.19305286  1
  O2-  O469  1  0.91739445  0.08856748  0.52111911  1
  O2-  O470  1  0.91669237  0.07600322  0.86947605  1
  O2-  O471  1  0.91847237  0.34121128  0.18572734  1
  O2-  O472  1  0.89276393  0.31931838  0.51939695  1
  O2-  O473  1  0.93578338  0.33221941  0.86116675  1
  O2-  O474  1  0.92452265  0.59036746  0.18491911  1
  O2-  O475  1  0.94708897  0.56983445  0.53476127  1
  O2-  O476  1  0.91024406  0.58983534  0.84453977  1
  O2-  O477  1  0.90641806  0.83856475  0.20159042  1
  O2-  O478  1  0.91326650  0.83179172  0.51004652  1
  O2-  O479  1  0.91384717  0.83017118  0.84582978  1
  O2-  O480  1  0.16494452  0.06151052  0.32459822  1
  O2-  O481  1  0.19635297  0.10667556  0.63857053  1
  O2-  O482  1  0.20380573  0.11787261  0.98417412  1
  O2-  O483  1  0.16958025  0.32669957  0.35599032  1
  O2-  O484  1  0.19487249  0.39611940  0.63319597  1
  O2-  O485  1  0.20185087  0.40053898  0.97789444  1
  O2-  O486  1  0.17539826  0.58697952  0.31907072  1
  O2-  O487  1  0.18804123  0.54282431  0.64304251  1
  O2-  O488  1  0.14916198  0.62164111  0.99255708  1
  O2-  O489  1  0.18005152  0.82713089  0.30838278  1
  O2-  O490  1  0.16615820  0.84088337  0.64557603  1
  O2-  O491  1  0.18638888  0.82421175  0.97266202  1
  O2-  O492  1  0.42296306  0.07372301  0.30640735  1
  O2-  O493  1  0.43222552  0.08428343  0.63830435  1
  O2-  O494  1  0.42460776  0.08988155  0.97119486  1
  O2-  O495  1  0.41547518  0.32039404  0.32215684  1
  O2-  O496  1  0.42752332  0.33593033  0.65145619  1
  O2-  O497  1  0.42657585  0.33672604  0.97851470  1
  O2-  O498  1  0.41675070  0.61455554  0.29949207  1
  O2-  O499  1  0.41982003  0.57580130  0.64057399  1
  O2-  O500  1  0.40054767  0.60884275  0.97301057  1
  O2-  O501  1  0.39659513  0.86682552  0.33043499  1
  O2-  O502  1  0.41718771  0.82111136  0.65540328  1
  O2-  O503  1  0.41874653  0.84289082  0.97606145  1
  O2-  O504  1  0.67081701  0.09686334  0.30700841  1
  O2-  O505  1  0.62523905  0.07127575  0.64994854  1
  O2-  O506  1  0.65054249  0.06679871  0.97497222  1
  O2-  O507  1  0.67312337  0.36167977  0.32156515  1
  O2-  O508  1  0.64745036  0.32131021  0.68913978  1
  O2-  O509  1  0.66833244  0.33282687  0.97251622  1
  O2-  O510  1  0.65425788  0.57620586  0.31313600  1
  O2-  O511  1  0.66540735  0.57822154  0.59506548  1
  O2-  O512  1  0.68292811  0.57966717  1.04998089  1
  O2-  O513  1  0.64734929  0.82555788  0.32008179  1
  O2-  O514  1  0.66225451  0.82592329  0.68793928  1
  O2-  O515  1  0.64869892  0.82332892  0.97724172  1
  O2-  O516  1  0.91576300  0.08755930  0.32088162  1
  O2-  O517  1  0.91620899  0.09115598  0.64544022  1
  O2-  O518  1  0.88833239  0.05446756  0.98530380  1
  O2-  O519  1  0.91723311  0.33410742  0.30816241  1
  O2-  O520  1  0.94504655  0.34223584  0.67394900  1
  O2-  O521  1  0.92864902  0.34477950  0.98901994  1
  O2-  O522  1  0.92010853  0.58233118  0.31109706  1
  O2-  O523  1  0.94035447  0.62627448  0.64805248  1
  O2-  O524  1  0.92075818  0.58211781  0.96963711  1
  O2-  O525  1  0.94542852  0.78738963  0.30338263  1
  O2-  O526  1  0.88818238  0.82166194  0.63568518  1
  O2-  O527  1  0.90182834  0.82356278  0.97073584  1
  O2-  O528  1  0.19052622  0.24531711  0.03181144  1
  O2-  O529  1  0.08308146  0.14848291  0.35464120  1
  O2-  O530  1  0.07576004  0.14857862  0.69488927  1
  O2-  O531  1  0.09401816  0.43194801  0.03232535  1
  O2-  O532  1  0.08218848  0.42020539  0.34966412  1
  O2-  O533  1  0.10192116  0.41512359  0.72730622  1
  O2-  O534  1  0.10094917  0.66717580  0.00133973  1
  O2-  O535  1  0.08397577  0.66359902  0.35536141  1
  O2-  O536  1  0.11011546  0.67756241  0.68888983  1
  O2-  O537  1  0.07792291  0.88881133  0.00577631  1
  O2-  O538  1  0.08620762  0.89476057  0.35432636  1
  O2-  O539  1  0.11548516  0.95253679  0.69496604  1
  O2-  O540  1  0.36858239  0.18950824  0.01315010  1
  O2-  O541  1  0.33949068  0.15298137  0.35882549  1
  O2-  O542  1  0.35965375  0.17239376  0.68559499  1
  O2-  O543  1  0.35286666  0.44450048  0.02849056  1
  O2-  O544  1  0.33313305  0.40871984  0.36813726  1
  O2-  O545  1  0.33772475  0.41239026  0.68805611  1
  O2-  O546  1  0.32437195  0.69459955  0.01298896  1
  O2-  O547  1  0.33727034  0.70088275  0.35975552  1
  O2-  O548  1  0.33855375  0.65818029  0.69562223  1
  O2-  O549  1  0.33071375  0.91515572  0.01465018  1
  O2-  O550  1  0.34821187  0.90593940  0.35587046  1
  O2-  O551  1  0.33495196  0.90950658  0.63413781  1
  O2-  O552  1  0.58443241  0.16447248  0.01122989  1
  O2-  O553  1  0.59477194  0.19238675  0.28959248  1
  O2-  O554  1  0.59403067  0.12813989  0.67207874  1
  O2-  O555  1  0.58298359  0.41039210  0.02546392  1
  O2-  O556  1  0.57791120  0.41874626  0.36814748  1
  O2-  O557  1  0.58835125  0.43312001  0.70372384  1
  O2-  O558  1  0.59040545  0.64925638  0.02550363  1
  O2-  O559  1  0.57187038  0.66039776  0.36172699  1
  O2-  O560  1  0.60169256  0.66190835  0.65239830  1
  O2-  O561  1  0.56934216  0.90724857  0.01047580  1
  O2-  O562  1  0.56998594  0.92790609  0.33915150  1
  O2-  O563  1  0.56555050  0.92290934  0.69148170  1
  O2-  O564  1  0.82147188  0.16215202  -0.01029528  1
  O2-  O565  1  0.83101618  0.17123668  0.35724158  1
  O2-  O566  1  0.83555367  0.18015349  0.65956927  1
  O2-  O567  1  0.83044945  0.41854739  0.01886530  1
  O2-  O568  1  0.83887025  0.41982261  0.35298907  1
  O2-  O569  1  0.81047039  0.36790768  0.71267614  1
  O2-  O570  1  0.85490577  0.67131518  0.02685929  1
  O2-  O571  1  0.83428984  0.65559404  0.35480794  1
  O2-  O572  1  0.80474830  0.65669738  0.66724377  1
  O2-  O573  1  0.80778519  0.88973885  0.02218523  1
  O2-  O574  1  0.79131461  0.95788185  0.37457234  1
  O2-  O575  1  0.83193749  0.92454076  0.68758271  1
