# generated using pymatgen
data_H2O
_symmetry_space_group_name_H-M   'P 1'
_cell_length_a   17.98373864
_cell_length_b   17.99232426
_cell_length_c   21.99780332
_cell_angle_alpha   90.00588055
_cell_angle_beta   89.99005240
_cell_angle_gamma   120.01442508
_symmetry_Int_Tables_number   1
_chemical_formula_structural   H2O
_chemical_formula_sum   'H384 O192'
_cell_volume   6163.31046867
_cell_formula_units_Z   192
loop_
 _symmetry_equiv_pos_site_id
 _symmetry_equiv_pos_as_xyz
  1  'x, y, z'
loop_
 _atom_type_symbol
 _atom_type_oxidation_number
  H+  1.0
  O2-  -2.0
loop_
 _atom_site_type_symbol
 _atom_site_label
 _atom_site_symmetry_multiplicity
 _atom_site_fract_x
 _atom_site_fract_y
 _atom_site_fract_z
 _atom_site_occupancy
  H+  H0  1  0.63500187  0.77325001  0.33279579  1
  H+  H1  1  0.61494224  0.64517717  0.49834752  1
  H+  H2  1  0.64147644  0.63731975  0.00514166  1
  H+  H3  1  0.97766931  0.61438953  0.83580306  1
  H+  H4  1  0.12663549  0.09570468  0.01193850  1
  H+  H5  1  0.27794454  0.64244390  0.02182791  1
  H+  H6  1  0.79987892  -0.02101324  0.94434131  1
  H+  H7  1  0.33832496  0.21656045  0.82932974  1
  H+  H8  1  0.11628295  0.38446819  0.80873555  1
  H+  H9  1  0.62498674  0.72919101  0.83002178  1
  H+  H10  1  0.86493868  0.89126858  0.82382316  1
  H+  H11  1  0.75549632  0.79423554  -0.04201834  1
  H+  H12  1  0.45701507  0.11628809  0.84833519  1
  H+  H13  1  0.23603300  0.36469914  0.65139446  1
  H+  H14  1  0.37674049  0.75737935  0.49931008  1
  H+  H15  1  0.87447391  0.10514790  0.17110740  1
  H+  H16  1  0.11622220  -0.02305190  0.48961559  1
  H+  H17  1  0.10575582  0.96665230  0.13179650  1
  H+  H18  1  0.10930185  0.39200586  1.02120901  1
  H+  H19  1  0.67031822  0.62908476  0.65360685  1
  H+  H20  1  0.96667313  0.11303907  0.50217806  1
  H+  H21  1  0.46004255  0.19263239  1.07070307  1
  H+  H22  1  0.52904958  0.63917853  0.82941658  1
  H+  H23  1  0.36124480  0.54200204  0.97724682  1
  H+  H24  1  0.37229179  0.65461532  0.02828745  1
  H+  H25  1  0.59606296  0.17818666  0.10821070  1
  H+  H26  1  0.23608903  0.89327374  0.64713449  1
  H+  H27  1  0.15606474  0.91058834  0.33686815  1
  H+  H28  1  0.98979706  0.39722219  0.65133276  1
  H+  H29  1  0.12509206  0.10782373  0.86983159  1
  H+  H30  1  0.36717023  0.38934304  0.15816866  1
  H+  H31  1  -0.01779005  0.61380127  0.50306887  1
  H+  H32  1  0.41011811  0.84206229  0.28524828  1
  H+  H33  1  0.38392803  0.78119987  0.19277201  1
  H+  H34  1  0.64280301  0.28151003  0.16379966  1
  H+  H35  1  0.11380520  0.23291037  0.63621339  1
  H+  H36  1  0.34660683  0.22107812  0.14672704  1
  H+  H37  1  0.38821136  0.99899154  0.16928114  1
  H+  H38  1  0.20645764  0.34801559  0.99503620  1
  H+  H39  1  -0.02305880  0.36770059  -0.00609777  1
  H+  H40  1  0.12287600  0.39375051  0.16530488  1
  H+  H41  1  0.88916492  0.27827077  0.99524589  1
  H+  H42  1  0.85220237  0.38627713  0.83415970  1
  H+  H43  1  0.36260190  0.62952926  0.48852897  1
  H+  H44  1  0.36308273  0.70903773  0.67361509  1
  H+  H45  1  0.75468055  0.11953235  0.66399959  1
  H+  H46  1  0.00793664  0.05362146  0.36915301  1
  H+  H47  1  0.09862229  0.71200000  0.33444974  1
  H+  H48  1  0.07844124  0.16764616  0.58254676  1
  H+  H49  1  0.11420018  0.48368759  1.01657052  1
  H+  H50  1  0.38487546  0.35680611  0.65816786  1
  H+  H51  1  0.35874796  0.72085314  0.33858499  1
  H+  H52  1  0.85385781  -0.02596432  0.66982735  1
  H+  H53  1  0.14511585  0.77762801  0.17113930  1
  H+  H54  1  0.76178582  0.63151983  0.65795218  1
  H+  H55  1  0.51021705  0.61866052  0.00893221  1
  H+  H56  1  0.38001187  0.78056798  0.85438410  1
  H+  H57  1  0.22978160  0.36575572  0.16711058  1
  H+  H58  1  0.86361253  0.63310645  0.32858306  1
  H+  H59  1  0.91823638  0.83885950  0.89928668  1
  H+  H60  1  0.34859553  0.67433839  0.77783374  1
  H+  H61  1  0.88660771  0.77545159  0.84201259  1
  H+  H62  1  0.66209905  0.08438131  0.24405609  1
  H+  H63  1  0.88745773  0.36588442  0.16662167  1
  H+  H64  1  0.10719921  0.74362929  0.83240792  1
  H+  H65  1  0.76201717  0.37267004  0.68448316  1
  H+  H66  1  0.64534959  0.53065174  0.50466849  1
  H+  H67  1  0.32952434  0.94406823  0.04592838  1
  H+  H68  1  0.14497292  0.62444069  1.00394831  1
  H+  H69  1  0.98154178  0.86478154  0.50160513  1
  H+  H70  1  0.88770421  0.78391663  0.65682185  1
  H+  H71  1  0.85844828  0.22438521  0.16406229  1
  H+  H72  1  0.10386672  0.91171696  0.39597293  1
  H+  H73  1  0.11373104  0.47135250  0.79890057  1
  H+  H74  1  0.09810465  0.11013829  0.34072481  1
  H+  H75  1  0.50459982  0.90170395  0.02593704  1
  H+  H76  1  0.47550776  0.60879394  0.50614330  1
  H+  H77  1  0.87038594  0.47701605  -0.00346877  1
  H+  H78  1  0.13267459  0.51113143  0.17022074  1
  H+  H79  1  0.13404059  0.11463361  0.64281960  1
  H+  H80  1  0.84348679  0.72041845  0.14759948  1
  H+  H81  1  0.66517529  0.60005424  0.90864422  1
  H+  H82  1  0.71801836  0.35940113  0.51372667  1
  H+  H83  1  0.44930125  1.08764552  0.32533625  1
  H+  H84  1  0.13819007  0.11529383  0.50269710  1
  H+  H85  1  0.57326949  0.71676941  1.01213003  1
  H+  H86  1  0.61426873  0.63399900  0.34453008  1
  H+  H87  1  0.73399185  0.80690182  0.98198688  1
  H+  H88  1  0.37077529  0.47736441  0.65968476  1
  H+  H89  1  0.83686915  0.42013099  0.09066585  1
  H+  H90  1  0.63465988  0.49673670  0.66103449  1
  H+  H91  1  0.70902391  0.33606571  0.32516672  1
  H+  H92  1  0.87192664  0.11488723  0.32565737  1
  H+  H93  1  0.35072748  0.13043017  0.67939503  1
  H+  H94  1  0.13407300  0.36241280  0.49970653  1
  H+  H95  1  0.78136150  0.64231030  0.48408563  1
  H+  H96  1  0.89561961  0.62050173  0.50253813  1
  H+  H97  1  0.38884321  0.35837714  -0.00214245  1
  H+  H98  1  0.11006757  0.22967179  0.48981359  1
  H+  H99  1  0.34194418  0.84156209  0.37014258  1
  H+  H100  1  0.87480743  0.27822924  0.50388395  1
  H+  H101  1  0.09731867  0.42139099  0.71518608  1
  H+  H102  1  0.61766189  0.76993937  0.17534144  1
  H+  H103  1  0.63523607  0.01196684  0.51106171  1
  H+  H104  1  0.62466845  0.13883380  1.00779417  1
  H+  H105  1  0.13303694  0.52063709  0.50176081  1
  H+  H106  1  0.90940285  0.61624586  0.98856779  1
  H+  H107  1  0.36157623  0.38331839  0.49233015  1
  H+  H108  1  0.60923462  0.38449784  0.49652433  1
  H+  H109  1  0.10267720  0.87615724  1.03351232  1
  H+  H110  1  0.36222520  0.13625406  0.49047477  1
  H+  H111  1  0.41231995  0.33065580  0.22413398  1
  H+  H112  1  0.47155905  0.85964764  0.34375469  1
  H+  H113  1  0.88241247  0.02715322  0.83390783  1
  H+  H114  1  0.60171090  0.89095683  0.83120668  1
  H+  H115  1  0.63255753  0.36579564  0.65919813  1
  H+  H116  1  0.87493271  0.72712686  0.32699013  1
  H+  H117  1  0.57167971  0.92048253  0.11898007  1
  H+  H118  1  0.88031253  0.61237566  0.16276909  1
  H+  H119  1  0.22260140  0.60824172  0.32906366  1
  H+  H120  1  -0.01593034  0.12493791  -0.01120057  1
  H+  H121  1  0.13560944  0.26924108  0.32248259  1
  H+  H122  1  0.01626528  0.38305343  0.49246003  1
  H+  H123  1  0.86377658  0.48112838  0.15011758  1
  H+  H124  1  0.52472186  0.63293020  0.34291709  1
  H+  H125  1  0.38578267  0.51816117  0.50550899  1
  H+  H126  1  0.75792632  0.87693405  0.18492763  1
  H+  H127  1  0.02196213  0.63131995  0.16088649  1
  H+  H128  1  0.47843275  0.61354229  0.65250261  1
  H+  H129  1  0.75952869  0.13169392  0.34223937  1
  H+  H130  1  0.57290524  0.43305193  0.61448146  1
  H+  H131  1  0.89000003  -0.01622522  0.33328202  1
  H+  H132  1  0.58590759  0.39117687  0.84592689  1
  H+  H133  1  0.59201668  0.20382498  0.34149492  1
  H+  H134  1  0.35571763  0.96368238  -0.02304645  1
  H+  H135  1  0.62460872  1.01614534  0.66102150  1
  H+  H136  1  0.38712208  0.27131248  0.50332061  1
  H+  H137  1  0.17261992  0.33529776  0.22780717  1
  H+  H138  1  1.01138463  0.13022372  0.16554799  1
  H+  H139  1  0.53693392  0.16919439  0.16826541  1
  H+  H140  1  0.66360639  0.58327651  0.27060507  1
  H+  H141  1  0.65158894  0.27209345  0.99026334  1
  H+  H142  1  0.54381221  0.15611742  0.01384310  1
  H+  H143  1  0.47121011  0.84193632  0.66061490  1
  H+  H144  1  0.22136518  0.60790468  0.49980781  1
  H+  H145  1  0.88095648  0.11514330  0.82687622  1
  H+  H146  1  0.62683739  0.52935506  0.85282595  1
  H+  H147  1  0.12895410  0.75240304  0.65976596  1
  H+  H148  1  0.10893135  0.63026625  0.49153207  1
  H+  H149  1  0.38256219  0.52002594  0.32305652  1
  H+  H150  1  0.96872535  0.84999996  1.00799628  1
  H+  H151  1  1.00074147  0.85550215  0.31101646  1
  H+  H152  1  0.85943575  0.37383142  0.32714097  1
  H+  H153  1  0.21031615  0.10367600  0.85726345  1
  H+  H154  1  0.14870268  0.86428967  0.15421221  1
  H+  H155  1  0.93091425  0.11715677  0.92732711  1
  H+  H156  1  0.74204205  0.36753514  0.98573315  1
  H+  H157  1  -0.02523790  0.35951572  0.82875925  1
  H+  H158  1  0.40422446  0.15005090  0.17460822  1
  H+  H159  1  0.87874760  0.36846622  0.50025821  1
  H+  H160  1  0.63036305  0.26763955  0.50967028  1
  H+  H161  1  0.15731220  0.07077853  0.25879226  1
  H+  H162  1  0.20521416  0.59411522  0.74095477  1
  H+  H163  1  0.71978409  0.85988204  0.66573070  1
  H+  H164  1  0.12414576  0.66637928  0.82062281  1
  H+  H165  1  0.57036211  0.84256200  0.00036045  1
  H+  H166  1  0.89145018  0.77691716  0.49676938  1
  H+  H167  1  0.96733626  0.11769124  0.64212735  1
  H+  H168  1  0.63807068  0.12102322  0.18514275  1
  H+  H169  1  0.87255044  0.88598590  0.48710050  1
  H+  H170  1  1.03604469  0.63970655  1.00578424  1
  H+  H171  1  0.92552796  0.82957633  0.21867368  1
  H+  H172  1  0.76793143  0.13633349  0.16659287  1
  H+  H173  1  0.36929603  0.61793446  0.66944525  1
  H+  H174  1  0.76923879  0.14420419  0.80587033  1
  H+  H175  1  0.60204106  0.87793816  0.67872824  1
  H+  H176  1  0.26748598  0.85441276  0.12196475  1
  H+  H177  1  0.85350284  0.13862853  0.49166106  1
  H+  H178  1  0.35332163  0.21991874  0.68079164  1
  H+  H179  1  0.60643195  0.87595149  0.34527740  1
  H+  H180  1  0.12339554  -0.00010022  0.01520116  1
  H+  H181  1  0.60870821  -0.01889065  0.17730932  1
  H+  H182  1  0.62440954  0.02930191  0.82026376  1
  H+  H183  1  0.70591425  0.61309651  0.17073893  1
  H+  H184  1  0.38373606  0.78125689  0.00809874  1
  H+  H185  1  0.62774091  0.01353293  0.33651844  1
  H+  H186  1  0.37932286  0.01708761  0.51007731  1
  H+  H187  1  0.36586668  0.64191711  0.17176467  1
  H+  H188  1  0.40526954  0.01937494  0.13889626  1
  H+  H189  1  0.21226515  0.09762951  0.15920976  1
  H+  H190  1  0.30432884  0.39237978  0.81213688  1
  H+  H191  1  0.63872427  0.37686909  0.16111681  1
  H+  H192  1  0.27525075  0.13910853  0.48838500  1
  H+  H193  1  0.85467830  0.12481015  0.65924989  1
  H+  H194  1  0.27668090  0.63822895  0.82512144  1
  H+  H195  1  0.22241593  0.11493042  0.65890650  1
  H+  H196  1  0.62772171  0.86389557  0.17821107  1
  H+  H197  1  0.47066518  0.35353278  0.66352876  1
  H+  H198  1  0.60325872  -0.02006324  1.02642680  1
  H+  H199  1  1.02476906  0.14605381  0.84465459  1
  H+  H200  1  0.99917798  0.63768635  0.65508074  1
  H+  H201  1  0.12020874  0.86873032  0.84551067  1
  H+  H202  1  0.85434103  0.88461941  0.66765843  1
  H+  H203  1  0.10528597  0.62717732  0.33565236  1
  H+  H204  1  0.97608717  0.36528258  0.17088419  1
  H+  H205  1  0.89164540  0.65489201  0.67014086  1
  H+  H206  1  0.73629172  0.37808029  0.15614452  1
  H+  H207  1  0.73500149  0.86258462  0.83376623  1
  H+  H208  1  0.85794092  0.38682943  0.68400652  1
  H+  H209  1  0.86145598  0.23058245  0.81073299  1
  H+  H210  1  0.37609864  0.82550970  0.64813188  1
  H+  H211  1  0.22725591  0.61244347  0.17589487  1
  H+  H212  1  0.30709987  0.97583078  0.29747289  1
  H+  H213  1  0.16018842  0.57550851  0.27169210  1
  H+  H214  1  0.71973262  0.36870538  0.84337801  1
  H+  H215  1  0.40474079  0.45412825  0.99482017  1
  H+  H216  1  0.78349204  0.88222951  0.47080406  1
  H+  H217  1  0.26941448  0.13437932  0.33395949  1
  H+  H218  1  0.37713579  1.02648118  0.66818139  1
  H+  H219  1  0.11899819  0.73326161  0.01218219  1
  H+  H220  1  0.33213757  0.65728743  0.42788182  1
  H+  H221  1  0.22503632  0.35715053  0.32653580  1
  H+  H222  1  0.12315662  0.09610694  0.16522689  1
  H+  H223  1  0.42299476  0.58151857  0.26458506  1
  H+  H224  1  0.13813920  0.01697488  0.32013129  1
  H+  H225  1  0.40819465  0.80569454  0.56247808  1
  H+  H226  1  0.60599664  0.49357395  0.01701635  1
  H+  H227  1  0.34514306  0.86700464  0.51052276  1
  H+  H228  1  0.62532781  0.28114722  0.84152822  1
  H+  H229  1  0.46960629  0.35276605  0.16610348  1
  H+  H230  1  0.93092771  0.58487186  0.92664075  1
  H+  H231  1  0.15879410  0.49414049  0.66903000  1
  H+  H232  1  0.35969797  0.63201984  0.33258283  1
  H+  H233  1  0.14028624  0.89501129  0.64929516  1
  H+  H234  1  1.01525409  0.88746616  0.81910748  1
  H+  H235  1  0.51666976  0.13114775  0.49969148  1
  H+  H236  1  0.86297570  0.49263863  0.49867632  1
  H+  H237  1  0.92461414  0.87338150  0.31619734  1
  H+  H238  1  0.47582105  0.44685613  0.27746155  1
  H+  H239  1  0.58937931  0.77976519  0.50483430  1
  H+  H240  1  0.61309089  0.60508457  0.17770933  1
  H+  H241  1  0.36589172  0.85242176  1.02753963  1
  H+  H242  1  0.27123830  0.87124516  0.35600588  1
  H+  H243  1  0.39573116  0.61706905  0.83937043  1
  H+  H244  1  0.49341511  0.38943264  0.32097535  1
  H+  H245  1  0.40160974  0.53084563  0.82653699  1
  H+  H246  1  0.56062742  0.18162071  0.76437934  1
  H+  H247  1  0.73110890  0.61644913  0.32541961  1
  H+  H248  1  0.87561035  0.51007283  0.31484384  1
  H+  H249  1  0.46646275  0.11410955  0.66203355  1
  H+  H250  1  0.71928176  0.10557503  0.50681666  1
  H+  H251  1  0.11954710  0.20600480  1.02489591  1
  H+  H252  1  0.85352295  -0.02351943  0.18499799  1
  H+  H253  1  0.88693059  0.52271356  0.83943158  1
  H+  H254  1  0.86668225  0.63797978  0.83156797  1
  H+  H255  1  0.58327934  0.64725192  0.72389383  1
  H+  H256  1  0.88113674  0.16010044  0.01014724  1
  H+  H257  1  0.60449483  0.12948901  0.49761271  1
  H+  H258  1  0.83597681  0.97150914  -0.04678570  1
  H+  H259  1  0.11968045  -0.01489326  0.66461111  1
  H+  H260  1  0.91454343  0.32641328  0.26154704  1
  H+  H261  1  0.47072774  0.87092151  0.19020154  1
  H+  H262  1  0.64992972  0.82934523  0.61157655  1
  H+  H263  1  0.10386418  0.21825658  0.16308579  1
  H+  H264  1  0.34873559  -0.01443664  0.84470456  1
  H+  H265  1  0.46922455  0.35837737  0.88864818  1
  H+  H266  1  0.23767254  0.89277952  0.25917905  1
  H+  H267  1  0.62238542  0.47579831  0.34289798  1
  H+  H268  1  0.34213105  0.89238894  0.70478699  1
  H+  H269  1  0.87120871  0.77916017  0.99664203  1
  H+  H270  1  0.74026619  0.11557866  1.00947551  1
  H+  H271  1  0.59316340  0.14879964  0.81685015  1
  H+  H272  1  0.05977243  0.17919464  0.90710644  1
  H+  H273  1  0.26474751  0.88790596  0.52397298  1
  H+  H274  1  -0.03614115  0.85829143  0.15176695  1
  H+  H275  1  0.60121736  0.13821128  0.67518068  1
  H+  H276  1  0.83206185  0.91730437  0.76294406  1
  H+  H277  1  0.36676026  0.10986260  0.85164249  1
  H+  H278  1  0.52267892  0.38853287  0.49471059  1
  H+  H279  1  0.12915083  0.60969087  0.16923387  1
  H+  H280  1  0.34749024  0.07859992  1.00726131  1
  H+  H281  1  0.27289589  0.38505139  0.48964600  1
  H+  H282  1  0.78355884  0.62359189  -0.01401101  1
  H+  H283  1  0.10200586  -0.02468976  0.82489920  1
  H+  H284  1  0.60596214  0.47387604  0.16656389  1
  H+  H285  1  0.15362192  0.28225491  0.84269983  1
  H+  H286  1  0.89671204  0.91125125  0.03421590  1
  H+  H287  1  0.07359507  0.40725546  0.43246437  1
  H+  H288  1  0.59037210  0.81607984  0.93670141  1
  H+  H289  1  0.77906220  0.63996638  0.82875744  1
  H+  H290  1  0.08572339  0.66237890  0.10342011  1
  H+  H291  1  0.11464820  0.29854842  0.96574025  1
  H+  H292  1  0.84270383  0.95179533  0.05419786  1
  H+  H293  1  0.40595182  0.84246045  0.91213866  1
  H+  H294  1  0.15092113  0.37361188  0.64995388  1
  H+  H295  1  0.89846551  0.07802812  0.59044810  1
  H+  H296  1  0.41299349  0.32524542  0.56514718  1
  H+  H297  1  0.40557716  0.07750684  0.56811470  1
  H+  H298  1  0.82718876  0.16383698  0.72170923  1
  H+  H299  1  0.50728245  0.43524274  0.03257474  1
  H+  H300  1  0.97251394  0.35448289  0.32234888  1
  H+  H301  1  0.96497007  0.59821733  0.31586553  1
  H+  H302  1  0.12287977  0.89789715  0.51037460  1
  H+  H303  1  0.35050347  0.42437956  0.72101917  1
  H+  H304  1  0.61164473  0.71860688  0.67303577  1
  H+  H305  1  0.85489701  0.67923431  0.73040207  1
  H+  H306  1  0.48057396  0.31379194  0.97896114  1
  H+  H307  1  0.08804378  0.42452336  0.10686740  1
  H+  H308  1  0.79087748  0.44680872  0.44954110  1
  H+  H309  1  0.53993639  0.65083515  0.10842418  1
  H+  H310  1  0.07569526  0.14188464  0.07906820  1
  H+  H311  1  0.40263998  0.41270552  0.81586215  1
  H+  H312  1  0.85660253  0.88151465  0.17821966  1
  H+  H313  1  0.20600229  0.37305852  0.87391299  1
  H+  H314  1  0.92024892  0.32801485  0.89038602  1
  H+  H315  1  0.09444540  0.91893848  0.72234220  1
  H+  H316  1  0.42273817  0.56391353  0.92062559  1
  H+  H317  1  0.21320504  0.87881055  -0.00396576  1
  H+  H318  1  0.65660814  0.82993064  0.27359824  1
  H+  H319  1  0.42024975  0.54298283  0.15724620  1
  H+  H320  1  0.84176641  0.67105798  0.42481640  1
  H+  H321  1  0.33002191  0.41383092  0.39753678  1
  H+  H322  1  0.62528756  0.34261982  0.33000815  1
  H+  H323  1  0.29736797  0.86756546  0.43463415  1
  H+  H324  1  0.65790988  0.10286884  0.86885932  1
  H+  H325  1  0.05973808  0.15578300  0.74455007  1
  H+  H326  1  0.32581817  0.15531269  0.09068268  1
  H+  H327  1  0.51184450  0.88922985  0.83538678  1
  H+  H328  1  0.57874343  0.42388562  0.10290103  1
  H+  H329  1  0.36492674  0.39477016  0.33525318  1
  H+  H330  1  0.34570256  0.89432705  0.84080802  1
  H+  H331  1  0.60172933  0.22793777  0.67163884  1
  H+  H332  1  0.43506050  0.12679119  0.23564882  1
  H+  H333  1  0.90598949  0.08465243  0.23353120  1
  H+  H334  1  0.07384223  0.15420473  0.43840209  1
  H+  H335  1  0.88083549  0.02176817  0.49811009  1
  H+  H336  1  0.58379250  0.41502192  0.40092411  1
  H+  H337  1  0.65627273  0.07485049  0.60116224  1
  H+  H338  1  0.57974557  0.89820768  0.40882131  1
  H+  H339  1  0.93257053  0.60172227  0.60003401  1
  H+  H340  1  0.30980449  0.15515373  0.77223139  1
  H+  H341  1  0.15250858  0.05829322  0.94819232  1
  H+  H342  1  0.58136631  0.66646178  0.43785761  1
  H+  H343  1  0.68274068  0.06124561  0.95483461  1
  H+  H344  1  0.90660902  0.57954747  0.22276516  1
  H+  H345  1  0.66980284  0.33296051  0.92314770  1
  H+  H346  1  0.20998245  0.87180437  0.85428436  1
  H+  H347  1  0.86783470  0.38619312  0.99720925  1
  H+  H348  1  0.14369982  0.83624740  0.94405837  1
  H+  H349  1  0.79512691  0.65666117  0.09235835  1
  H+  H350  1  0.37203732  0.10835096  0.32247816  1
  H+  H351  1  0.83632610  0.40439327  0.38730193  1
  H+  H352  1  0.91944030  0.35610507  0.60101947  1
  H+  H353  1  0.10092150  0.70759030  0.72431247  1
  H+  H354  1  0.96263086  0.11667797  0.32376895  1
  H+  H355  1  0.90673846  0.83802717  0.59564306  1
  H+  H356  1  0.68916292  0.59404700  0.56124434  1
  H+  H357  1  0.35148342  0.41737849  0.09564977  1
  H+  H358  1  0.30725418  0.92949092  0.75246681  1
  H+  H359  1  0.51273674  0.85810363  0.50338442  1
  H+  H360  1  0.17146638  0.33782678  0.55778258  1
  H+  H361  1  0.69981365  0.81959024  0.89629275  1
  H+  H362  1  0.33010268  0.16394106  0.39243879  1
  H+  H363  1  0.41496798  0.58515065  0.59260947  1
  H+  H364  1  0.61919293  0.09844791  0.33599522  1
  H+  H365  1  0.56476923  0.90825670  0.73343404  1
  H+  H366  1  0.11562204  0.58114677  0.76609020  1
  H+  H367  1  0.88302342  0.93432580  0.39483051  1
  H+  H368  1  0.10742850  0.46867148  0.33951981  1
  H+  H369  1  0.81954894  0.41053147  0.77407056  1
  H+  H370  1  0.35940934  0.86926460  0.13287335  1
  H+  H371  1  0.17802431  0.59109625  0.94877624  1
  H+  H372  1  0.85040571  0.22078994  0.33684680  1
  H+  H373  1  0.07639213  0.12490192  0.74672045  1
  H+  H374  1  0.56292883  0.14790924  0.40188493  1
  H+  H375  1  0.65895063  0.32770232  0.60420468  1
  H+  H376  1  0.17120711  0.08301480  0.55859129  1
  H+  H377  1  0.39527541  0.23226516  -0.03807987  1
  H+  H378  1  0.10904658  0.38067154  0.33697270  1
  H+  H379  1  0.33242804  0.67501342  0.11813379  1
  H+  H380  1  0.82159406  0.16776550  0.43383902  1
  H+  H381  1  0.62488318  0.62982440  0.84052660  1
  H+  H382  1  0.07393850  0.65621830  0.43354565  1
  H+  H383  1  0.84068194  0.17257043  0.07340736  1
  O2-  O384  1  0.07215282  0.15698577  0.15071065  1
  O2-  O385  1  0.07656926  0.16553818  0.48325826  1
  O2-  O386  1  0.08143474  0.17741541  0.86624953  1
  O2-  O387  1  0.09240117  0.42643849  0.15285304  1
  O2-  O388  1  0.07657038  0.40804030  0.47761450  1
  O2-  O389  1  0.07903485  0.40724151  0.79572710  1
  O2-  O390  1  0.08397092  0.65640794  0.14891933  1
  O2-  O391  1  0.07587518  0.65912077  0.47808503  1
  O2-  O392  1  0.08357815  0.68619430  0.81166723  1
  O2-  O393  1  0.07700825  0.90425416  0.11739344  1
  O2-  O394  1  0.09099152  0.91446726  0.48081447  1
  O2-  O395  1  0.07659786  0.91827067  0.80517811  1
  O2-  O396  1  0.31804204  0.15920946  0.13487072  1
  O2-  O397  1  0.33644035  0.17008650  0.47450601  1
  O2-  O398  1  0.30712862  0.15592727  0.81825883  1
  O2-  O399  1  0.34342755  0.42404911  0.13944069  1
  O2-  O400  1  0.33424526  0.41568439  0.47563036  1
  O2-  O401  1  0.36404603  0.43252727  0.79880184  1
  O2-  O402  1  0.32758776  0.66569576  0.16315663  1
  O2-  O403  1  0.33349857  0.66068555  0.47315908  1
  O2-  O404  1  0.33995025  0.67136598  0.82236145  1
  O2-  O405  1  0.32049783  0.86566649  0.09960749  1
  O2-  O406  1  0.31358117  0.89527582  0.49400514  1
  O2-  O407  1  0.31410356  0.92400714  0.82865759  1
  O2-  O408  1  0.59815446  0.18727737  0.15262701  1
  O2-  O409  1  0.57683559  0.16237620  0.48371339  1
  O2-  O410  1  0.56371901  0.18194513  0.81000736  1
  O2-  O411  1  0.58212109  0.41522637  0.14831720  1
  O2-  O412  1  0.58381586  0.41898343  0.48072893  1
  O2-  O413  1  0.56804542  0.43282808  0.83245900  1
  O2-  O414  1  0.54000356  0.64908924  0.15446090  1
  O2-  O415  1  0.57849338  0.66856037  0.48334217  1
  O2-  O416  1  0.59220692  0.66611597  0.81694718  1
  O2-  O417  1  0.57636088  0.91931899  0.16422841  1
  O2-  O418  1  0.57612024  0.88357147  0.49366484  1
  O2-  O419  1  0.56966768  0.91757532  0.81494759  1
  O2-  O420  1  0.82766746  0.16369065  0.14941222  1
  O2-  O421  1  0.82117193  0.16789078  0.47944860  1
  O2-  O422  1  0.83027073  0.17081709  0.79293632  1
  O2-  O423  1  0.83392593  0.41956338  0.13613328  1
  O2-  O424  1  0.82131019  0.43257078  0.47992057  1
  O2-  O425  1  0.82186001  0.41701659  0.82153956  1
  O2-  O426  1  0.80872668  0.65859738  0.13613552  1
  O2-  O427  1  0.84250350  0.67306715  0.47015341  1
  O2-  O428  1  0.83986198  0.67173996  0.81671436  1
  O2-  O429  1  0.82305506  0.91056939  0.19248682  1
  O2-  O430  1  0.84560457  0.91932897  0.46836232  1
  O2-  O431  1  0.83208834  0.91909830  0.80885548  1
  O2-  O432  1  0.15108199  0.06107337  0.17224573  1
  O2-  O433  1  0.16995738  0.08502211  0.51323470  1
  O2-  O434  1  0.15233255  0.07193174  0.87698085  1
  O2-  O435  1  0.16946117  0.33722905  0.18245789  1
  O2-  O436  1  0.16693205  0.33303220  0.51227836  1
  O2-  O437  1  0.19246089  0.34499737  0.83432822  1
  O2-  O438  1  0.16215488  0.57852722  0.18490318  1
  O2-  O439  1  0.16149665  0.58158035  0.51421875  1
  O2-  O440  1  0.16631249  0.58120014  0.78242845  1
  O2-  O441  1  0.18319550  0.84057579  0.17166700  1
  O2-  O442  1  0.20024523  0.90074740  0.56216880  1
  O2-  O443  1  0.14804101  0.83945330  0.86686018  1
  O2-  O444  1  0.45611592  0.16034809  0.19695892  1
  O2-  O445  1  0.40997796  0.07795413  0.52280587  1
  O2-  O446  1  0.39946214  0.08290468  0.86715252  1
  O2-  O447  1  0.40830527  0.32440053  0.17916175  1
  O2-  O448  1  0.41584440  0.33147877  0.52017104  1
  O2-  O449  1  0.47956955  0.40021117  0.85505208  1
  O2-  O450  1  0.44612564  0.60318637  0.17352924  1
  O2-  O451  1  0.41432864  0.57863937  0.52127401  1
  O2-  O452  1  0.42988980  0.58821261  0.84818189  1
  O2-  O453  1  0.40891560  0.84260876  0.20282894  1
  O2-  O454  1  0.40695454  0.81679829  0.51856957  1
  O2-  O455  1  0.40900534  0.84176726  0.86712579  1
  O2-  O456  1  0.66557822  0.08755282  0.19829349  1
  O2-  O457  1  0.65957436  0.07217539  0.52435311  1
  O2-  O458  1  0.65726526  0.09331064  0.82518180  1
  O2-  O459  1  0.67453045  0.34773189  0.17204398  1
  O2-  O460  1  0.65684193  0.32747038  0.52647890  1
  O2-  O461  1  0.65932634  0.33919712  0.86151610  1
  O2-  O462  1  0.64823566  0.57949643  0.19031559  1
  O2-  O463  1  0.67856057  0.59228450  0.51645657  1
  O2-  O464  1  0.66175261  0.59372164  0.86299373  1
  O2-  O465  1  0.65663603  0.82973123  0.18833207  1
  O2-  O466  1  0.60078122  0.82979332  0.53086401  1
  O2-  O467  1  0.67841007  0.82588071  0.85658970  1
  O2-  O468  1  0.90459853  0.07527335  0.18785846  1
  O2-  O469  1  0.90505534  0.08105441  0.51496248  1
  O2-  O470  1  0.91121663  0.08846116  0.84711734  1
  O2-  O471  1  0.91485836  0.33358423  0.18287438  1
  O2-  O472  1  0.90889694  0.33968499  0.51617479  1
  O2-  O473  1  0.91515429  0.32810009  0.84552466  1
  O2-  O474  1  0.91222300  0.58386354  0.17702476  1
  O2-  O475  1  0.92010986  0.58584755  0.51917108  1
  O2-  O476  1  0.91953779  0.58368220  0.85509098  1
  O2-  O477  1  0.90918693  0.82977320  0.17489464  1
  O2-  O478  1  0.91922698  0.83738419  0.51240795  1
  O2-  O479  1  0.91535483  0.83748377  0.85418582  1
  O2-  O480  1  0.15910128  0.07598625  0.30370533  1
  O2-  O481  1  0.16534655  0.08228086  0.63798064  1
  O2-  O482  1  0.15338581  0.05921834  0.99517597  1
  O2-  O483  1  0.16552689  0.32855664  0.30797100  1
  O2-  O484  1  0.17654013  0.33808694  0.63482553  1
  O2-  O485  1  0.14509001  0.31762827  1.00460889  1
  O2-  O486  1  0.16017719  0.57674093  0.31634076  1
  O2-  O487  1  0.24656616  0.60362269  0.68417085  1
  O2-  O488  1  0.17519409  0.59084681  0.99316975  1
  O2-  O489  1  0.25275470  0.91761885  0.30036362  1
  O2-  O490  1  0.17969282  0.86611439  0.62513733  1
  O2-  O491  1  0.15150635  0.83552731  0.98940826  1
  O2-  O492  1  0.39529381  0.07222535  0.30310578  1
  O2-  O493  1  0.40493241  0.08344077  0.64818784  1
  O2-  O494  1  0.45721473  0.17660863  1.02763663  1
  O2-  O495  1  0.44644136  0.38958955  0.29550076  1
  O2-  O496  1  0.41105506  0.32009856  0.64864135  1
  O2-  O497  1  0.42931320  0.29455273  0.95362958  1
  O2-  O498  1  0.41643636  0.58121605  0.30913072  1
  O2-  O499  1  0.41663101  0.58609156  0.63946260  1
  O2-  O500  1  0.41710102  0.55009501  0.96561217  1
  O2-  O501  1  0.40962074  0.83115360  0.32985946  1
  O2-  O502  1  0.41193804  0.79943069  0.64336123  1
  O2-  O503  1  0.40022845  0.84129966  0.99751268  1
  O2-  O504  1  0.65535679  0.07355527  0.32093343  1
  O2-  O505  1  0.65822078  0.07690040  0.64705260  1
  O2-  O506  1  0.67820846  0.08140814  0.99498281  1
  O2-  O507  1  0.64703878  0.30462420  0.31621225  1
  O2-  O508  1  0.65618822  0.32748388  0.64968174  1
  O2-  O509  1  0.67883721  0.33242537  0.97239094  1
  O2-  O510  1  0.66829699  0.58295545  0.31566339  1
  O2-  O511  1  0.70114166  0.59953662  0.64011471  1
  O2-  O512  1  0.67089482  0.60701542  0.98627104  1
  O2-  O513  1  0.65942888  0.83328764  0.31832142  1
  O2-  O514  1  0.65618128  0.82619554  0.65589751  1
  O2-  O515  1  0.56112423  0.79235247  0.97519431  1
  O2-  O516  1  0.90422809  0.08859630  0.30604571  1
  O2-  O517  1  0.90351455  0.08378371  0.63623531  1
  O2-  O518  1  0.96095542  0.15376315  0.96326544  1
  O2-  O519  1  0.91192922  0.32394208  0.30685056  1
  O2-  O520  1  0.92737075  0.36311931  0.64546457  1
  O2-  O521  1  0.91887837  0.33604803  0.97530460  1
  O2-  O522  1  0.90532866  0.57035194  0.29918902  1
  O2-  O523  1  0.93711758  0.60933760  0.64478778  1
  O2-  O524  1  0.93496233  0.58323656  0.97324861  1
  O2-  O525  1  0.94104697  0.83349375  0.29642763  1
  O2-  O526  1  0.90190468  0.84106054  0.64026125  1
  O2-  O527  1  0.91733539  0.83549594  0.98316619  1
  O2-  O528  1  0.08630980  0.14387859  0.03345413  1
  O2-  O529  1  0.05329659  0.11534252  0.36472463  1
  O2-  O530  1  0.07755725  0.16945249  0.62697476  1
  O2-  O531  1  0.07975651  0.42399060  0.03286621  1
  O2-  O532  1  0.07514501  0.40699029  0.35162353  1
  O2-  O533  1  0.11149313  0.43358313  0.67129412  1
  O2-  O534  1  0.09380825  0.67173999  0.02565988  1
  O2-  O535  1  0.06775597  0.65186141  0.34648348  1
  O2-  O536  1  0.10638763  0.69739885  0.68099036  1
  O2-  O537  1  0.07342020  0.90841834  0.04913936  1
  O2-  O538  1  0.10621577  0.91536852  0.35075295  1
  O2-  O539  1  0.09955331  0.92368687  0.67728680  1
  O2-  O540  1  0.36420963  0.14002718  0.01452282  1
  O2-  O541  1  0.32987008  0.16094555  0.34738391  1
  O2-  O542  1  0.31955784  0.15936469  0.69600704  1
  O2-  O543  1  0.39857534  0.40817385  0.02286872  1
  O2-  O544  1  0.32618960  0.41475164  0.35191532  1
  O2-  O545  1  0.34242312  0.41778489  0.67610594  1
  O2-  O546  1  0.33630234  0.67842220  0.04063209  1
  O2-  O547  1  0.32618985  0.65828211  0.34878976  1
  O2-  O548  1  0.34115199  0.65041972  0.69516901  1
  O2-  O549  1  0.31813970  0.96682804  0.00767073  1
  O2-  O550  1  0.28943272  0.84223581  0.38785687  1
  O2-  O551  1  0.31299273  0.92559432  0.70695958  1
  O2-  O552  1  0.60565453  0.17917360  0.02224727  1
  O2-  O553  1  0.56049409  0.14258685  0.35683443  1
  O2-  O554  1  0.56903791  0.16695624  0.68782265  1
  O2-  O555  1  0.56334719  0.43644330  0.03271853  1
  O2-  O556  1  0.58573582  0.41462930  0.35549970  1
  O2-  O557  1  0.58868707  0.43443636  0.65710439  1
  O2-  O558  1  0.56413712  0.66104896  0.02940848  1
  O2-  O559  1  0.58356533  0.66361048  0.36015773  1
  O2-  O560  1  0.58288271  0.65499569  0.67974138  1
  O2-  O561  1  0.56382638  0.92083821  0.04126830  1
  O2-  O562  1  0.57497672  0.90415632  0.36453361  1
  O2-  O563  1  0.56664745  0.90554485  0.68832574  1
  O2-  O564  1  0.84047872  0.17679806  0.02768520  1
  O2-  O565  1  0.82144936  0.16227482  0.35540562  1
  O2-  O566  1  0.81917818  0.15228482  0.67573309  1
  O2-  O567  1  0.83630747  0.41657239  0.01156686  1
  O2-  O568  1  0.82922992  0.40441445  0.34315462  1
  O2-  O569  1  0.81680311  0.39823844  0.70703590  1
  O2-  O570  1  0.76158286  0.65558639  0.00879449  1
  O2-  O571  1  0.83930865  0.66850635  0.34448716  1
  O2-  O572  1  0.85630726  0.68239201  0.68566784  1
  O2-  O573  1  0.89372423  0.94911784  0.06521619  1
  O2-  O574  1  0.91354717  0.95178341  0.35486923  1
  O2-  O575  1  0.82379464  0.91497402  0.68655507  1
