# generated using pymatgen
data_H2O
_symmetry_space_group_name_H-M   'P 1'
_cell_length_a   17.98882075
_cell_length_b   17.99068643
_cell_length_c   22.00053355
_cell_angle_alpha   90.00006344
_cell_angle_beta   89.99138237
_cell_angle_gamma   120.00229061
_symmetry_Int_Tables_number   1
_chemical_formula_structural   H2O
_chemical_formula_sum   'H384 O192'
_cell_volume   6166.01024652
_cell_formula_units_Z   192
loop_
 _symmetry_equiv_pos_site_id
 _symmetry_equiv_pos_as_xyz
  1  'x, y, z'
loop_
 _atom_type_symbol
 _atom_type_oxidation_number
  H+  1.0
  O2-  -2.0
loop_
 _atom_site_type_symbol
 _atom_site_label
 _atom_site_symmetry_multiplicity
 _atom_site_fract_x
 _atom_site_fract_y
 _atom_site_fract_z
 _atom_site_occupancy
  H+  H0  1  0.15503002  0.30653212  0.29026191  1
  H+  H1  1  0.36955612  0.98349444  0.67770602  1
  H+  H2  1  0.25754877  0.34243159  0.14109519  1
  H+  H3  1  0.62866525  0.26319116  0.83809749  1
  H+  H4  1  0.10926605  0.50408846  0.68261088  1
  H+  H5  1  0.83740996  0.49938546  0.67235525  1
  H+  H6  1  0.35970463  0.47259075  0.33642184  1
  H+  H7  1  0.77493004  0.63680507  0.82849750  1
  H+  H8  1  0.96659912  0.35794661  0.33452347  1
  H+  H9  1  0.97532098  0.61356715  0.32985937  1
  H+  H10  1  0.26180036  0.37749386  0.47187780  1
  H+  H11  1  0.28706705  0.66068046  0.65757418  1
  H+  H12  1  0.62937104  0.85817968  0.50188116  1
  H+  H13  1  0.39987701  0.78618333  0.66380232  1
  H+  H14  1  0.82189665  0.92159611  0.43044765  1
  H+  H15  1  0.13457661  -0.01607254  0.82749698  1
  H+  H16  1  0.31569796  0.66567266  0.07019568  1
  H+  H17  1  0.39209028  0.61431152  0.51749553  1
  H+  H18  1  0.60953919  0.13143557  0.47854114  1
  H+  H19  1  0.26317642  0.38065438  -0.00830517  1
  H+  H20  1  0.15393697  0.64280549  0.63137827  1
  H+  H21  1  0.64814556  0.61917766  0.83251880  1
  H+  H22  1  0.55298123  0.66011810  0.80879831  1
  H+  H23  1  0.63847275  0.52900992  0.50276776  1
  H+  H24  1  0.37914784  0.89531909  0.33821228  1
  H+  H25  1  0.87211302  0.88919562  0.67724635  1
  H+  H26  1  0.34916581  0.62768518  0.01843075  1
  H+  H27  1  0.89576301  0.35690235  0.85712174  1
  H+  H28  1  0.97320257  0.61798936  0.83554647  1
  H+  H29  1  0.52130618  0.13284126  0.49478544  1
  H+  H30  1  1.01518170  0.63419368  0.49416840  1
  H+  H31  1  0.52218007  0.88465559  0.16290114  1
  H+  H32  1  0.86030190  0.12816866  0.15832664  1
  H+  H33  1  0.86733371  0.74122305  0.83479125  1
  H+  H34  1  0.65552635  0.78870317  0.83481441  1
  H+  H35  1  0.89869887  0.77959489  0.17423540  1
  H+  H36  1  0.12369557  0.51408137  0.83949242  1
  H+  H37  1  0.97469480  0.60369789  0.16754083  1
  H+  H38  1  0.26914599  0.15038498  1.00444072  1
  H+  H39  1  0.62372856  0.80458440  0.38614498  1
  H+  H40  1  0.15143623  0.03091956  0.66316561  1
  H+  H41  1  0.27620004  0.88543116  0.49404729  1
  H+  H42  1  0.86026460  0.63166196  0.64426286  1
  H+  H43  1  0.26131713  0.12343792  0.15257306  1
  H+  H44  1  0.36963113  0.51582752  0.85640965  1
  H+  H45  1  0.42576218  0.58712258  0.60798338  1
  H+  H46  1  0.16324830  0.33655182  0.50268927  1
  H+  H47  1  0.63562318  0.77330028  0.99057648  1
  H+  H48  1  0.81907867  0.41614124  0.39571124  1
  H+  H49  1  0.10426322  0.71358079  0.14078097  1
  H+  H50  1  0.63563433  0.35522089  0.83419776  1
  H+  H51  1  0.38134617  0.10872138  0.84247087  1
  H+  H52  1  0.65338420  0.61747469  0.17908770  1
  H+  H53  1  0.86745238  0.63387092  0.32604887  1
  H+  H54  1  0.75927233  0.13003133  0.83172085  1
  H+  H55  1  0.83813332  0.22553542  0.01371322  1
  H+  H56  1  0.03813203  0.89484442  0.67743495  1
  H+  H57  1  0.37931207  0.76757787  0.99153328  1
  H+  H58  1  0.12650414  0.14288095  0.82564598  1
  H+  H59  1  0.12873889  0.89753026  0.66927443  1
  H+  H60  1  0.91127803  0.10077423  0.93515361  1
  H+  H61  1  0.62104134  0.26597030  0.16524328  1
  H+  H62  1  0.78291826  -0.10904594  0.66975108  1
  H+  H63  1  0.02936990  -0.10966109  0.35158290  1
  H+  H64  1  0.60150410  0.45563790  0.33412152  1
  H+  H65  1  0.10928259  0.12904867  0.34437156  1
  H+  H66  1  0.13692022  0.36651254  0.84113290  1
  H+  H67  1  0.52146392  0.62876927  1.00704456  1
  H+  H68  1  0.08165628  0.39049202  0.49543355  1
  H+  H69  1  0.60870150  0.14659955  0.33562015  1
  H+  H70  1  0.52669140  0.39135235  0.81878688  1
  H+  H71  1  0.84599462  0.97094599  0.49450621  1
  H+  H72  1  0.27472911  0.38710266  0.83739772  1
  H+  H73  1  0.65826994  0.31161693  0.60867284  1
  H+  H74  1  0.26272493  0.88380063  0.82640150  1
  H+  H75  1  0.11621618  0.72741498  0.83079028  1
  H+  H76  1  0.76717826  0.38807810  0.33254966  1
  H+  H77  1  0.28188153  0.14139463  0.49699084  1
  H+  H78  1  0.25747006  0.64025231  0.16516276  1
  H+  H79  1  0.53055115  0.87959542  0.82923861  1
  H+  H80  1  0.89840847  0.79017723  0.32539680  1
  H+  H81  1  0.86750764  0.36326065  0.50620480  1
  H+  H82  1  0.10688106  0.63306877  0.82731739  1
  H+  H83  1  0.90978159  0.34202058  0.60580854  1
  H+  H84  1  0.42423566  0.82497634  0.89773666  1
  H+  H85  1  0.60650195  0.12652424  0.83425074  1
  H+  H86  1  0.27674012  0.09677230  0.34575126  1
  H+  H87  1  0.64135972  0.34327352  0.67191085  1
  H+  H88  1  0.88929817  1.02123738  0.17326186  1
  H+  H89  1  0.58661905  0.78705492  0.36436921  1
  H+  H90  1  -0.01196334  0.86872517  -0.01272734  1
  H+  H91  1  0.37184131  0.31813338  0.16598351  1
  H+  H92  1  0.01493263  0.69714724  0.69691578  1
  H+  H93  1  0.61355957  0.33240695  0.52174147  1
  H+  H94  1  0.37869841  0.78234060  0.17866248  1
  H+  H95  1  0.87910697  0.36145751  0.32915441  1
  H+  H96  1  0.10727310  0.21334728  0.35825390  1
  H+  H97  1  0.57722154  0.91143210  0.06627143  1
  H+  H98  1  0.89675961  0.77916389  0.67128477  1
  H+  H99  1  0.02133847  0.37598421  0.84435754  1
  H+  H100  1  0.08150748  0.20247207  0.49879699  1
  H+  H101  1  0.90189059  0.26147396  0.17749522  1
  H+  H102  1  0.36937951  0.04591406  0.34480904  1
  H+  H103  1  0.11307761  0.88279052  0.35948926  1
  H+  H104  1  0.99003800  0.85940190  0.52481438  1
  H+  H105  1  0.86554089  0.89823095  0.33518792  1
  H+  H106  1  0.61003253  0.88163200  0.15698797  1
  H+  H107  1  0.15179041  0.12034086  0.66358827  1
  H+  H108  1  0.87883371  0.85401148  0.83810097  1
  H+  H109  1  0.65212054  0.78633709  0.65446031  1
  H+  H110  1  0.34085434  0.92342560  0.43704491  1
  H+  H111  1  0.77607955  0.37529182  0.83833019  1
  H+  H112  1  0.84734306  0.12967488  0.82183489  1
  H+  H113  1  0.39228741  0.36462705  -0.01670371  1
  H+  H114  1  0.14324641  0.78500148  0.66382281  1
  H+  H115  1  0.93966938  0.36801000  0.99891495  1
  H+  H116  1  0.07686951  0.38147429  0.99474861  1
  H+  H117  1  0.39589676  0.66587524  0.35933970  1
  H+  H118  1  0.45911187  0.34388166  0.32623166  1
  H+  H119  1  0.51686948  0.87977436  0.48976323  1
  H+  H120  1  0.86474145  0.98646031  0.33631529  1
  H+  H121  1  0.37944700  0.51329349  0.00454240  1
  H+  H122  1  0.59609706  0.46526514  0.16849910  1
  H+  H123  1  0.27693298  0.63475636  0.50108420  1
  H+  H124  1  0.21371459  0.60806591  0.99198145  1
  H+  H125  1  0.52915788  0.64368452  0.50541494  1
  H+  H126  1  0.48529106  0.88666908  0.32723436  1
  H+  H127  1  0.07362704  0.68011565  0.74075099  1
  H+  H128  1  0.85437835  0.98895110  0.01037459  1
  H+  H129  1  0.38864001  0.02162043  0.51302692  1
  H+  H130  1  0.13897211  0.11133405  0.51295437  1
  H+  H131  1  0.61662890  0.09976195  0.99724052  1
  H+  H132  1  0.10609955  0.49253757  0.48741825  1
  H+  H133  1  0.53715277  0.64742442  0.67163313  1
  H+  H134  1  0.48469560  0.10631300  0.66824667  1
  H+  H135  1  -0.04551678  0.58903584  -0.01676704  1
  H+  H136  1  0.12087948  0.46520186  0.15854225  1
  H+  H137  1  0.63155644  0.01577318  0.84474532  1
  H+  H138  1  0.63340511  0.27237674  0.32149205  1
  H+  H139  1  0.86770182  0.88922804  0.15647872  1
  H+  H140  1  0.23742822  0.12168947  0.84231096  1
  H+  H141  1  0.46773913  0.85518512  0.99234592  1
  H+  H142  1  0.08035856  0.52022068  0.69380809  1
  H+  H143  1  0.03064849  0.13664587  0.67486851  1
  H+  H144  1  0.77959498  0.13709769  0.57230288  1
  H+  H145  1  0.73778532  0.90299189  0.30971836  1
  H+  H146  1  0.97276166  0.11637528  0.33015938  1
  H+  H147  1  0.08622390  0.49843332  0.31452145  1
  H+  H148  1  0.07609400  0.34407485  0.68787765  1
  H+  H149  1  0.76878005  0.89791290  0.00990898  1
  H+  H150  1  0.10387275  0.37962111  0.34963303  1
  H+  H151  1  0.33931233  0.48334148  0.19553098  1
  H+  H152  1  0.39501530  0.36513491  0.84597723  1
  H+  H153  1  0.62926213  0.59081579  0.34024453  1
  H+  H154  1  0.37880622  0.48013364  0.20368045  1
  H+  H155  1  0.87788705  0.12775042  0.99361135  1
  H+  H156  1  0.37583800  0.23124326  0.82929491  1
  H+  H157  1  0.89429967  0.02451439  0.67063177  1
  H+  H158  1  0.62928389  0.02109467  0.48022313  1
  H+  H159  1  0.85117827  0.46375265  0.15806290  1
  H+  H160  1  0.64485757  0.76874585  0.16557561  1
  H+  H161  1  0.34597661  0.17148145  0.76997042  1
  H+  H162  1  0.78068363  0.89295495  0.82764362  1
  H+  H163  1  0.61043660  0.20142654  0.67778703  1
  H+  H164  1  0.14036187  0.01937214  0.17073533  1
  H+  H165  1  0.90021536  0.78339943  0.99705520  1
  H+  H166  1  0.61392903  0.63312026  0.00082598  1
  H+  H167  1  0.65905203  0.32902838  0.25913692  1
  H+  H168  1  0.85396498  0.13871211  0.67685739  1
  H+  H169  1  0.39273027  0.77050580  0.83635776  1
  H+  H170  1  0.64159163  0.52689835  0.83252628  1
  H+  H171  1  0.72183134  0.86324082  0.49966905  1
  H+  H172  1  0.49947140  0.67817087  0.18349761  1
  H+  H173  1  0.85641378  0.23020941  0.34494911  1
  H+  H174  1  0.54117574  0.90422248  0.67625290  1
  H+  H175  1  0.38721932  0.86331642  0.51045347  1
  H+  H176  1  0.82431803  0.67365955  0.28595130  1
  H+  H177  1  0.61865670  0.73367727  0.49819440  1
  H+  H178  1  0.63549832  1.02095852  0.17155577  1
  H+  H179  1  0.54067093  0.59208076  0.14313567  1
  H+  H180  1  0.64610296  0.87321753  0.83842305  1
  H+  H181  1  0.08967092  0.58880024  0.31508420  1
  H+  H182  1  0.71956681  0.59444759  0.33231200  1
  H+  H183  1  0.51535352  0.12310923  0.16575282  1
  H+  H184  1  0.13537227  0.85837460  0.15959891  1
  H+  H185  1  -0.00977654  0.34849556  0.69132824  1
  H+  H186  1  0.88497530  0.12011779  0.32781586  1
  H+  H187  1  0.27992222  0.89244931  0.67424479  1
  H+  H188  1  0.03698565  0.36978784  0.16677424  1
  H+  H189  1  0.95446311  0.59925167  0.64289703  1
  H+  H190  1  -0.04095342  0.37135398  0.50461732  1
  H+  H191  1  0.51752419  0.12595826  0.83293896  1
  H+  H192  1  0.62794905  0.25392335  0.50923692  1
  H+  H193  1  0.44750996  0.61104810  0.86511212  1
  H+  H194  1  0.65098235  0.35171389  0.99408073  1
  H+  H195  1  0.33993528  0.62692797  0.82488851  1
  H+  H196  1  0.37612024  0.22513598  0.48947501  1
  H+  H197  1  0.47754993  0.60332009  0.34256276  1
  H+  H198  1  0.89298103  0.02107309  0.81604894  1
  H+  H199  1  0.87322211  0.10769581  0.53010379  1
  H+  H200  1  0.22084413  0.98171461  0.03753281  1
  H+  H201  1  0.24483315  0.87804320  0.33054518  1
  H+  H202  1  0.10172873  0.63006383  -0.00561715  1
  H+  H203  1  0.71982399  0.60069147  0.66272155  1
  H+  H204  1  0.40519722  0.53562893  0.67113803  1
  H+  H205  1  0.88349535  0.61089010  0.49814705  1
  H+  H206  1  0.75893215  0.38449600  0.49624088  1
  H+  H207  1  0.08367629  0.47191539  -0.00542943  1
  H+  H208  1  0.78276857  0.40135302  0.68703637  1
  H+  H209  1  0.89035811  0.26844643  0.84639562  1
  H+  H210  1  0.38903264  0.11055409  0.51291443  1
  H+  H211  1  0.85966191  0.46169367  0.82244081  1
  H+  H212  1  0.37863360  0.13927920  0.67700398  1
  H+  H213  1  0.13221108  0.12129708  0.99423465  1
  H+  H214  1  0.60441241  0.36846375  0.33111933  1
  H+  H215  1  0.21095880  0.60569193  0.83357572  1
  H+  H216  1  0.38911631  1.01325833  0.17595994  1
  H+  H217  1  0.14753197  0.87043071  0.83639849  1
  H+  H218  1  0.38340750  0.26421939  0.65827666  1
  H+  H219  1  0.01779290  0.14465111  0.00685155  1
  H+  H220  1  0.85890000  0.57085390  -0.01224669  1
  H+  H221  1  0.24333013  0.88437387  0.98386449  1
  H+  H222  1  0.66281876  0.42799834  0.46818677  1
  H+  H223  1  0.03624280  0.14072239  0.81738034  1
  H+  H224  1  0.39417417  0.27828518  0.99100765  1
  H+  H225  1  0.36339885  0.20843408  0.15686510  1
  H+  H226  1  0.14418145  0.86324478  0.51155455  1
  H+  H227  1  0.60694763  0.47010039  0.71868055  1
  H+  H228  1  0.07902556  0.67136549  0.40336479  1
  H+  H229  1  0.58086689  0.64778283  0.41841282  1
  H+  H230  1  0.18202209  0.60598917  0.45375836  1
  H+  H231  1  0.35578466  0.66213779  0.16856355  1
  H+  H232  1  0.06689574  0.64863020  0.08562259  1
  H+  H233  1  0.76786203  0.64146795  0.49480326  1
  H+  H234  1  0.54291835  0.38507545  0.00091975  1
  H+  H235  1  0.33444377  0.12746318  0.40518733  1
  H+  H236  1  0.88497201  0.52273011  0.32766701  1
  H+  H237  1  0.15891656  0.58181696  0.92933398  1
  H+  H238  1  0.81989815  0.68448565  0.61253629  1
  H+  H239  1  0.71463168  0.10916889  0.49555535  1
  H+  H240  1  0.32926043  0.92170750  0.76134966  1
  H+  H241  1  0.15293212  0.86929535  -0.00674235  1
  H+  H242  1  0.61083311  0.69652386  0.35585247  1
  H+  H243  1  0.72496764  0.10970967  0.17088579  1
  H+  H244  1  0.77862029  0.35032036  0.00314301  1
  H+  H245  1  0.61718943  0.91443721  0.32699521  1
  H+  H246  1  0.67674698  0.58793856  0.93035218  1
  H+  H247  1  0.67530530  0.09339265  0.64903179  1
  H+  H248  1  0.11519839  0.22317474  0.16153971  1
  H+  H249  1  0.72060142  0.12100666  0.32346813  1
  H+  H250  1  0.62507882  1.01521273  -0.00198657  1
  H+  H251  1  0.14319231  0.27929359  0.83699162  1
  H+  H252  1  0.11301567  0.72899196  0.34276330  1
  H+  H253  1  0.35673734  -0.01864582  0.82755518  1
  H+  H254  1  0.78250937  0.63527189  0.16825266  1
  H+  H255  1  0.58913711  0.20359830  0.00547757  1
  H+  H256  1  0.36642082  0.64441450  0.67083310  1
  H+  H257  1  0.23568153  0.60858382  0.34306271  1
  H+  H258  1  0.32108101  0.66183241  0.76247797  1
  H+  H259  1  0.42400565  0.41623474  0.48344684  1
  H+  H260  1  0.38803409  0.39194465  0.68528696  1
  H+  H261  1  0.90435201  0.57570525  0.88964748  1
  H+  H262  1  0.89752379  0.77525549  0.52061805  1
  H+  H263  1  0.24615850  0.18502044  0.30260408  1
  H+  H264  1  0.73555325  0.62016654  0.98945988  1
  H+  H265  1  0.24708734  0.63947146  0.31708674  1
  H+  H266  1  0.22782851  0.35515933  0.34066313  1
  H+  H267  1  0.41480625  0.53715939  0.50862159  1
  H+  H268  1  0.63076691  0.47148599  -0.00024309  1
  H+  H269  1  0.86909611  0.63973805  0.82793401  1
  H+  H270  1  0.28827942  0.13845122  0.67724102  1
  H+  H271  1  0.12868685  0.27866347  0.99217534  1
  H+  H272  1  0.87183286  0.63444966  0.16692797  1
  H+  H273  1  0.60776345  0.88376727  1.00590989  1
  H+  H274  1  0.84795443  0.47730064  0.49168499  1
  H+  H275  1  0.40278210  0.79529917  0.33893774  1
  H+  H276  1  0.46942360  0.34009152  0.17412495  1
  H+  H277  1  0.60800201  0.99559129  0.33811116  1
  H+  H278  1  0.10261508  0.92035594  0.21122028  1
  H+  H279  1  0.14172831  0.37059712  0.16420423  1
  H+  H280  1  0.28210045  0.88691054  0.13726432  1
  H+  H281  1  -0.01109371  0.86956785  0.17365098  1
  H+  H282  1  0.10467258  0.71970328  -0.00324394  1
  H+  H283  1  0.87156504  0.27761207  0.66102286  1
  H+  H284  1  0.63192216  0.91106230  0.67375802  1
  H+  H285  1  0.12718606  0.26147628  0.65638302  1
  H+  H286  1  0.26455001  0.41915456  0.48194505  1
  H+  H287  1  0.50718708  0.36412439  0.50083550  1
  H+  H288  1  0.36963924  0.89105919  0.15446169  1
  H+  H289  1  0.08664486  0.91571457  0.44937684  1
  H+  H290  1  0.36486177  0.72606141  0.51078394  1
  H+  H291  1  -0.07717733  0.09522286  0.76844684  1
  H+  H292  1  0.41642255  0.59004490  0.18938932  1
  H+  H293  1  0.91844113  0.08365357  0.61287371  1
  H+  H294  1  0.35222835  0.13892195  0.00401169  1
  H+  H295  1  0.59779779  0.37892983  0.15945030  1
  H+  H296  1  0.92944397  0.32057125  0.23706056  1
  H+  H297  1  0.81746599  0.16345973  0.40047487  1
  H+  H298  1  0.06733113  0.39163168  0.78066986  1
  H+  H299  1  0.64886249  0.55806483  0.61315263  1
  H+  H300  1  0.82744503  0.16069394  0.10157641  1
  H+  H301  1  0.41874772  0.04468338  0.24333915  1
  H+  H302  1  0.07050011  0.41681816  0.40360232  1
  H+  H303  1  0.02517084  0.13446064  0.16177839  1
  H+  H304  1  0.41773514  0.84332020  0.23737002  1
  H+  H305  1  0.82695547  0.68119552  0.43618698  1
  H+  H306  1  0.17838066  0.83593373  0.60038739  1
  H+  H307  1  0.81499831  0.16361870  0.73289205  1
  H+  H308  1  0.07852670  0.16925638  0.06559313  1
  H+  H309  1  0.35403490  0.41399939  0.13505346  1
  H+  H310  1  0.17393832  0.09192377  0.89995871  1
  H+  H311  1  0.43333298  0.33556362  0.89916403  1
  H+  H312  1  0.91864911  0.68461148  0.03025444  1
  H+  H313  1  0.57335018  0.91027648  0.42798744  1
  H+  H314  1  0.32490833  0.16045116  0.08808710  1
  H+  H315  1  0.42351488  0.08251395  0.60811749  1
  H+  H316  1  0.43189083  0.61150566  0.28328809  1
  H+  H317  1  0.91750748  0.08444652  0.23125858  1
  H+  H318  1  0.71046030  0.35499479  0.16512709  1
  H+  H319  1  0.31835868  0.38239496  0.04808974  1
  H+  H320  1  0.09775009  0.17386246  0.73094603  1
  H+  H321  1  0.36919304  0.69579966  0.41938424  1
  H+  H322  1  0.13957324  0.11102479  0.16554936  1
  H+  H323  1  0.90509454  0.57981749  0.56310616  1
  H+  H324  1  0.82965032  0.39511125  0.10591884  1
  H+  H325  1  0.13395402  0.56399070  0.22308971  1
  H+  H326  1  0.83497761  0.92297327  0.09894304  1
  H+  H327  1  0.17505785  0.81389196  0.20188975  1
  H+  H328  1  0.39811312  0.87353471  0.66577528  1
  H+  H329  1  0.92947210  0.84748211  0.26559324  1
  H+  H330  1  0.57822168  0.14381825  0.73670485  1
  H+  H331  1  0.33616160  0.29599940  0.61527477  1
  H+  H332  1  0.55725534  0.14775775  0.06609108  1
  H+  H333  1  0.18038222  0.09189392  0.57105758  1
  H+  H334  1  0.83539391  0.91118952  0.76540276  1
  H+  H335  1  0.15845227  0.33451264  0.93118384  1
  H+  H336  1  0.93196239  0.83878985  0.61456042  1
  H+  H337  1  0.66848447  0.57840048  0.24014394  1
  H+  H338  1  0.14142691  0.94866347  0.08387652  1
  H+  H339  1  0.40358020  0.31392972  0.26625756  1
  H+  H340  1  0.36049021  0.38231173  0.33372171  1
  H+  H341  1  0.10534863  0.63331825  0.49148079  1
  H+  H342  1  0.66787593  0.83615365  0.93286781  1
  H+  H343  1  0.67792215  0.86850350  0.25049441  1
  H+  H344  1  0.12379285  -0.02167278  0.50685270  1
  H+  H345  1  0.59249799  0.41313260  0.41826745  1
  H+  H346  1  0.44449153  0.33656367  0.55897655  1
  H+  H347  1  0.63571249  0.61543385  0.51356993  1
  H+  H348  1  0.62066157  0.63580992  0.66990880  1
  H+  H349  1  0.67060661  0.31618072  0.93481545  1
  H+  H350  1  0.42274783  0.84170444  0.57121309  1
  H+  H351  1  0.84323617  0.22046824  0.53095542  1
  H+  H352  1  0.58745385  0.65842585  0.09041303  1
  H+  H353  1  0.85065949  0.67339016  0.07915943  1
  H+  H354  1  0.35075270  0.42481101  0.78678470  1
  H+  H355  1  0.44105306  0.08910835  1.00032168  1
  H+  H356  1  0.19125137  0.63041546  0.57002588  1
  H+  H357  1  0.21239292  0.36535757  0.21426764  1
  H+  H358  1  0.38812449  0.44417913  0.42737253  1
  H+  H359  1  0.61287177  0.68379741  0.75239878  1
  H+  H360  1  0.59367242  0.92039324  0.77037836  1
  H+  H361  1  0.91317236  0.82588047  0.89809984  1
  H+  H362  1  0.60688373  0.13161976  0.15613906  1
  H+  H363  1  0.92152814  0.57810331  0.23079678  1
  H+  H364  1  0.15130011  0.04252121  1.00174809  1
  H+  H365  1  0.75629305  0.13118895  0.00955269  1
  H+  H366  1  0.67718280  0.84420208  0.59537183  1
  H+  H367  1  0.39509262  0.06598563  0.90243699  1
  H+  H368  1  0.65626482  0.07478052  0.90515101  1
  H+  H369  1  0.18710272  0.10722364  0.26027912  1
  H+  H370  1  0.30629790  0.39651224  0.69953620  1
  H+  H371  1  0.66303340  0.09030455  0.26280909  1
  H+  H372  1  0.13828496  0.77096922  0.50806081  1
  H+  H373  1  0.19886048  0.36034999  0.63799963  1
  H+  H374  1  0.12332704  0.59700078  0.15879244  1
  H+  H375  1  0.17783390  0.83908624  0.89674961  1
  H+  H376  1  0.73090412  0.86050445  0.16230573  1
  H+  H377  1  0.10902441  0.92788053  0.76660972  1
  H+  H378  1  0.11078438  0.30772161  0.56346611  1
  H+  H379  1  0.39923781  0.57806141  0.95144026  1
  H+  H380  1  0.18087937  0.88002694  0.28302132  1
  H+  H381  1  0.06501707  0.13954631  0.44332830  1
  H+  H382  1  0.95820914  0.09960040  0.51697539  1
  H+  H383  1  0.58083462  0.17755203  0.39462973  1
  O2-  O384  1  0.08552668  0.16359851  0.14538108  1
  O2-  O385  1  0.06491707  0.14205882  0.48867813  1
  O2-  O386  1  0.09871082  0.17454129  0.80769791  1
  O2-  O387  1  0.09747764  0.40329788  0.14851375  1
  O2-  O388  1  0.06288085  0.42774912  0.47602360  1
  O2-  O389  1  0.08150308  0.40902445  0.82493981  1
  O2-  O390  1  0.07134537  0.65084388  0.13111294  1
  O2-  O391  1  0.07673259  0.66778295  0.47989016  1
  O2-  O392  1  0.08031360  0.66831357  0.81415934  1
  O2-  O393  1  0.09553561  0.91913967  0.16717290  1
  O2-  O394  1  0.09301764  0.91662314  0.49491729  1
  O2-  O395  1  0.11110546  0.92469601  0.81168400  1
  O2-  O396  1  0.32353290  0.15080450  0.13494975  1
  O2-  O397  1  0.34105419  0.16283665  0.48063657  1
  O2-  O398  1  0.34272863  0.17004614  0.81547584  1
  O2-  O399  1  0.31527024  0.35461081  0.12295825  1
  O2-  O400  1  0.42405300  0.46594391  0.46428780  1
  O2-  O401  1  0.33952428  0.42036654  0.83115208  1
  O2-  O402  1  0.31764493  0.68011290  0.14971526  1
  O2-  O403  1  0.34100242  0.66592011  0.49511327  1
  O2-  O404  1  0.31401727  0.65947114  0.80768421  1
  O2-  O405  1  0.34480201  0.92334462  0.13472249  1
  O2-  O406  1  0.33830502  0.91904480  0.48201105  1
  O2-  O407  1  0.32557067  0.92064551  0.80885238  1
  O2-  O408  1  0.57107847  0.15650268  0.14245345  1
  O2-  O409  1  0.57969180  0.16744926  0.47669032  1
  O2-  O410  1  0.57685247  0.15671995  0.81700961  1
  O2-  O411  1  0.56155046  0.40633194  0.15315362  1
  O2-  O412  1  0.60825591  0.42691381  0.46384472  1
  O2-  O413  1  0.58753027  0.42356308  0.80207855  1
  O2-  O414  1  0.58394386  0.65222611  0.13696626  1
  O2-  O415  1  0.58825508  0.66946522  0.48742798  1
  O2-  O416  1  0.61342362  0.68389313  0.79929231  1
  O2-  O417  1  0.58099825  0.91385397  0.14444634  1
  O2-  O418  1  0.57641089  0.90716644  0.47315378  1
  O2-  O419  1  0.59311981  0.91590448  0.81618449  1
  O2-  O420  1  0.82926895  0.15913012  0.14694649  1
  O2-  O421  1  0.81281340  0.15679891  0.53272024  1
  O2-  O422  1  0.81738278  0.16134048  0.81205114  1
  O2-  O423  1  0.81485366  0.40252064  0.14766051  1
  O2-  O424  1  0.81453179  0.41685985  0.47451551  1
  O2-  O425  1  0.83902599  0.40242079  0.83522174  1
  O2-  O426  1  0.84307344  0.66807974  0.15356058  1
  O2-  O427  1  0.82873826  0.67319755  0.47983166  1
  O2-  O428  1  0.83665892  0.67228831  0.81570263  1
  O2-  O429  1  0.83479453  0.91816777  0.14523294  1
  O2-  O430  1  0.81514630  0.91361348  0.47513161  1
  O2-  O431  1  0.84050114  0.91586098  0.81123869  1
  O2-  O432  1  0.17406341  0.08475508  0.18049050  1
  O2-  O433  1  0.17796917  0.08952504  0.52559000  1
  O2-  O434  1  0.17565314  0.09134724  0.85461707  1
  O2-  O435  1  0.17924222  0.33500414  0.17853065  1
  O2-  O436  1  0.10411852  0.30527413  0.51794815  1
  O2-  O437  1  0.17253747  0.33866264  0.85384020  1
  O2-  O438  1  0.15522590  0.57199788  0.17954221  1
  O2-  O439  1  0.16594011  0.58666076  0.49561720  1
  O2-  O440  1  0.15191251  0.57656297  0.85160108  1
  O2-  O441  1  0.16367422  0.82026790  0.15947405  1
  O2-  O442  1  0.17478595  0.83128720  0.52328013  1
  O2-  O443  1  0.17622364  0.83608361  0.85121272  1
  O2-  O444  1  0.42218544  0.06596116  0.20171481  1
  O2-  O445  1  0.41983676  0.08145293  0.52938878  1
  O2-  O446  1  0.40337666  0.07031507  0.85743838  1
  O2-  O447  1  0.40698756  0.29687616  0.18648141  1
  O2-  O448  1  0.44636090  0.33453449  0.51415560  1
  O2-  O449  1  0.43026941  0.33735939  0.85323184  1
  O2-  O450  1  0.44269931  0.64978098  0.20312404  1
  O2-  O451  1  0.42762036  0.58942274  0.53311958  1
  O2-  O452  1  0.38625354  0.57537172  0.87221070  1
  O2-  O453  1  0.42048470  0.84186848  0.19207231  1
  O2-  O454  1  0.41699639  0.83292726  0.52603189  1
  O2-  O455  1  0.43400985  0.82749264  0.85258887  1
  O2-  O456  1  0.66410753  0.08177037  0.18565600  1
  O2-  O457  1  0.66032602  0.08369524  0.47181193  1
  O2-  O458  1  0.65814799  0.07667185  0.85968385  1
  O2-  O459  1  0.64948843  0.32651600  0.18021700  1
  O2-  O460  1  0.65568232  0.31439382  0.52897854  1
  O2-  O461  1  0.65984282  0.32319249  0.85429115  1
  O2-  O462  1  0.67753082  0.58285564  0.19507475  1
  O2-  O463  1  0.66618566  0.58360794  0.52576483  1
  O2-  O464  1  0.67279930  0.58546687  0.85091632  1
  O2-  O465  1  0.66852875  0.82952933  0.17517734  1
  O2-  O466  1  0.66139429  0.83011240  0.51820673  1
  O2-  O467  1  0.68028072  0.84559179  0.85458862  1
  O2-  O468  1  0.92094402  0.08311005  0.18602619  1
  O2-  O469  1  0.90120548  0.07209361  0.53713118  1
  O2-  O470  1  0.92356448  0.08604890  0.81221014  1
  O2-  O471  1  0.94733877  0.31601887  0.19547423  1
  O2-  O472  1  0.90048311  0.33679583  0.52244833  1
  O2-  O473  1  0.92612651  0.32437702  0.86644504  1
  O2-  O474  1  0.91575439  0.57765314  0.18575834  1
  O2-  O475  1  0.90980730  0.57782917  0.51357601  1
  O2-  O476  1  0.91065535  0.58925441  0.84504435  1
  O2-  O477  1  0.92633539  0.84071819  0.18707151  1
  O2-  O478  1  0.93207063  0.82864301  0.54373995  1
  O2-  O479  1  0.90378134  0.81826796  0.85298312  1
  O2-  O480  1  0.19757617  0.12637595  0.30364298  1
  O2-  O481  1  0.18487329  0.09264200  0.64938260  1
  O2-  O482  1  0.16881080  0.09724724  0.97956427  1
  O2-  O483  1  0.16319496  0.31957395  0.33359838  1
  O2-  O484  1  0.13853184  0.31720516  0.63532655  1
  O2-  O485  1  0.15868924  0.33869316  0.97658161  1
  O2-  O486  1  0.08506389  0.54265129  0.28833671  1
  O2-  O487  1  0.20759191  0.65692597  0.61119262  1
  O2-  O488  1  0.15452596  0.58180951  0.97476285  1
  O2-  O489  1  0.18279187  0.84625874  0.31689571  1
  O2-  O490  1  0.18045731  0.84327004  0.64581458  1
  O2-  O491  1  0.18238928  0.84128291  0.97414888  1
  O2-  O492  1  0.39720125  0.01264601  0.32769053  1
  O2-  O493  1  0.42214224  0.08220830  0.65361979  1
  O2-  O494  1  0.38336955  0.07206863  0.98129982  1
  O2-  O495  1  0.39989656  0.32193020  0.31062663  1
  O2-  O496  1  0.39107749  0.31748123  0.63611385  1
  O2-  O497  1  0.42734319  0.33723507  0.97372014  1
  O2-  O498  1  0.42028701  0.58583650  0.32422500  1
  O2-  O499  1  0.42874915  0.59365617  0.65369798  1
  O2-  O500  1  0.41069762  0.57670526  0.99558025  1
  O2-  O501  1  0.42120008  0.85115765  0.31651715  1
  O2-  O502  1  0.42996707  0.84650034  0.64853151  1
  O2-  O503  1  0.41045896  0.82507772  0.97276776  1
  O2-  O504  1  0.66073499  0.09376952  0.30824316  1
  O2-  O505  1  0.70797409  0.07344401  0.62473691  1
  O2-  O506  1  0.65396877  0.07650802  0.98343890  1
  O2-  O507  1  0.66386758  0.33393717  0.30456028  1
  O2-  O508  1  0.65814357  0.30457651  0.65347320  1
  O2-  O509  1  0.67344064  0.31341845  0.97992030  1
  O2-  O510  1  0.65909019  0.56436033  0.31799608  1
  O2-  O511  1  0.65519861  0.56627510  0.65777703  1
  O2-  O512  1  0.67568299  0.58936555  0.97579120  1
  O2-  O513  1  0.68849412  0.90160781  0.28840514  1
  O2-  O514  1  0.68327418  0.84687435  0.64079084  1
  O2-  O515  1  0.66344094  0.83432812  0.97825586  1
  O2-  O516  1  0.91497856  0.09063032  0.31096462  1
  O2-  O517  1  0.92562411  0.08669618  0.65852797  1
  O2-  O518  1  0.91278183  0.10091025  0.97938771  1
  O2-  O519  1  0.90643154  0.32664469  0.31843031  1
  O2-  O520  1  0.90894368  0.33915645  0.65071924  1
  O2-  O521  1  0.87472017  0.32931473  0.99505344  1
  O2-  O522  1  0.91614090  0.58335608  0.31170974  1
  O2-  O523  1  0.89860856  0.58379418  0.62592148  1
  O2-  O524  1  0.89673976  0.55710760  0.96472311  1
  O2-  O525  1  0.92847427  0.85018361  0.31130700  1
  O2-  O526  1  0.93100440  0.84148974  0.66101669  1
  O2-  O527  1  0.92911256  0.83664139  0.97267648  1
  O2-  O528  1  0.07887819  0.17140689  0.02021115  1
  O2-  O529  1  0.07364818  0.14994469  0.36448114  1
  O2-  O530  1  0.09405304  0.17062653  0.68523502  1
  O2-  O531  1  0.04457846  0.41072251  0.00466337  1
  O2-  O532  1  0.07067339  0.40856089  0.35790936  1
  O2-  O533  1  0.03450833  0.34387717  0.71664364  1
  O2-  O534  1  0.06854630  0.65890850  0.00843135  1
  O2-  O535  1  0.07712077  0.66982073  0.35746009  1
  O2-  O536  1  0.06587996  0.69114296  0.69669007  1
  O2-  O537  1  0.15748917  0.96082096  0.04064594  1
  O2-  O538  1  0.08405075  0.91330008  0.37429794  1
  O2-  O539  1  0.10111916  0.92901580  0.68704029  1
  O2-  O540  1  0.32941259  0.17572380  0.02115082  1
  O2-  O541  1  0.32996328  0.10412447  0.36359652  1
  O2-  O542  1  0.34934369  0.17177492  0.69153200  1
  O2-  O543  1  0.32468925  0.40437515  0.00575295  1
  O2-  O544  1  0.33144805  0.41280072  0.35227818  1
  O2-  O545  1  0.36783752  0.42760592  0.70731213  1
  O2-  O546  1  0.31628082  0.65770342  0.02536927  1
  O2-  O547  1  0.39001132  0.71298029  0.37698662  1
  O2-  O548  1  0.33760299  0.67631518  0.68465246  1
  O2-  O549  1  0.32027023  0.99292538  0.01172991  1
  O2-  O550  1  0.34521047  0.92667973  0.35442107  1
  O2-  O551  1  0.33828422  0.92239736  0.69399666  1
  O2-  O552  1  0.55142629  0.14384210  0.02038209  1
  O2-  O553  1  0.58287577  0.18125795  0.34964394  1
  O2-  O554  1  0.57750207  0.14040147  0.69157988  1
  O2-  O555  1  0.60426009  0.41064953  0.01113891  1
  O2-  O556  1  0.57166853  0.39575399  0.35002481  1
  O2-  O557  1  0.57310170  0.41124971  0.73572593  1
  O2-  O558  1  0.58370909  0.66201479  0.01871040  1
  O2-  O559  1  0.57914521  0.63823108  0.37202367  1
  O2-  O560  1  0.59953714  0.67607209  0.68251240  1
  O2-  O561  1  0.57655732  0.91301315  0.02080429  1
  O2-  O562  1  0.58010287  0.93295815  0.34930819  1
  O2-  O563  1  0.59865780  0.93281353  0.69553264  1
  O2-  O564  1  0.81780135  0.16386374  0.02339890  1
  O2-  O565  1  0.82597981  0.16692067  0.35654319  1
  O2-  O566  1  0.82473533  0.17068758  0.68800141  1
  O2-  O567  1  0.83709223  0.37614359  0.02328182  1
  O2-  O568  1  0.82651287  0.41892842  0.35048490  1
  O2-  O569  1  0.80356490  0.45780543  0.70530813  1
  O2-  O570  1  0.86181383  0.67865825  0.03368375  1
  O2-  O571  1  0.83385795  0.66620399  0.32867873  1
  O2-  O572  1  0.82637122  0.66702126  0.65324770  1
  O2-  O573  1  0.82727098  0.93052382  0.02750836  1
  O2-  O574  1  0.83191726  0.92499857  0.34937989  1
  O2-  O575  1  0.84037531  0.91899202  0.69085151  1
