# generated using pymatgen
data_H2O
_symmetry_space_group_name_H-M   'P 1'
_cell_length_a   17.99888096
_cell_length_b   17.99802864
_cell_length_c   22.00927664
_cell_angle_alpha   90.01260638
_cell_angle_beta   89.99138485
_cell_angle_gamma   120.00044267
_symmetry_Int_Tables_number   1
_chemical_formula_structural   H2O
_chemical_formula_sum   'H384 O192'
_cell_volume   6174.54408739
_cell_formula_units_Z   192
loop_
 _symmetry_equiv_pos_site_id
 _symmetry_equiv_pos_as_xyz
  1  'x, y, z'
loop_
 _atom_type_symbol
 _atom_type_oxidation_number
  H+  1.0
  O2-  -2.0
loop_
 _atom_site_type_symbol
 _atom_site_label
 _atom_site_symmetry_multiplicity
 _atom_site_fract_x
 _atom_site_fract_y
 _atom_site_fract_z
 _atom_site_occupancy
  H+  H0  1  0.89789492  0.10756682  0.33637800  1
  H+  H1  1  0.64113540  1.04568999  0.66365978  1
  H+  H2  1  0.22677545  0.35501474  0.50293344  1
  H+  H3  1  0.91252231  0.08652020  0.89465652  1
  H+  H4  1  0.86899201  0.97415022  0.33958199  1
  H+  H5  1  0.11189391  0.47126394  0.67165242  1
  H+  H6  1  -0.02407444  0.36164460  0.17564248  1
  H+  H7  1  0.28299716  0.88013941  0.52758816  1
  H+  H8  1  0.46583046  0.60361559  0.50942513  1
  H+  H9  1  0.36450842  0.97802703  0.33053654  1
  H+  H10  1  0.48066280  0.37650528  0.65532402  1
  H+  H11  1  0.11393281  0.47213761  0.15924138  1
  H+  H12  1  0.02323465  0.63870340  0.68145866  1
  H+  H13  1  0.91872562  0.58427952  0.60615938  1
  H+  H14  1  0.36442275  0.73117956  0.16010157  1
  H+  H15  1  0.64021833  -0.00896783  1.02289162  1
  H+  H16  1  0.87962629  0.52194216  0.84531353  1
  H+  H17  1  0.12124645  0.77394013  0.17323869  1
  H+  H18  1  0.89795905  0.03981440  0.65034994  1
  H+  H19  1  0.21968762  0.35408816  0.65610919  1
  H+  H20  1  0.23796140  0.88287960  0.68985245  1
  H+  H21  1  0.78550844  0.90450277  0.48931646  1
  H+  H22  1  0.62164564  0.15367863  0.67409678  1
  H+  H23  1  0.61745475  0.39376286  0.67048734  1
  H+  H24  1  0.12026792  0.05494975  0.60081503  1
  H+  H25  1  0.36145069  0.89414576  0.56753824  1
  H+  H26  1  0.91928788  0.88353708  0.67322639  1
  H+  H27  1  0.14367126  0.27529823  0.17403283  1
  H+  H28  1  0.96329770  0.85340333  0.80657643  1
  H+  H29  1  0.89241096  0.86694472  0.32378216  1
  H+  H30  1  1.02436393  0.39415058  0.82600813  1
  H+  H31  1  0.87422968  0.76605025  0.81610138  1
  H+  H32  1  0.61417448  0.38988433  1.00509012  1
  H+  H33  1  0.57486171  0.68840957  0.67691546  1
  H+  H34  1  0.65410208  0.76813341  0.99010510  1
  H+  H35  1  0.35992042  0.15765624  0.15789990  1
  H+  H36  1  0.63034732  0.28255386  -0.00777737  1
  H+  H37  1  0.08302600  0.16113607  0.42604839  1
  H+  H38  1  0.86780057  0.14584029  0.66664802  1
  H+  H39  1  0.25176684  0.12635811  0.51866650  1
  H+  H40  1  0.01490002  0.64291910  0.83691914  1
  H+  H41  1  0.62794334  0.63921562  1.00090365  1
  H+  H42  1  0.15034229  0.56519758  0.98323256  1
  H+  H43  1  0.88557993  0.61115908  1.00270614  1
  H+  H44  1  0.86163221  0.64271687  0.33626968  1
  H+  H45  1  0.79018884  0.64092140  0.02292144  1
  H+  H46  1  0.14353774  0.36359803  0.17878928  1
  H+  H47  1  0.23623417  0.61417701  0.32404170  1
  H+  H48  1  0.73082028  0.86465663  0.33310859  1
  H+  H49  1  0.10503868  0.64435915  0.83353950  1
  H+  H50  1  0.96139018  0.60841714  0.32931282  1
  H+  H51  1  0.85475641  0.38031574  0.66346352  1
  H+  H52  1  0.39007771  0.01968990  0.51837717  1
  H+  H53  1  0.61282493  0.37370043  0.48822941  1
  H+  H54  1  0.36320185  0.15850184  0.81277208  1
  H+  H55  1  0.32028050  0.86875130  -0.03915052  1
  H+  H56  1  0.01966766  0.14252049  0.82469704  1
  H+  H57  1  0.77938838  0.15529416  1.00057203  1
  H+  H58  1  0.40135773  0.62911325  0.33232351  1
  H+  H59  1  0.30993161  0.91808820  0.77680410  1
  H+  H60  1  0.86927361  0.23586086  0.66979884  1
  H+  H61  1  0.27569842  0.88878958  0.33018985  1
  H+  H62  1  0.36971079  0.48601785  0.16037498  1
  H+  H63  1  0.92728038  0.79945797  0.16744186  1
  H+  H64  1  0.11480449  0.09989520  0.50320108  1
  H+  H65  1  0.13248240  0.27941404  0.83772491  1
  H+  H66  1  0.88624501  0.02854534  0.83448656  1
  H+  H67  1  0.04785072  0.38247863  0.33349650  1
  H+  H68  1  0.13972174  0.86786877  0.31954136  1
  H+  H69  1  0.65547269  0.88932462  0.49374899  1
  H+  H70  1  0.62005425  0.23151059  0.15832433  1
  H+  H71  1  0.13860715  1.02530811  0.31730773  1
  H+  H72  1  0.65082778  0.86300989  0.17896843  1
  H+  H73  1  0.86354634  0.88769656  0.80578182  1
  H+  H74  1  0.52848478  0.14375772  0.33962840  1
  H+  H75  1  0.61636826  0.16093650  -0.00083829  1
  H+  H76  1  0.09825210  0.73877438  0.00132931  1
  H+  H77  1  0.15681982  0.51913272  0.32282680  1
  H+  H78  1  0.13879816  0.61229636  0.17725527  1
  H+  H79  1  0.89290129  0.78000346  1.02580483  1
  H+  H80  1  0.09955751  0.34100048  0.01563481  1
  H+  H81  1  0.69162840  0.54913530  0.82987112  1
  H+  H82  1  0.88085443  0.61429338  0.17495068  1
  H+  H83  1  0.34387698  0.46726829  0.66901657  1
  H+  H84  1  0.33182519  0.58931533  0.48189663  1
  H+  H85  1  0.68239405  0.55987254  0.16885300  1
  H+  H86  1  0.15990968  0.32434563  0.59680713  1
  H+  H87  1  0.16779820  0.49269192  0.02906605  1
  H+  H88  1  0.52866889  0.89250987  0.33760044  1
  H+  H89  1  0.72700101  0.35837817  0.51138180  1
  H+  H90  1  0.51894571  0.13837100  1.00732259  1
  H+  H91  1  0.41059325  0.74796701  0.40591439  1
  H+  H92  1  0.24468535  0.87765303  0.99002013  1
  H+  H93  1  0.39450049  0.37295668  0.99326874  1
  H+  H94  1  0.71637247  0.36420082  0.32590970  1
  H+  H95  1  0.39470515  0.61579511  -0.00342043  1
  H+  H96  1  0.97195015  0.60900393  0.99366175  1
  H+  H97  1  0.32420738  0.40872762  0.76201830  1
  H+  H98  1  0.07740310  0.39434344  0.10910357  1
  H+  H99  1  0.54438305  0.41649209  0.82484498  1
  H+  H100  1  0.48202098  0.13187948  0.65882435  1
  H+  H101  1  0.02332585  0.63442576  0.49743889  1
  H+  H102  1  0.72437371  0.36498333  0.16952215  1
  H+  H103  1  0.48335830  0.61586854  0.99569468  1
  H+  H104  1  0.12450092  0.87879909  0.99679986  1
  H+  H105  1  0.42341555  0.33963870  0.56486402  1
  H+  H106  1  0.97065793  0.35497271  0.99670718  1
  H+  H107  1  0.84954022  0.48352214  0.34718261  1
  H+  H108  1  0.83796540  0.38973624  0.35036594  1
  H+  H109  1  0.52387801  0.39163588  0.00543422  1
  H+  H110  1  0.27996507  0.65675568  -0.00045267  1
  H+  H111  1  0.52190977  0.64385366  0.33738636  1
  H+  H112  1  0.32760571  0.88678801  0.68549648  1
  H+  H113  1  0.63350288  0.50288838  0.48610163  1
  H+  H114  1  0.72405622  0.36624040  0.65637046  1
  H+  H115  1  0.38821119  0.53363354  0.32697576  1
  H+  H116  1  0.21890927  0.83192748  0.16551307  1
  H+  H117  1  0.23153297  0.36874750  0.99216854  1
  H+  H118  1  0.62381847  -0.00698954  0.49402263  1
  H+  H119  1  0.14366601  0.85920881  0.51349390  1
  H+  H120  1  0.59829885  0.91512387  0.88378246  1
  H+  H121  1  0.06868687  0.66814863  0.39761113  1
  H+  H122  1  0.63657396  0.13325525  0.82873701  1
  H+  H123  1  -0.01757395  0.12940498  0.65415773  1
  H+  H124  1  0.24307238  0.58847079  0.47679942  1
  H+  H125  1  0.11833891  0.99700842  0.00662417  1
  H+  H126  1  0.10828729  0.38015394  0.67474466  1
  H+  H127  1  0.65038573  0.07144399  0.97548430  1
  H+  H128  1  0.42938014  0.87213926  1.01801329  1
  H+  H129  1  0.84785730  0.61481486  0.84322392  1
  H+  H130  1  0.39755916  0.06843129  0.17848191  1
  H+  H131  1  0.37825696  0.10228451  0.50863851  1
  H+  H132  1  0.88736389  0.60873329  0.50958331  1
  H+  H133  1  0.39556748  0.62125837  0.16967460  1
  H+  H134  1  0.53660130  0.64231091  0.15625154  1
  H+  H135  1  0.05318239  0.94037652  0.17020594  1
  H+  H136  1  0.39806767  0.77255308  0.00377313  1
  H+  H137  1  0.86518486  0.37820131  0.50062199  1
  H+  H138  1  0.95491917  0.59138608  0.18068445  1
  H+  H139  1  0.13800566  0.26566716  0.49980504  1
  H+  H140  1  0.01641799  0.27793752  0.05285093  1
  H+  H141  1  0.36451374  0.13674492  0.00367483  1
  H+  H142  1  0.88881895  0.52002514  0.51462636  1
  H+  H143  1  0.09916498  0.84871816  0.65729206  1
  H+  H144  1  0.56573302  0.66132138  0.43379944  1
  H+  H145  1  0.60483799  0.51029274  0.31370094  1
  H+  H146  1  1.02535753  0.13212716  0.33472975  1
  H+  H147  1  0.13945130  0.03645014  0.82917193  1
  H+  H148  1  0.61211102  0.68685042  0.83473047  1
  H+  H149  1  0.06245923  -0.04028629  0.66169468  1
  H+  H150  1  0.39200953  0.12483041  0.32666121  1
  H+  H151  1  0.52350782  0.13957325  0.48867666  1
  H+  H152  1  0.35881891  0.38625807  0.66609415  1
  H+  H153  1  0.34969761  -0.01537316  0.83265671  1
  H+  H154  1  0.77821300  0.39657646  0.82774386  1
  H+  H155  1  0.07361520  0.91803014  0.75829532  1
  H+  H156  1  0.28264007  0.38993678  0.33927117  1
  H+  H157  1  0.33677270  0.65482298  0.40355577  1
  H+  H158  1  0.14560464  0.26889368  0.32660695  1
  H+  H159  1  0.85228589  0.93696810  0.72726267  1
  H+  H160  1  0.62474302  0.48619934  0.67199221  1
  H+  H161  1  0.13721491  0.38704552  0.33977979  1
  H+  H162  1  0.61325180  0.73014084  0.34216454  1
  H+  H163  1  0.10657397  0.89441104  0.81923849  1
  H+  H164  1  0.62924946  0.81728820  0.83707471  1
  H+  H165  1  0.33852578  0.82954572  0.12833918  1
  H+  H166  1  0.42851546  0.35340754  0.89344819  1
  H+  H167  1  0.72937007  0.11340976  0.16549826  1
  H+  H168  1  0.13638265  0.37040623  0.83926350  1
  H+  H169  1  0.37483050  1.00664280  -0.00741389  1
  H+  H170  1  0.36590717  0.86384757  0.84551430  1
  H+  H171  1  0.88787161  0.36863657  0.99356734  1
  H+  H172  1  0.39437827  0.84346470  0.48087929  1
  H+  H173  1  0.85714101  0.13888158  0.82148903  1
  H+  H174  1  0.44585334  0.59205914  0.66449302  1
  H+  H175  1  0.44360005  0.88151807  0.65466519  1
  H+  H176  1  0.86398201  0.89248772  0.01926442  1
  H+  H177  1  0.82057383  0.67391000  0.16607991  1
  H+  H178  1  0.61559433  0.23997833  0.67367569  1
  H+  H179  1  0.97917623  0.36563297  0.66222972  1
  H+  H180  1  0.22726932  0.11638236  0.30990068  1
  H+  H181  1  0.88793267  0.02874136  0.17465292  1
  H+  H182  1  0.00404857  0.86816510  0.49366809  1
  H+  H183  1  0.86907676  0.23746548  0.00307056  1
  H+  H184  1  0.73581760  0.12898533  0.66107383  1
  H+  H185  1  0.88525248  0.11731782  -0.01068465  1
  H+  H186  1  0.28132547  0.39433147  0.16152551  1
  H+  H187  1  0.61552603  0.13914767  0.33479960  1
  H+  H188  1  0.17402223  0.47887737  0.99806779  1
  H+  H189  1  0.86736105  0.39769314  0.82842183  1
  H+  H190  1  0.88955229  0.61125794  0.66704308  1
  H+  H191  1  0.59946180  0.67048678  0.06052614  1
  H+  H192  1  0.12532685  0.78159092  0.84363529  1
  H+  H193  1  0.36955240  0.24458630  0.31679129  1
  H+  H194  1  0.98046763  0.35396633  0.50397269  1
  H+  H195  1  0.23163406  0.12417525  -0.01564432  1
  H+  H196  1  0.08543538  0.42255236  0.76789498  1
  H+  H197  1  0.64152171  0.37545325  0.83461801  1
  H+  H198  1  0.02303591  0.89441651  0.32967651  1
  H+  H199  1  0.22110898  0.62351689  0.83026816  1
  H+  H200  1  0.77461847  0.63275357  0.48979117  1
  H+  H201  1  0.64984319  0.52874112  0.99002876  1
  H+  H202  1  0.42841509  0.15236795  0.88274774  1
  H+  H203  1  0.51687076  0.83630193  0.02588273  1
  H+  H204  1  0.11146870  0.22561931  0.66925342  1
  H+  H205  1  0.10656279  0.95627622  0.07282191  1
  H+  H206  1  0.63648010  0.27002376  0.50512827  1
  H+  H207  1  0.60374007  0.61909749  0.67469680  1
  H+  H208  1  0.67078293  0.82366899  0.65908400  1
  H+  H209  1  1.01396606  0.12447771  1.01051931  1
  H+  H210  1  0.62856668  0.64671205  0.15749784  1
  H+  H211  1  0.11302142  0.37476260  0.49096461  1
  H+  H212  1  0.22669385  0.12841123  0.83016210  1
  H+  H213  1  0.93854787  0.85107555  0.22858089  1
  H+  H214  1  0.86435060  0.13881560  0.15898698  1
  H+  H215  1  0.33549059  0.96431118  0.15789934  1
  H+  H216  1  0.88138119  0.02638514  0.99086954  1
  H+  H217  1  0.88551282  0.27721870  0.83438564  1
  H+  H218  1  0.61642716  0.84064458  0.01910327  1
  H+  H219  1  0.92369069  0.35684522  0.32876756  1
  H+  H220  1  0.11435605  0.72048990  0.49843053  1
  H+  H221  1  0.48265923  0.13350189  0.83449698  1
  H+  H222  1  0.11771174  1.01220330  0.50405375  1
  H+  H223  1  0.81069126  0.90113704  0.66220177  1
  H+  H224  1  0.60475823  0.59967560  0.31702181  1
  H+  H225  1  0.02232607  0.14427572  0.48457556  1
  H+  H226  1  0.39492914  0.38024547  0.83459979  1
  H+  H227  1  0.38131224  0.28285957  0.16303548  1
  H+  H228  1  0.39568400  0.28420593  -0.01144967  1
  H+  H229  1  0.85575722  0.46915175  0.66763292  1
  H+  H230  1  0.85825556  0.47408531  0.00826689  1
  H+  H231  1  0.59587327  0.61995961  0.48255478  1
  H+  H232  1  0.36916577  0.24968100  0.82046826  1
  H+  H233  1  0.48980447  0.14859572  0.17146116  1
  H+  H234  1  0.77759505  0.88875560  0.81858667  1
  H+  H235  1  0.72335962  0.36771273  0.99298764  1
  H+  H236  1  0.59512697  0.98428450  0.02273848  1
  H+  H237  1  0.87891069  0.73463420  0.69634226  1
  H+  H238  1  0.53727836  0.88869487  0.16715290  1
  H+  H239  1  0.51426479  0.37670862  0.15201024  1
  H+  H240  1  0.10534490  0.13012403  0.01176480  1
  H+  H241  1  0.48245343  0.36806605  0.31764066  1
  H+  H242  1  0.37467082  0.39918580  0.33596233  1
  H+  H243  1  0.83216887  0.41491495  0.44664542  1
  H+  H244  1  0.88873289  0.87428813  0.51480253  1
  H+  H245  1  0.10147605  0.13346239  0.16353994  1
  H+  H246  1  0.12563017  0.59888034  0.50135367  1
  H+  H247  1  0.11013357  0.14460660  0.82352550  1
  H+  H248  1  0.97444016  0.11986733  0.17568691  1
  H+  H249  1  0.21403325  0.87260100  0.84538289  1
  H+  H250  1  0.97648219  0.87491971  1.02577470  1
  H+  H251  1  0.45667477  0.61051843  0.83105304  1
  H+  H252  1  0.34942551  -0.04233290  0.18910013  1
  H+  H253  1  0.57479023  0.90004300  0.69541668  1
  H+  H254  1  0.64922230  0.77376514  0.17430802  1
  H+  H255  1  0.38621997  0.86974709  0.32124012  1
  H+  H256  1  0.37344661  0.15948473  0.66288123  1
  H+  H257  1  0.17881416  0.33025648  0.26760558  1
  H+  H258  1  0.60905935  0.37433260  0.15470806  1
  H+  H259  1  0.61000206  0.23797529  0.82199635  1
  H+  H260  1  0.61752803  0.89192527  0.33818381  1
  H+  H261  1  0.91795692  0.08086790  0.27013525  1
  H+  H262  1  0.63873421  0.11935330  0.50548255  1
  H+  H263  1  0.34651380  0.73097588  0.82227408  1
  H+  H264  1  -0.00322187  0.69711804  0.13267191  1
  H+  H265  1  0.60800402  0.37879293  0.33052291  1
  H+  H266  1  0.85745737  0.38493767  0.16322853  1
  H+  H267  1  0.84325207  0.91842014  0.40017510  1
  H+  H268  1  0.36545205  0.38223156  0.49182495  1
  H+  H269  1  0.34917912  0.64843732  0.66598397  1
  H+  H270  1  0.26932210  0.38487249  0.82361211  1
  H+  H271  1  0.78511937  0.88932040  0.16602981  1
  H+  H272  1  0.89594497  0.77956308  0.32198034  1
  H+  H273  1  0.12040430  0.50638606  0.50212275  1
  H+  H274  1  0.43252569  0.90811891  0.18717434  1
  H+  H275  1  0.63343471  0.02790308  0.32294621  1
  H+  H276  1  0.85169726  0.47181666  0.16313142  1
  H+  H277  1  0.63843763  0.10985711  0.16398704  1
  H+  H278  1  0.74733882  0.63346931  0.67506450  1
  H+  H279  1  0.39432326  0.37805840  0.16406965  1
  H+  H280  1  0.87873881  0.89957443  0.15872170  1
  H+  H281  1  0.88659851  0.27281256  0.17283815  1
  H+  H282  1  0.11680879  0.66098830  -0.00094251  1
  H+  H283  1  0.70860247  0.76614716  0.63697671  1
  H+  H284  1  0.88986159  0.21566725  0.35606077  1
  H+  H285  1  0.73754702  0.86582676  -0.00570469  1
  H+  H286  1  0.21160501  0.60567848  0.65452066  1
  H+  H287  1  0.41660752  0.06563308  0.93584488  1
  H+  H288  1  0.65775991  0.33356030  0.60034116  1
  H+  H289  1  0.48896714  0.86060849  0.47832524  1
  H+  H290  1  0.42341533  0.59315452  0.23005320  1
  H+  H291  1  0.90089492  0.26175184  0.51398408  1
  H+  H292  1  0.13348826  0.53244105  0.83830588  1
  H+  H293  1  0.68064522  0.12979220  0.91743850  1
  H+  H294  1  0.87282774  0.15873844  0.41681737  1
  H+  H295  1  0.83721445  0.17101326  0.09836504  1
  H+  H296  1  0.37196378  0.48156414  1.00614442  1
  H+  H297  1  0.39695502  0.57458819  0.60127518  1
  H+  H298  1  0.42684214  0.10221755  0.59835887  1
  H+  H299  1  0.33311133  0.17221185  0.05873283  1
  H+  H300  1  0.33644366  0.18914839  0.71816425  1
  H+  H301  1  0.14260341  0.84466297  0.93221919  1
  H+  H302  1  0.15459856  0.56299657  0.59582838  1
  H+  H303  1  0.57880850  0.40480512  0.39208305  1
  H+  H304  1  0.66441082  0.34087990  0.89461016  1
  H+  H305  1  0.63439556  0.26895537  0.32193402  1
  H+  H306  1  0.56811206  0.63288870  0.77636201  1
  H+  H307  1  0.58009766  0.17823439  0.76124437  1
  H+  H308  1  0.16888254  0.83134040  0.26368772  1
  H+  H309  1  0.72582861  0.12869575  0.82808719  1
  H+  H310  1  0.27609809  0.64257871  0.15987568  1
  H+  H311  1  0.85883020  0.72363710  0.49967472  1
  H+  H312  1  0.29614776  0.84656986  0.07096554  1
  H+  H313  1  0.07699549  0.16969394  0.73099440  1
  H+  H314  1  0.39311643  0.78300187  0.32632585  1
  H+  H315  1  0.58645427  0.87080788  0.08665927  1
  H+  H316  1  0.70614623  0.61205243  0.60989207  1
  H+  H317  1  0.57977737  0.40786760  0.08665072  1
  H+  H318  1  0.43016266  0.10825246  0.26828658  1
  H+  H319  1  0.89192713  0.78777633  0.91515319  1
  H+  H320  1  0.08767915  0.40642212  0.43052104  1
  H+  H321  1  0.36238289  0.78803290  0.65064209  1
  H+  H322  1  0.15560682  0.82473253  0.57688502  1
  H+  H323  1  0.67692938  0.82056002  0.89830200  1
  H+  H324  1  0.60522060  0.99466036  0.85049399  1
  H+  H325  1  0.66253556  0.33408330  0.22874911  1
  H+  H326  1  0.33032386  0.67169657  0.06354952  1
  H+  H327  1  0.17031134  0.34070553  0.93361904  1
  H+  H328  1  0.67110063  0.09434500  0.56472130  1
  H+  H329  1  0.62570850  0.97676164  0.15630757  1
  H+  H330  1  0.42609328  0.34849139  0.25587531  1
  H+  H331  1  0.67510342  0.83405551  0.27261359  1
  H+  H332  1  0.65992012  0.08324252  0.26238213  1
  H+  H333  1  0.39167692  0.28443620  0.65356577  1
  H+  H334  1  0.04293865  0.82703377  0.45126347  1
  H+  H335  1  0.15296551  0.06270834  0.22333580  1
  H+  H336  1  0.17536380  0.58141213  0.23186255  1
  H+  H337  1  0.09836394  0.08989950  0.66180208  1
  H+  H338  1  0.90519114  0.58099516  0.90707628  1
  H+  H339  1  0.16920190  0.09344467  0.92642276  1
  H+  H340  1  0.33800595  0.19594725  0.37781244  1
  H+  H341  1  0.07730778  0.67872717  0.74192965  1
  H+  H342  1  0.83193699  0.66166688  0.74748058  1
  H+  H343  1  0.58685114  0.17155219  0.43068490  1
  H+  H344  1  0.84248739  0.68046575  0.39484312  1
  H+  H345  1  0.08197131  0.92595511  0.38900973  1
  H+  H346  1  0.42491599  0.84295275  0.23777262  1
  H+  H347  1  0.92088846  0.11048287  0.55940751  1
  H+  H348  1  0.92417863  0.33411542  0.60024197  1
  H+  H349  1  0.29357203  0.14002182  0.45664594  1
  H+  H350  1  0.83072171  0.92994688  0.06884451  1
  H+  H351  1  0.59991112  0.93703481  0.43203876  1
  H+  H352  1  0.66464608  0.59255758  0.23092223  1
  H+  H353  1  0.11529806  0.13428375  0.33128779  1
  H+  H354  1  0.45059668  0.86117444  0.85976838  1
  H+  H355  1  0.54531975  0.94544327  0.74082078  1
  H+  H356  1  0.59761032  0.43402655  0.76388567  1
  H+  H357  1  0.58415338  0.17273340  0.09901241  1
  H+  H358  1  0.05753630  0.67819986  0.09229598  1
  H+  H359  1  0.87511420  0.99320146  0.48990427  1
  H+  H360  1  0.34017043  0.42051071  0.06441361  1
  H+  H361  1  0.34830782  0.64251467  0.81231861  1
  H+  H362  1  0.17589086  0.61425707  0.92090343  1
  H+  H363  1  0.83363497  0.17171091  0.76047038  1
  H+  H364  1  0.31993349  0.68107265  0.72319229  1
  H+  H365  1  0.62973143  0.55226617  0.54227213  1
  H+  H366  1  0.11521004  0.76881818  0.66803913  1
  H+  H367  1  0.90149740  0.83343907  0.91288887  1
  H+  H368  1  0.91591158  0.33506515  0.89467903  1
  H+  H369  1  0.69894301  0.59240973  0.93483127  1
  H+  H370  1  0.89790599  0.56958668  0.27069777  1
  H+  H371  1  0.09672731  0.72648452  0.33810434  1
  H+  H372  1  0.38355325  0.27050300  0.51152270  1
  H+  H373  1  0.52269369  0.37373161  0.48809901  1
  H+  H374  1  0.92274825  0.84420745  0.57342787  1
  H+  H375  1  0.26282000  0.13719635  0.15172595  1
  H+  H376  1  0.33734025  0.41630216  0.43358261  1
  H+  H377  1  0.92980878  0.32183346  0.26438074  1
  H+  H378  1  0.38071863  0.51229328  0.51191211  1
  H+  H379  1  0.67567378  0.83622176  0.54241282  1
  H+  H380  1  0.07453332  0.16292933  0.10406139  1
  H+  H381  1  0.82687882  0.41211156  0.06649768  1
  H+  H382  1  0.36799981  0.52652207  0.82219038  1
  H+  H383  1  0.85713251  0.67267001  0.08382161  1
  O2-  O384  1  0.07867368  0.17061519  0.15027775  1
  O2-  O385  1  0.08242776  0.16155584  0.47178683  1
  O2-  O386  1  0.07965702  0.17478730  0.80867918  1
  O2-  O387  1  0.08218908  0.40882319  0.15344140  1
  O2-  O388  1  0.08002263  0.40231163  0.47559509  1
  O2-  O389  1  0.08599093  0.42650514  0.81357592  1
  O2-  O390  1  0.04214635  0.68196843  0.13547771  1
  O2-  O391  1  0.08196863  0.66268864  0.47927008  1
  O2-  O392  1  0.07541993  0.67712756  0.82287200  1
  O2-  O393  1  0.11521866  0.97532192  0.15619306  1
  O2-  O394  1  0.05847445  0.88167012  0.47081771  1
  O2-  O395  1  0.07832184  0.92614675  0.80285278  1
  O2-  O396  1  0.32265631  0.17734103  0.13843055  1
  O2-  O397  1  0.30984103  0.15409386  0.49902461  1
  O2-  O398  1  0.33272693  0.18993527  0.80398613  1
  O2-  O399  1  0.34134774  0.42527541  0.14532609  1
  O2-  O400  1  0.33204579  0.41011846  0.47878193  1
  O2-  O401  1  0.32921061  0.41435031  0.80722315  1
  O2-  O402  1  0.33628727  0.67260442  0.14360632  1
  O2-  O403  1  0.28895689  0.58679062  0.45237358  1
  O2-  O404  1  0.31683898  0.67427326  0.80095340  1
  O2-  O405  1  0.28357879  0.81308914  0.10895060  1
  O2-  O406  1  0.34686074  0.91000322  0.52814202  1
  O2-  O407  1  0.31764552  0.92308753  0.82361443  1
  O2-  O408  1  0.58524928  0.17046575  0.14443160  1
  O2-  O409  1  0.58501474  0.17250793  0.47614678  1
  O2-  O410  1  0.57766038  0.17653129  0.80778900  1
  O2-  O411  1  0.57662141  0.40273015  0.13607894  1
  O2-  O412  1  0.58143217  0.40160832  0.46956660  1
  O2-  O413  1  0.60399433  0.44061198  0.80920802  1
  O2-  O414  1  0.59617223  0.67407051  0.14007064  1
  O2-  O415  1  0.56238438  0.64902871  0.47829686  1
  O2-  O416  1  0.56499829  0.63126683  0.82101410  1
  O2-  O417  1  0.59583484  0.91258896  0.14917983  1
  O2-  O418  1  0.59831734  0.93246252  0.47709193  1
  O2-  O419  1  0.57422159  0.93041295  0.84956609  1
  O2-  O420  1  0.83513165  0.17066035  0.14370914  1
  O2-  O421  1  0.88469887  0.15884908  0.49239083  1
  O2-  O422  1  0.82825281  0.17037688  0.80613622  1
  O2-  O423  1  0.82441832  0.41101035  0.14630100  1
  O2-  O424  1  0.83579402  0.41168621  0.49147533  1
  O2-  O425  1  0.84028026  0.43284693  0.81939830  1
  O2-  O426  1  0.87554682  0.68605874  0.14811984  1
  O2-  O427  1  0.83701759  0.66613704  0.48133725  1
  O2-  O428  1  0.81346845  0.64410944  0.82408250  1
  O2-  O429  1  0.84333914  0.92625663  0.14799292  1
  O2-  O430  1  0.85019327  0.93160050  0.48022304  1
  O2-  O431  1  0.83663456  0.92527894  0.80261960  1
  O2-  O432  1  0.14870327  0.06448220  0.17716735  1
  O2-  O433  1  0.14096732  0.06802104  0.52403347  1
  O2-  O434  1  0.16726989  0.09525344  0.84695904  1
  O2-  O435  1  0.17739138  0.33544786  0.19007396  1
  O2-  O436  1  0.16583132  0.32473754  0.51734851  1
  O2-  O437  1  0.16633459  0.33935479  0.85342549  1
  O2-  O438  1  0.17126574  0.58327999  0.18545428  1
  O2-  O439  1  0.15362051  0.56681286  0.51687509  1
  O2-  O440  1  0.16271648  0.59431083  0.85093404  1
  O2-  O441  1  0.17036873  0.82744616  0.18934507  1
  O2-  O442  1  0.16786448  0.82605360  0.53160007  1
  O2-  O443  1  0.15153026  0.84316450  0.85681177  1
  O2-  O444  1  0.43090320  0.12958481  0.18904047  1
  O2-  O445  1  0.42033696  0.08405689  0.51776880  1
  O2-  O446  1  0.42337246  0.10830149  0.85447225  1
  O2-  O447  1  0.42238666  0.34306630  0.17610445  1
  O2-  O448  1  0.42108270  0.33266480  0.51881593  1
  O2-  O449  1  0.43021818  0.35399473  0.84833013  1
  O2-  O450  1  0.42569416  0.59124478  0.18464591  1
  O2-  O451  1  0.40598717  0.57232804  0.52708320  1
  O2-  O452  1  0.39404856  0.58870344  0.83080896  1
  O2-  O453  1  0.43246556  0.85396103  0.19081556  1
  O2-  O454  1  0.42827860  0.81642785  0.46976967  1
  O2-  O455  1  0.38764355  0.82721013  0.86280074  1
  O2-  O456  1  0.66740688  0.07794654  0.17736397  1
  O2-  O457  1  0.66810473  0.08855820  0.52001456  1
  O2-  O458  1  0.66749798  0.10515232  0.84751413  1
  O2-  O459  1  0.66201145  0.33508996  0.18279659  1
  O2-  O460  1  0.66460169  0.33065903  0.52134024  1
  O2-  O461  1  0.66488825  0.33841247  0.84953850  1
  O2-  O462  1  0.69215541  0.61224535  0.18877931  1
  O2-  O463  1  0.65975528  0.56320491  0.50364000  1
  O2-  O464  1  0.72753327  0.60460156  0.85182699  1
  O2-  O465  1  0.68103480  0.83256180  0.19284070  1
  O2-  O466  1  0.68894006  0.85871438  0.50123630  1
  O2-  O467  1  0.67704612  0.81240987  0.85321030  1
  O2-  O468  1  0.91335236  0.08916561  0.19005911  1
  O2-  O469  1  0.92386693  0.10911917  0.51356719  1
  O2-  O470  1  0.91326993  0.08903358  0.84914678  1
  O2-  O471  1  0.91537802  0.33191292  0.19106692  1
  O2-  O472  1  0.92098728  0.32363649  0.52176227  1
  O2-  O473  1  0.91720090  0.33758750  0.84953913  1
  O2-  O474  1  0.89435927  0.56641045  0.19318684  1
  O2-  O475  1  0.91913681  0.58165127  0.52712967  1
  O2-  O476  1  0.90462360  0.58425448  0.86141985  1
  O2-  O477  1  0.94814059  0.85914374  0.18363579  1
  O2-  O478  1  0.91323692  0.83750954  0.52897971  1
  O2-  O479  1  0.90142456  0.82250045  0.79598245  1
  O2-  O480  1  0.16635833  0.08346978  0.29688615  1
  O2-  O481  1  0.11110301  0.04545925  0.64530757  1
  O2-  O482  1  0.17040201  0.09303309  0.97183233  1
  O2-  O483  1  0.18046921  0.33024270  0.31314022  1
  O2-  O484  1  0.15830889  0.32378347  0.64217548  1
  O2-  O485  1  0.17082606  0.34020511  0.97879192  1
  O2-  O486  1  0.18303768  0.57657362  0.30268563  1
  O2-  O487  1  0.15406643  0.56071119  0.64099412  1
  O2-  O488  1  0.18041286  0.62362561  0.96716113  1
  O2-  O489  1  0.16752221  0.83386524  0.30959647  1
  O2-  O490  1  0.14040640  0.82879568  0.64866047  1
  O2-  O491  1  0.14691014  0.84281179  0.97785381  1
  O2-  O492  1  0.42381100  0.09619243  0.31257643  1
  O2-  O493  1  0.42312420  0.10853645  0.64273792  1
  O2-  O494  1  0.41260586  0.06801854  0.98043769  1
  O2-  O495  1  0.42192103  0.34280701  0.30094041  1
  O2-  O496  1  0.42187995  0.34760397  0.63798079  1
  O2-  O497  1  0.42818238  0.34577362  0.97681723  1
  O2-  O498  1  0.41856019  0.59255772  0.30911712  1
  O2-  O499  1  0.38888946  0.57308343  0.64693694  1
  O2-  O500  1  0.42156619  0.58147086  0.98602436  1
  O2-  O501  1  0.41919563  0.84029635  0.30611631  1
  O2-  O502  1  0.38395107  0.84974292  0.64045647  1
  O2-  O503  1  0.44671317  0.83494989  0.99804107  1
  O2-  O504  1  0.65589249  0.08708460  0.30677541  1
  O2-  O505  1  0.67444269  0.10416932  0.64724092  1
  O2-  O506  1  0.68138460  0.13220231  0.96392408  1
  O2-  O507  1  0.66074803  0.32937122  0.30439284  1
  O2-  O508  1  0.65982184  0.33807661  0.64555712  1
  O2-  O509  1  0.66321825  0.34288177  0.97698675  1
  O2-  O510  1  0.60816860  0.55780268  0.28917286  1
  O2-  O511  1  0.68997128  0.60768330  0.65256350  1
  O2-  O512  1  0.68503218  0.58984767  0.97857236  1
  O2-  O513  1  0.67041514  0.83618824  0.31761995  1
  O2-  O514  1  0.71102564  0.82104433  0.63076410  1
  O2-  O515  1  0.67704771  0.83019495  0.97697808  1
  O2-  O516  1  0.92505657  0.07626303  0.31459832  1
  O2-  O517  1  0.92264798  0.10007759  0.63603257  1
  O2-  O518  1  0.91312957  0.08557099  0.97314687  1
  O2-  O519  1  0.94214050  0.32051362  0.30918225  1
  O2-  O520  1  0.91915758  0.33458628  0.64544560  1
  O2-  O521  1  0.91562701  0.33736159  0.97552182  1
  O2-  O522  1  0.89893357  0.57189116  0.31629512  1
  O2-  O523  1  0.91763266  0.58002264  0.65143399  1
  O2-  O524  1  0.90968561  0.57628720  0.98288263  1
  O2-  O525  1  0.92620518  0.84120263  0.30674592  1
  O2-  O526  1  0.94302601  0.84647541  0.65771520  1
  O2-  O527  1  0.91321842  0.84265134  1.02604835  1
  O2-  O528  1  0.06774872  0.14604403  0.03419134  1
  O2-  O529  1  0.08711973  0.16457497  0.34958227  1
  O2-  O530  1  0.07615358  0.16532197  0.68556057  1
  O2-  O531  1  0.04929973  0.33814915  0.04089889  1
  O2-  O532  1  0.10531994  0.41713166  0.35251205  1
  O2-  O533  1  0.08023820  0.41146681  0.69122461  1
  O2-  O534  1  0.07648425  0.67859981  0.01581478  1
  O2-  O535  1  0.05801215  0.66752661  0.35341404  1
  O2-  O536  1  0.08120855  0.68025214  0.69698647  1
  O2-  O537  1  0.09231624  0.94118518  0.02945644  1
  O2-  O538  1  0.08531897  0.92776706  0.34433015  1
  O2-  O539  1  0.03363020  0.89360097  0.67822024  1
  O2-  O540  1  0.33922244  0.17305907  0.01361021  1
  O2-  O541  1  0.33654316  0.18378244  0.33463399  1
  O2-  O542  1  0.34314754  0.19228961  0.67366956  1
  O2-  O543  1  0.34187583  0.41904719  0.01929757  1
  O2-  O544  1  0.34305366  0.42597443  0.35415774  1
  O2-  O545  1  0.32052491  0.40674147  0.68325884  1
  O2-  O546  1  0.33747519  0.67734498  0.01851960  1
  O2-  O547  1  0.37982694  0.70185395  0.37472304  1
  O2-  O548  1  0.32206452  0.68269647  0.67759852  1
  O2-  O549  1  0.30816654  0.89516899  -0.00449396  1
  O2-  O550  1  0.33745588  0.91700834  0.34198159  1
  O2-  O551  1  0.29559095  0.90883767  0.70899454  1
  O2-  O552  1  0.57871923  0.17890575  0.02073250  1
  O2-  O553  1  0.58991082  0.17427628  0.35235325  1
  O2-  O554  1  0.58746762  0.17952751  0.69013288  1
  O2-  O555  1  0.58384904  0.41907321  0.02404105  1
  O2-  O556  1  0.57732229  0.40813259  0.34678874  1
  O2-  O557  1  0.58939285  0.42684136  0.68650465  1
  O2-  O558  1  0.59903196  0.67118683  0.01508381  1
  O2-  O559  1  0.58021087  0.66902965  0.35584303  1
  O2-  O560  1  0.55939044  0.63135977  0.69123545  1
  O2-  O561  1  0.56768927  0.83267106  0.04851782  1
  O2-  O562  1  0.58917816  0.92478911  0.35159871  1
  O2-  O563  1  0.55399733  0.94059787  0.69749923  1
  O2-  O564  1  0.83736141  0.17649716  0.01819599  1
  O2-  O565  1  0.86244430  0.15675909  0.37161376  1
  O2-  O566  1  0.83707469  0.17421545  0.68458449  1
  O2-  O567  1  0.82685672  0.41197971  0.02107194  1
  O2-  O568  1  0.81356650  0.42305982  0.36648905  1
  O2-  O569  1  0.81887100  0.40633063  0.67323483  1
  O2-  O570  1  0.85095342  0.66820449  0.03506068  1
  O2-  O571  1  0.84313693  0.68356444  0.35014661  1
  O2-  O572  1  0.84030153  0.67224236  0.70264438  1
  O2-  O573  1  0.83100860  0.92509285  0.02359491  1
  O2-  O574  1  0.83797483  0.91336168  0.35496784  1
  O2-  O575  1  0.86602388  0.93840528  0.68267269  1
