# generated using pymatgen
data_H2O
_symmetry_space_group_name_H-M   'P 1'
_cell_length_a   17.98058514
_cell_length_b   17.98100598
_cell_length_c   21.98529213
_cell_angle_alpha   89.98927806
_cell_angle_beta   90.00799912
_cell_angle_gamma   119.99930813
_symmetry_Int_Tables_number   1
_chemical_formula_structural   H2O
_chemical_formula_sum   'H384 O192'
_cell_volume   6155.78861830
_cell_formula_units_Z   192
loop_
 _symmetry_equiv_pos_site_id
 _symmetry_equiv_pos_as_xyz
  1  'x, y, z'
loop_
 _atom_type_symbol
 _atom_type_oxidation_number
  H+  1.0
  O2-  -2.0
loop_
 _atom_site_type_symbol
 _atom_site_label
 _atom_site_symmetry_multiplicity
 _atom_site_fract_x
 _atom_site_fract_y
 _atom_site_fract_z
 _atom_site_occupancy
  H+  H0  1  0.88463804  0.53285182  0.50682995  1
  H+  H1  1  0.73132450  0.86917226  -0.00421498  1
  H+  H2  1  1.02564834  0.88621435  0.82752644  1
  H+  H3  1  0.69824355  0.71811046  0.78403739  1
  H+  H4  1  0.52624908  0.38495037  0.34362683  1
  H+  H5  1  -0.02736786  0.86099893  0.32805290  1
  H+  H6  1  0.11771224  0.33840954  0.98544629  1
  H+  H7  1  0.09546656  0.21972465  0.49730545  1
  H+  H8  1  0.85927897  0.38117806  0.82240969  1
  H+  H9  1  0.28004926  0.65401022  0.17074038  1
  H+  H10  1  0.03270720  0.63898354  0.16689193  1
  H+  H11  1  0.28259766  0.15128532  0.67906601  1
  H+  H12  1  0.76987382  0.12667296  0.00163267  1
  H+  H13  1  0.32432078  0.16681073  0.40593160  1
  H+  H14  1  0.47328201  0.86049765  0.99835016  1
  H+  H15  1  0.39320619  0.87012037  0.82869347  1
  H+  H16  1  0.90129573  0.37097962  0.31559331  1
  H+  H17  1  0.09308358  0.97555817  0.15620169  1
  H+  H18  1  0.63796798  0.36929274  0.32386548  1
  H+  H19  1  0.42174138  0.34845303  0.92620544  1
  H+  H20  1  0.38866392  0.36785755  0.17912734  1
  H+  H21  1  0.15511219  0.79846858  0.89382131  1
  H+  H22  1  0.63997608  0.89398693  0.67755207  1
  H+  H23  1  0.38804972  0.27714598  0.98519238  1
  H+  H24  1  0.85542341  0.21705721  0.49530926  1
  H+  H25  1  0.28496698  0.64535059  0.82334147  1
  H+  H26  1  -0.03500140  0.11248889  0.50798038  1
  H+  H27  1  0.27987309  0.88908233  0.67509220  1
  H+  H28  1  0.61659638  0.72361953  0.00212206  1
  H+  H29  1  0.12589561  0.88174136  0.50734764  1
  H+  H30  1  0.85605958  0.71608895  0.67600474  1
  H+  H31  1  0.47685339  0.62421919  0.32728451  1
  H+  H32  1  0.27915362  0.88458921  0.82877055  1
  H+  H33  1  0.28302778  0.38440654  0.96023827  1
  H+  H34  1  0.13369409  0.36042801  0.66227724  1
  H+  H35  1  0.32350741  0.67304885  0.67362440  1
  H+  H36  1  0.36926699  0.97776283  0.16728773  1
  H+  H37  1  0.52871657  0.38289792  0.99775038  1
  H+  H38  1  0.77287672  0.62308464  0.15561837  1
  H+  H39  1  0.64209033  0.28241212  0.50640677  1
  H+  H40  1  0.38672903  0.78079774  0.32980900  1
  H+  H41  1  0.85558019  0.46557732  0.66948653  1
  H+  H42  1  0.33477954  0.42295424  0.73906863  1
  H+  H43  1  0.14621346  0.61095947  0.83233732  1
  H+  H44  1  0.35937889  0.98118345  0.34406649  1
  H+  H45  1  0.95774152  0.76830727  0.61474003  1
  H+  H46  1  0.77910426  0.38352007  0.15734703  1
  H+  H47  1  0.14956732  1.01578192  0.51711520  1
  H+  H48  1  0.58848429  0.66750000  0.72315982  1
  H+  H49  1  0.38252680  0.77718009  1.00067342  1
  H+  H50  1  0.77691942  0.39508306  0.49924734  1
  H+  H51  1  0.17910032  0.08326501  0.57287412  1
  H+  H52  1  0.23508546  0.85854902  0.51341395  1
  H+  H53  1  0.27042449  0.38209547  -0.00684254  1
  H+  H54  1  0.42052051  0.80999648  0.66434791  1
  H+  H55  1  0.62035837  0.48276178  0.49758457  1
  H+  H56  1  0.47877494  0.11870432  0.83394100  1
  H+  H57  1  0.52182906  0.88796465  0.33911786  1
  H+  H58  1  0.11468587  0.71637253  0.81898780  1
  H+  H59  1  0.36376825  0.13911267  1.00694007  1
  H+  H60  1  0.87733153  0.26179099  -0.01338253  1
  H+  H61  1  0.88527568  0.34919394  0.16376876  1
  H+  H62  1  0.61466636  0.22764974  0.15711262  1
  H+  H63  1  0.13424482  0.67009096  -0.03646865  1
  H+  H64  1  0.10447832  0.22705450  0.35476282  1
  H+  H65  1  0.47408696  0.44136047  0.87381523  1
  H+  H66  1  0.42452279  0.40637705  0.01963201  1
  H+  H67  1  0.60002571  0.62415254  0.17691879  1
  H+  H68  1  0.72328984  0.86200256  0.32785524  1
  H+  H69  1  0.62238442  0.98199514  0.00377517  1
  H+  H70  1  0.08789791  0.91553613  0.77038871  1
  H+  H71  1  0.61659509  0.97730288  0.15300379  1
  H+  H72  1  0.97567574  0.62903118  0.32469062  1
  H+  H73  1  0.76385002  0.38070534  0.67163300  1
  H+  H74  1  0.40459452  0.57582352  0.93539832  1
  H+  H75  1  0.07792274  0.41921793  0.40297092  1
  H+  H76  1  0.48494523  0.11817914  0.67347677  1
  H+  H77  1  0.49059199  0.86970717  0.82611527  1
  H+  H78  1  0.50104707  0.62701963  0.66274763  1
  H+  H79  1  0.36365017  0.88513976  0.49362952  1
  H+  H80  1  0.36480448  0.64570273  0.34650243  1
  H+  H81  1  0.85467448  0.96309987  0.16032302  1
  H+  H82  1  -0.02448369  0.60563188  0.83587505  1
  H+  H83  1  0.85968360  0.23653846  0.66737189  1
  H+  H84  1  0.14315182  0.11746780  0.83274700  1
  H+  H85  1  0.89076748  0.11048976  0.84123714  1
  H+  H86  1  0.22976127  0.62023314  0.99211121  1
  H+  H87  1  0.83103691  0.91050039  0.06576053  1
  H+  H88  1  0.10572318  0.70807222  0.67002156  1
  H+  H89  1  0.13692795  0.77865141  0.32963842  1
  H+  H90  1  0.38039212  0.11235018  0.33321380  1
  H+  H91  1  0.38511718  0.27311276  0.33361793  1
  H+  H92  1  0.43560429  0.50017375  0.02492122  1
  H+  H93  1  0.26759628  0.13003041  0.82645168  1
  H+  H94  1  0.85731881  0.88058299  0.67508257  1
  H+  H95  1  0.88911167  0.86073734  0.83811143  1
  H+  H96  1  0.06719322  0.48269472  0.14222001  1
  H+  H97  1  0.66227000  0.32236856  0.92367408  1
  H+  H98  1  0.71971053  0.85512654  0.17205449  1
  H+  H99  1  0.87435841  0.25488334  0.16905257  1
  H+  H100  1  0.85688485  0.46728831  0.00082822  1
  H+  H101  1  0.12798100  0.13273640  0.32182230  1
  H+  H102  1  0.86506902  0.97338882  0.00733548  1
  H+  H103  1  0.64440271  0.64006988  0.82617329  1
  H+  H104  1  0.72977921  0.11163938  0.83796845  1
  H+  H105  1  0.66659059  0.82718964  0.60260940  1
  H+  H106  1  0.47801373  0.86834269  0.17167856  1
  H+  H107  1  0.26812311  0.14903205  0.34420882  1
  H+  H108  1  0.92714396  0.33556143  0.25642780  1
  H+  H109  1  0.13933786  0.52250846  0.49600061  1
  H+  H110  1  0.39238867  0.61307864  0.84693856  1
  H+  H111  1  0.02123705  0.64092796  0.49876340  1
  H+  H112  1  0.88234621  0.11484455  0.32606338  1
  H+  H113  1  0.07269896  0.44560217  0.66026803  1
  H+  H114  1  0.52200931  0.63771571  0.49668971  1
  H+  H115  1  0.86071865  0.12907811  0.00357631  1
  H+  H116  1  0.79654780  0.32188953  0.37157628  1
  H+  H117  1  0.63152526  0.52779058  0.33095764  1
  H+  H118  1  0.12692004  0.14090972  0.01609384  1
  H+  H119  1  0.02842492  0.87966569  0.65843201  1
  H+  H120  1  0.98038539  0.11081152  0.83918307  1
  H+  H121  1  0.49253769  0.37303064  0.50076911  1
  H+  H122  1  0.33587296  0.91850372  0.76735836  1
  H+  H123  1  0.32881889  0.66998408  0.07210073  1
  H+  H124  1  0.36316052  0.39498716  0.50757653  1
  H+  H125  1  0.00763526  0.62851129  0.67209829  1
  H+  H126  1  0.71861510  0.86318722  0.50560290  1
  H+  H127  1  0.52892251  0.63768932  0.00707675  1
  H+  H128  1  0.23340231  0.11885598  0.99391089  1
  H+  H129  1  0.72210195  0.35235915  0.98397955  1
  H+  H130  1  0.38166142  0.51924404  0.84630361  1
  H+  H131  1  0.27633751  0.64677438  0.35232577  1
  H+  H132  1  0.63000686  0.88892639  1.00383681  1
  H+  H133  1  0.36061645  0.89249678  0.34008120  1
  H+  H134  1  0.86779131  0.97685485  0.82904232  1
  H+  H135  1  0.63243421  0.10778907  0.16779951  1
  H+  H136  1  0.02209124  0.13901602  0.66810841  1
  H+  H137  1  0.63427583  0.61283105  0.50800161  1
  H+  H138  1  0.08515832  0.31945918  0.11312612  1
  H+  H139  1  0.97031810  0.85589953  0.17020649  1
  H+  H140  1  0.73157089  0.87112360  0.84479977  1
  H+  H141  1  0.97345244  0.35912962  0.83329214  1
  H+  H142  1  0.12978072  0.21551813  0.06138283  1
  H+  H143  1  0.85076352  0.37462178  -0.00200497  1
  H+  H144  1  0.35173896  0.46664463  0.16316980  1
  H+  H145  1  0.17955474  0.58464388  0.89122448  1
  H+  H146  1  0.33799470  0.67274827  0.44260969  1
  H+  H147  1  0.76927342  0.62640616  0.00466084  1
  H+  H148  1  0.89001328  0.60834613  0.16544048  1
  H+  H149  1  0.40059225  0.54009389  0.66622666  1
  H+  H150  1  0.21583380  0.56262307  0.67571961  1
  H+  H151  1  0.71687836  0.12103057  0.65065553  1
  H+  H152  1  0.07189611  0.56931634  0.63950212  1
  H+  H153  1  0.47122794  0.11440762  0.34004135  1
  H+  H154  1  0.53258155  0.38989709  0.82403746  1
  H+  H155  1  0.11110927  0.96379092  0.36462876  1
  H+  H156  1  0.14281157  0.13036844  0.66621323  1
  H+  H157  1  0.37343069  0.39636702  0.83493399  1
  H+  H158  1  0.85844581  0.12981974  0.49536320  1
  H+  H159  1  0.63174277  0.10510739  0.99165740  1
  H+  H160  1  0.61560861  0.21811757  -0.00092637  1
  H+  H161  1  0.87144895  0.40739805  0.50575342  1
  H+  H162  1  0.11310849  0.22297291  0.82019289  1
  H+  H163  1  0.11210171  0.23040238  0.67039574  1
  H+  H164  1  0.32851808  0.91284262  0.43516368  1
  H+  H165  1  0.63446254  0.75993004  0.66044708  1
  H+  H166  1  -0.02110071  0.10984534  -0.00060113  1
  H+  H167  1  0.86293447  0.86015200  0.51211018  1
  H+  H168  1  0.35754083  0.23143815  0.15798961  1
  H+  H169  1  0.62340929  0.97480594  0.67262059  1
  H+  H170  1  1.02306890  0.88927161  1.00758253  1
  H+  H171  1  0.14240926  0.84874572  0.66518638  1
  H+  H172  1  0.38316453  0.02194933  0.67211664  1
  H+  H173  1  0.87942037  0.10212831  0.16913925  1
  H+  H174  1  0.14665204  1.04543603  0.67823418  1
  H+  H175  1  0.71331229  0.60782219  0.66214429  1
  H+  H176  1  -0.04216560  0.35875747  -0.01461041  1
  H+  H177  1  0.85647708  0.87479856  0.15908775  1
  H+  H178  1  0.88301875  0.85619736  0.99259862  1
  H+  H179  1  0.85528084  0.72848129  0.34067888  1
  H+  H180  1  0.91889982  0.34471489  0.58197339  1
  H+  H181  1  0.40079673  0.40207411  0.35204970  1
  H+  H182  1  0.89296276  0.52105761  0.16770322  1
  H+  H183  1  0.09291210  0.24244857  0.98177199  1
  H+  H184  1  0.60289695  0.13318210  0.66880891  1
  H+  H185  1  0.38893935  0.86909308  0.17286614  1
  H+  H186  1  0.13629206  0.05522905  0.29174292  1
  H+  H187  1  0.47636233  0.10668676  0.18071481  1
  H+  H188  1  0.76627537  0.87565298  0.67266143  1
  H+  H189  1  0.38775467  0.11963223  0.67315178  1
  H+  H190  1  0.87084727  0.23379844  0.33640905  1
  H+  H191  1  0.37818485  0.61018189  0.17529960  1
  H+  H192  1  0.12979475  0.35586365  0.82736513  1
  H+  H193  1  0.66305606  0.07329032  0.22593194  1
  H+  H194  1  0.37140590  0.73626909  0.16302976  1
  H+  H195  1  0.60885975  0.88291927  0.33921732  1
  H+  H196  1  0.27475359  0.12607827  0.50225409  1
  H+  H197  1  0.63840014  0.60188813  -0.00996981  1
  H+  H198  1  0.14207457  0.02715875  0.83759669  1
  H+  H199  1  0.76901681  0.63599833  0.49325818  1
  H+  H200  1  0.39982433  1.02500166  0.50003576  1
  H+  H201  1  0.38636463  0.53001707  0.51745673  1
  H+  H202  1  0.61612031  0.88552566  0.15509198  1
  H+  H203  1  0.23220814  0.34381887  0.12287784  1
  H+  H204  1  0.11584357  0.47480634  0.81940477  1
  H+  H205  1  0.00004783  0.32357279  0.13370757  1
  H+  H206  1  0.21906620  0.35932215  0.50889788  1
  H+  H207  1  0.22642049  0.86871026  0.32928124  1
  H+  H208  1  0.40741374  0.32275976  0.46414256  1
  H+  H209  1  0.11883243  0.73167995  0.16511639  1
  H+  H210  1  0.71883367  0.10648045  0.50165601  1
  H+  H211  1  0.10990968  0.48792965  0.13252674  1
  H+  H212  1  0.88498644  0.51823217  0.83430327  1
  H+  H213  1  0.72724322  0.10797376  0.31652595  1
  H+  H214  1  0.52966514  0.14747344  0.48427684  1
  H+  H215  1  0.88217775  0.76566116  0.17202310  1
  H+  H216  1  0.10816654  0.63532371  0.49294267  1
  H+  H217  1  0.71814039  0.61726069  0.33086010  1
  H+  H218  1  0.11194922  0.87896917  0.34457831  1
  H+  H219  1  0.61793926  0.14926120  0.48089266  1
  H+  H220  1  0.45850899  0.48790860  0.38739429  1
  H+  H221  1  0.39105996  0.77299534  0.82971118  1
  H+  H222  1  0.13899189  0.86909617  0.17233310  1
  H+  H223  1  0.13921881  0.85497420  0.84479162  1
  H+  H224  1  0.86075356  0.88827407  0.34003292  1
  H+  H225  1  0.36532057  0.39500481  0.67977616  1
  H+  H226  1  0.62241300  0.39332241  0.49796447  1
  H+  H227  1  0.52478957  0.13210869  0.00345198  1
  H+  H228  1  0.60740240  0.63515122  0.34099899  1
  H+  H229  1  0.85281993  -0.02096182  0.49488263  1
  H+  H230  1  0.03224114  0.39419118  0.33688845  1
  H+  H231  1  0.77099682  0.62640323  0.83082431  1
  H+  H232  1  0.63966061  1.01823218  0.31938752  1
  H+  H233  1  0.88133052  0.10948053  0.66640062  1
  H+  H234  1  0.89052943  1.02484838  0.66009369  1
  H+  H235  1  0.36541687  0.13045026  0.82624756  1
  H+  H236  1  0.27434957  0.38520267  0.82774408  1
  H+  H237  1  0.51430150  0.62864215  0.17653585  1
  H+  H238  1  1.00008151  0.35203411  0.67614197  1
  H+  H239  1  0.62628267  0.61394410  0.65869789  1
  H+  H240  1  0.86505862  0.77083686  0.50567910  1
  H+  H241  1  0.61479013  0.37912519  0.99606657  1
  H+  H242  1  0.47685202  0.86560926  0.50574413  1
  H+  H243  1  0.14084813  0.53464675  0.33989469  1
  H+  H244  1  0.65634235  0.08610288  0.59206241  1
  H+  H245  1  0.21905784  0.35643954  0.33484652  1
  H+  H246  1  1.01464871  0.13756125  0.33945805  1
  H+  H247  1  0.71806894  0.35863435  0.83173814  1
  H+  H248  1  0.63833694  0.51137070  0.99159291  1
  H+  H249  1  0.62941592  0.36653437  0.66597955  1
  H+  H250  1  0.62817740  0.02005647  0.50170170  1
  H+  H251  1  0.60684547  0.47308974  0.67974262  1
  H+  H252  1  0.11853875  0.94338748  0.63206241  1
  H+  H253  1  0.39089406  1.02861302  -0.00453884  1
  H+  H254  1  0.16369993  0.25490273  0.14913479  1
  H+  H255  1  0.62845953  0.36309777  0.82940185  1
  H+  H256  1  0.13527742  0.53777398  -0.01174751  1
  H+  H257  1  0.11309897  0.64631365  0.34835075  1
  H+  H258  1  0.85859430  0.71664656  0.00500435  1
  H+  H259  1  0.76262299  0.12078582  0.15617980  1
  H+  H260  1  0.11040589  0.97946694  0.00859984  1
  H+  H261  1  0.76954920  0.07955445  0.69645577  1
  H+  H262  1  0.60855853  0.72560220  0.34090424  1
  H+  H263  1  0.63171643  0.77199925  0.50616643  1
  H+  H264  1  0.86342507  0.21788969  0.82286540  1
  H+  H265  1  0.39294155  0.53519070  0.33262435  1
  H+  H266  1  0.36706578  0.89603533  0.00836607  1
  H+  H267  1  0.34450670  0.52063792  0.99007514  1
  H+  H268  1  0.14676578  0.63915323  0.19027282  1
  H+  H269  1  0.63882138  1.02487849  0.83733074  1
  H+  H270  1  0.85909222  0.97653870  0.33973728  1
  H+  H271  1  0.41634818  0.83803378  0.26858359  1
  H+  H272  1  1.02684055  0.39474907  0.50318972  1
  H+  H273  1  0.37541407  0.90018967  0.67211201  1
  H+  H274  1  0.88477171  0.62208010  0.50631047  1
  H+  H275  1  0.14172177  0.36877393  0.35615407  1
  H+  H276  1  0.63695091  0.50543174  0.83424424  1
  H+  H277  1  0.37638933  0.23877290  0.67983299  1
  H+  H278  1  0.91406727  0.81908052  0.58842087  1
  H+  H279  1  0.10888160  0.38136142  0.49637840  1
  H+  H280  1  0.61471277  0.14166252  0.82509974  1
  H+  H281  1  0.40340168  0.65886694  0.67626366  1
  H+  H282  1  0.60798430  0.88434057  0.49330464  1
  H+  H283  1  0.65055759  0.37601548  0.17106808  1
  H+  H284  1  0.87162112  0.60359663  0.66374136  1
  H+  H285  1  0.72344863  0.36407158  0.32405382  1
  H+  H286  1  0.20133813  0.58067336  0.70108622  1
  H+  H287  1  0.39589409  0.11018669  0.50026025  1
  H+  H288  1  0.58497840  0.41519592  0.74557459  1
  H+  H289  1  0.32881196  0.17207697  0.06287410  1
  H+  H290  1  0.36557859  0.21424697  0.50362424  1
  H+  H291  1  0.06466956  0.15751225  0.44004391  1
  H+  H292  1  0.62907084  0.76846599  0.18034618  1
  H+  H293  1  0.27953426  0.88913136  0.16036226  1
  H+  H294  1  0.82943600  0.41142243  0.76357506  1
  H+  H295  1  0.58408755  0.16664305  0.09873636  1
  H+  H296  1  0.47989745  0.37495599  0.18119868  1
  H+  H297  1  0.19586814  0.83989497  1.01526483  1
  H+  H298  1  0.57860234  0.66519002  0.43512065  1
  H+  H299  1  0.91574949  0.82873246  0.93384448  1
  H+  H300  1  0.83225834  0.91583059  0.76987850  1
  H+  H301  1  0.67095521  0.84138597  0.93529590  1
  H+  H302  1  0.07923008  0.67743914  0.40374348  1
  H+  H303  1  0.66421225  0.83298973  0.26800243  1
  H+  H304  1  0.42554663  0.85439235  0.60095017  1
  H+  H305  1  0.83601594  0.17310719  0.39605155  1
  H+  H306  1  0.34249915  0.92920991  0.06772614  1
  H+  H307  1  0.66585708  0.56513467  0.89706333  1
  H+  H308  1  0.08004499  0.65227806  0.76207442  1
  H+  H309  1  0.58913982  0.41861967  0.40169242  1
  H+  H310  1  0.83388618  0.40976661  0.40331648  1
  H+  H311  1  0.82802436  0.66736405  0.43281041  1
  H+  H312  1  0.17642560  0.82275386  0.60627834  1
  H+  H313  1  0.59648285  0.22329714  0.35351766  1
  H+  H314  1  0.61167344  0.88341276  0.82987516  1
  H+  H315  1  0.37088207  0.42673149  0.10458635  1
  H+  H316  1  0.22781931  0.36857499  0.66538757  1
  H+  H317  1  0.16750854  0.84104819  0.23266904  1
  H+  H318  1  0.01974666  0.46712174  0.04415421  1
  H+  H319  1  0.38770763  0.77662557  0.51193523  1
  H+  H320  1  0.08199120  0.16124372  0.76228707  1
  H+  H321  1  0.66288152  0.07629711  0.93108192  1
  H+  H322  1  0.40308358  0.57897700  0.23600014  1
  H+  H323  1  0.04965907  0.39891302  0.05414828  1
  H+  H324  1  0.57936403  0.16302572  0.73367351  1
  H+  H325  1  0.91869838  0.59503163  0.26496446  1
  H+  H326  1  0.83261698  0.40844620  0.09553570  1
  H+  H327  1  0.98360385  0.44193223  0.57189081  1
  H+  H328  1  0.90936044  0.32420340  0.89062529  1
  H+  H329  1  0.82550974  0.66100396  0.73824440  1
  H+  H330  1  0.88177892  0.60152177  0.99215060  1
  H+  H331  1  0.62694249  0.27596803  0.66233202  1
  H+  H332  1  0.92611901  0.08314914  0.93635674  1
  H+  H333  1  0.05719067  0.68404211  -0.02132144  1
  H+  H334  1  0.36489351  0.64095082  0.50306579  1
  H+  H335  1  0.65130920  0.77846536  0.84480427  1
  H+  H336  1  0.83045677  0.65935506  0.09634490  1
  H+  H337  1  0.07989086  0.10377409  0.11413686  1
  H+  H338  1  0.86343730  0.63326438  0.82751617  1
  H+  H339  1  0.11415260  0.55021957  0.58151935  1
  H+  H340  1  0.82634276  0.91930209  0.43484068  1
  H+  H341  1  0.42763077  0.33891410  0.61245975  1
  H+  H342  1  0.39029450  0.02725163  0.83553501  1
  H+  H343  1  0.35600696  0.67964073  0.76826974  1
  H+  H344  1  0.83237069  0.15102854  0.76575724  1
  H+  H345  1  0.57953010  0.91400105  0.43243670  1
  H+  H346  1  0.22650856  0.61399531  0.50547822  1
  H+  H347  1  0.88775552  0.77057614  0.83865123  1
  H+  H348  1  0.41817416  0.07708284  0.24047270  1
  H+  H349  1  0.41832297  0.33432621  0.27353635  1
  H+  H350  1  0.08322020  0.90267127  0.45199871  1
  H+  H351  1  0.25874699  0.16790959  0.15043250  1
  H+  H352  1  0.42516920  0.59391708  0.57473137  1
  H+  H353  1  0.90841668  0.07929367  0.26755771  1
  H+  H354  1  0.16302235  0.33138071  0.56908605  1
  H+  H355  1  0.33648164  0.16930580  0.76497029  1
  H+  H356  1  0.41800080  0.08793515  0.93539586  1
  H+  H357  1  0.90585828  0.58317346  0.60147528  1
  H+  H358  1  0.96568003  0.09470184  0.17467947  1
  H+  H359  1  0.36021312  0.64137544  0.01276471  1
  H+  H360  1  0.14187824  0.31081356  0.24046566  1
  H+  H361  1  0.66260204  0.58336991  0.56901158  1
  H+  H362  1  0.15739816  0.55619239  0.19762142  1
  H+  H363  1  0.34443989  0.42741529  0.44695481  1
  H+  H364  1  0.14340742  0.76932061  0.51471904  1
  H+  H365  1  0.07618864  0.41208369  0.76118924  1
  H+  H366  1  0.17115044  0.09302824  0.93577291  1
  H+  H367  1  0.91086742  0.57350737  0.93230050  1
  H+  H368  1  0.90573326  0.08227558  0.56841389  1
  H+  H369  1  0.91488691  0.83320631  0.26711786  1
  H+  H370  1  0.15095808  0.35553821  0.23315726  1
  H+  H371  1  0.86270035  0.32852212  0.66954879  1
  H+  H372  1  0.61295622  0.23154707  0.82232697  1
  H+  H373  1  0.48760312  0.36869641  0.67269847  1
  H+  H374  1  0.59720648  0.91983887  0.76641207  1
  H+  H375  1  0.59668122  0.92055097  0.07130228  1
  H+  H376  1  0.66681572  0.33771183  0.56879761  1
  H+  H377  1  0.15665032  0.14446783  0.22572538  1
  H+  H378  1  0.14003091  0.31399442  0.88745563  1
  H+  H379  1  0.85890457  0.64184325  0.33724444  1
  H+  H380  1  0.07786026  0.91782292  0.09761719  1
  H+  H381  1  0.82487900  0.15226210  0.09755664  1
  H+  H382  1  0.17549864  0.60382462  0.28510758  1
  H+  H383  1  0.67015464  0.33901520  0.23043840  1
  O2-  O384  1  0.07564289  0.08610761  0.15776139  1
  O2-  O385  1  0.05913213  0.15904991  0.48466668  1
  O2-  O386  1  0.08528137  0.16041159  0.80779337  1
  O2-  O387  1  0.03622093  0.32562043  0.09889761  1
  O2-  O388  1  0.08108715  0.41395529  0.47999518  1
  O2-  O389  1  0.08006365  0.41358062  0.80665186  1
  O2-  O390  1  0.09535611  0.66913764  0.15800046  1
  O2-  O391  1  0.08143982  0.67093824  0.48272927  1
  O2-  O392  1  0.08443103  0.65467714  0.80748116  1
  O2-  O393  1  0.07502466  0.91643692  0.14430098  1
  O2-  O394  1  0.09610492  0.91368495  0.49562941  1
  O2-  O395  1  0.08793788  0.91817181  0.81487730  1
  O2-  O396  1  0.31528376  0.17760838  0.13785040  1
  O2-  O397  1  0.33443840  0.15926045  0.48209805  1
  O2-  O398  1  0.33134425  0.15988791  0.81146072  1
  O2-  O399  1  0.33489310  0.41023928  0.14378892  1
  O2-  O400  1  0.33084830  0.42194070  0.49122909  1
  O2-  O401  1  0.33437195  0.42035891  0.81369600  1
  O2-  O402  1  0.33649528  0.67452157  0.15000357  1
  O2-  O403  1  0.33339002  0.67035772  0.48814824  1
  O2-  O404  1  0.34813761  0.68020840  0.81353172  1
  O2-  O405  1  0.34087907  0.91812810  0.14789751  1
  O2-  O406  1  0.32956203  0.91262552  0.48075190  1
  O2-  O407  1  0.33946584  0.91792123  0.81303868  1
  O2-  O408  1  0.58546449  0.16661701  0.14404149  1
  O2-  O409  1  0.59230812  0.18602397  0.47288197  1
  O2-  O410  1  0.58187349  0.16815495  0.80830780  1
  O2-  O411  1  0.60769285  0.46061199  0.15897888  1
  O2-  O412  1  0.59051987  0.42194642  0.48166645  1
  O2-  O413  1  0.59165579  0.41476279  0.80733074  1
  O2-  O414  1  0.57771410  0.66338961  0.17218938  1
  O2-  O415  1  0.58214162  0.66586125  0.48065615  1
  O2-  O416  1  0.64432999  0.69116152  0.80656554  1
  O2-  O417  1  0.58915094  0.91695431  0.13489244  1
  O2-  O418  1  0.57795366  0.91504411  0.47811616  1
  O2-  O419  1  0.58205143  0.91299006  0.81200930  1
  O2-  O420  1  0.82473127  0.14967419  0.14297737  1
  O2-  O421  1  0.82869387  0.16057285  0.47636922  1
  O2-  O422  1  0.83371364  0.15532231  0.81284905  1
  O2-  O423  1  0.83882325  0.40942816  0.14089536  1
  O2-  O424  1  0.83722850  0.42792527  0.48288737  1
  O2-  O425  1  0.83017600  0.41351230  0.80906171  1
  O2-  O426  1  0.83256177  0.66001728  0.14239116  1
  O2-  O427  1  0.82984083  0.66847225  0.47866682  1
  O2-  O428  1  0.83170457  0.66351681  0.81495426  1
  O2-  O429  1  0.82525256  0.90401808  0.14288775  1
  O2-  O430  1  0.82190719  0.91803930  0.48018515  1
  O2-  O431  1  0.83466294  0.91542051  0.81533102  1
  O2-  O432  1  0.15586724  0.15949266  0.18124042  1
  O2-  O433  1  0.18399454  0.07803653  0.52881572  1
  O2-  O434  1  0.17599008  0.08930335  0.84886314  1
  O2-  O435  1  0.17108194  0.29607720  0.11662331  1
  O2-  O436  1  0.15872835  0.32972912  0.52366272  1
  O2-  O437  1  0.15687492  0.32299606  0.84367585  1
  O2-  O438  1  0.18479593  0.61604659  0.21053081  1
  O2-  O439  1  0.16285065  0.58185118  0.51268224  1
  O2-  O440  1  0.18057301  0.58382870  0.84554759  1
  O2-  O441  1  0.16976066  0.83988578  0.18746956  1
  O2-  O442  1  0.17669194  0.82767107  0.53376675  1
  O2-  O443  1  0.17061209  0.82362198  0.85252611  1
  O2-  O444  1  0.41691877  0.07134102  0.19548880  1
  O2-  O445  1  0.43328353  0.08645352  0.51153329  1
  O2-  O446  1  0.41684980  0.08892818  0.84758628  1
  O2-  O447  1  0.42090621  0.34003355  0.19631266  1
  O2-  O448  1  0.42698397  0.33991177  0.50590453  1
  O2-  O449  1  0.43447722  0.38117392  0.86380820  1
  O2-  O450  1  0.40188377  0.57390285  0.19077564  1
  O2-  O451  1  0.42016695  0.59185512  0.52864131  1
  O2-  O452  1  0.41284729  0.57730214  0.86645539  1
  O2-  O453  1  0.41972137  0.83838706  0.18925699  1
  O2-  O454  1  0.41759175  0.83861020  0.52380606  1
  O2-  O455  1  0.42544145  0.83872222  0.83973411  1
  O2-  O456  1  0.66068988  0.07372087  0.17930726  1
  O2-  O457  1  0.65877704  0.08113724  0.51629097  1
  O2-  O458  1  0.66869636  0.08463021  0.85326759  1
  O2-  O459  1  0.67348659  0.33936385  0.18456700  1
  O2-  O460  1  0.67293873  0.34248324  0.52355363  1
  O2-  O461  1  0.65706522  0.32670439  0.84508356  1
  O2-  O462  1  0.64839597  0.53767718  0.17743342  1
  O2-  O463  1  0.66546254  0.58336140  0.52298256  1
  O2-  O464  1  0.66877291  0.56827779  0.85160804  1
  O2-  O465  1  0.66037020  0.83236954  0.18828934  1
  O2-  O466  1  0.65856140  0.83206821  0.52205650  1
  O2-  O467  1  0.67075507  0.83812609  0.85996863  1
  O2-  O468  1  0.90576722  0.06956657  0.18812005  1
  O2-  O469  1  0.90241275  0.08121580  0.52279922  1
  O2-  O470  1  0.92166818  0.08080962  0.85754656  1
  O2-  O471  1  0.91291177  0.31664602  0.18000517  1
  O2-  O472  1  0.94394530  0.38863473  0.54881623  1
  O2-  O473  1  0.91158357  0.32611849  0.84510667  1
  O2-  O474  1  0.92214181  0.58133211  0.18262961  1
  O2-  O475  1  0.91526531  0.59267723  0.52373072  1
  O2-  O476  1  0.91489610  0.57875614  0.84998213  1
  O2-  O477  1  0.91046314  0.82620505  0.18705845  1
  O2-  O478  1  0.88805518  0.82579915  0.52862570  1
  O2-  O479  1  0.92138531  0.83200475  0.85226864  1
  O2-  O480  1  0.16681467  0.11743773  0.29613113  1
  O2-  O481  1  0.17901831  0.10209019  0.65891461  1
  O2-  O482  1  0.17074236  0.09161162  0.98066185  1
  O2-  O483  1  0.16924965  0.33252899  0.36146803  1
  O2-  O484  1  0.16843381  0.33444742  0.64788911  1
  O2-  O485  1  0.09338387  0.28927033  0.95808455  1
  O2-  O486  1  0.17170240  0.59757932  0.33073905  1
  O2-  O487  1  0.07027664  0.52218415  0.61443855  1
  O2-  O488  1  0.17436650  0.59351825  0.96874639  1
  O2-  O489  1  0.16532404  0.83941767  0.31409303  1
  O2-  O490  1  0.17442860  0.81987013  0.65270269  1
  O2-  O491  1  0.19870657  0.79341931  1.03699839  1
  O2-  O492  1  0.41038269  0.08128599  0.32115375  1
  O2-  O493  1  0.41728461  0.08647658  0.66079859  1
  O2-  O494  1  0.42142102  0.09047509  0.98014858  1
  O2-  O495  1  0.41987473  0.33434288  0.31922496  1
  O2-  O496  1  0.42414284  0.33589866  0.65676194  1
  O2-  O497  1  0.42362180  0.33824393  0.97381231  1
  O2-  O498  1  0.41425350  0.59279599  0.31471204  1
  O2-  O499  1  0.43316788  0.59892013  0.64909572  1
  O2-  O500  1  0.39819772  0.57382582  0.98257314  1
  O2-  O501  1  0.41663290  0.84088767  0.31403921  1
  O2-  O502  1  0.43061253  0.86436802  0.64598919  1
  O2-  O503  1  0.41395740  0.83707157  0.98482233  1
  O2-  O504  1  0.67113469  0.07317105  0.29664675  1
  O2-  O505  1  0.65592911  0.08959880  0.63802837  1
  O2-  O506  1  0.66158493  0.07287533  0.97684716  1
  O2-  O507  1  0.66498984  0.33693488  0.30668563  1
  O2-  O508  1  0.65931562  0.33602379  0.64794371  1
  O2-  O509  1  0.66172449  0.31754155  0.96913272  1
  O2-  O510  1  0.65664401  0.58872378  0.31853131  1
  O2-  O511  1  0.65460439  0.57818096  0.64481299  1
  O2-  O512  1  0.67068322  0.57333159  0.97606832  1
  O2-  O513  1  0.66234783  0.83084796  0.31347187  1
  O2-  O514  1  0.66977669  0.82535393  0.64779751  1
  O2-  O515  1  0.66977982  0.84333961  0.98126299  1
  O2-  O516  1  0.91191041  0.08268716  0.31283688  1
  O2-  O517  1  0.91825514  0.08524738  0.64633178  1
  O2-  O518  1  0.92053156  0.08039464  0.98192306  1
  O2-  O519  1  0.93260270  0.34160329  0.30200941  1
  O2-  O520  1  0.89199994  0.29821022  0.65352813  1
  O2-  O521  1  0.89982526  0.31980251  0.96787452  1
  O2-  O522  1  0.91587621  0.60146075  0.30951351  1
  O2-  O523  1  0.90531972  0.57760974  0.64695304  1
  O2-  O524  1  0.91217867  0.57139111  0.97744336  1
  O2-  O525  1  0.91291054  0.83592229  0.31248379  1
  O2-  O526  1  0.93650687  0.80535042  0.62988629  1
  O2-  O527  1  0.91421847  0.82635774  0.97909719  1
  O2-  O528  1  0.09130050  0.16153409  0.03844815  1
  O2-  O529  1  0.07398637  0.16246428  0.35685362  1
  O2-  O530  1  0.08278473  0.16895619  0.68428575  1
  O2-  O531  1  0.04674749  0.43945597  0.02254851  1
  O2-  O532  1  0.08902703  0.42556292  0.35806705  1
  O2-  O533  1  0.06208878  0.39386131  0.68427859  1
  O2-  O534  1  0.10943129  0.70733526  -0.04608392  1
  O2-  O535  1  0.08259084  0.67847347  0.35838768  1
  O2-  O536  1  0.06865288  0.64774457  0.68397987  1
  O2-  O537  1  0.08131031  0.92075879  0.02583400  1
  O2-  O538  1  0.07524260  0.90161735  0.36374513  1
  O2-  O539  1  0.09050593  0.91887329  0.67095515  1
  O2-  O540  1  0.33064162  0.16838500  0.01725270  1
  O2-  O541  1  0.32688347  0.17346449  0.36042165  1
  O2-  O542  1  0.34323854  0.17628878  0.69477423  1
  O2-  O543  1  0.43081202  0.45247150  0.04928895  1
  O2-  O544  1  0.39862943  0.44955225  0.37611938  1
  O2-  O545  1  0.33393690  0.42440326  0.69278222  1
  O2-  O546  1  0.32819520  0.67015636  0.02646839  1
  O2-  O547  1  0.33848842  0.67818554  0.36458710  1
  O2-  O548  1  0.37941099  0.69667063  0.69323480  1
  O2-  O549  1  0.34405413  0.93361883  0.02240780  1
  O2-  O550  1  0.32735544  0.91854808  0.35697138  1
  O2-  O551  1  0.34015891  0.92636926  0.69009607  1
  O2-  O552  1  0.58632438  0.15851461  0.01698568  1
  O2-  O553  1  0.56348750  0.16345288  0.36839658  1
  O2-  O554  1  0.57110715  0.16078161  0.68786247  1
  O2-  O555  1  0.58959477  0.41322681  0.01192864  1
  O2-  O556  1  0.58752353  0.41949409  0.35635338  1
  O2-  O557  1  0.57950510  0.41285207  0.69489459  1
  O2-  O558  1  0.59079452  0.66238760  0.01234874  1
  O2-  O559  1  0.57517830  0.66525792  0.35630795  1
  O2-  O560  1  0.58628382  0.66758742  0.67857883  1
  O2-  O561  1  0.59771283  0.92077026  0.02192583  1
  O2-  O562  1  0.58191806  0.91597312  0.35521215  1
  O2-  O563  1  0.63218203  0.93753374  0.70090315  1
  O2-  O564  1  0.82954239  0.15869027  0.01805425  1
  O2-  O565  1  0.83742168  0.17337662  0.35076455  1
  O2-  O566  1  0.82101822  0.13625913  0.69454723  1
  O2-  O567  1  0.82413199  0.40642758  0.01655597  1
  O2-  O568  1  0.82351127  0.38288846  0.36199529  1
  O2-  O569  1  0.82510950  0.40550003  0.68494845  1
  O2-  O570  1  0.82993540  0.65700160  0.02128720  1
  O2-  O571  1  0.82605165  0.66838214  0.35602804  1
  O2-  O572  1  0.82190142  0.65717092  0.69249559  1
  O2-  O573  1  0.83087294  0.91189285  0.02000398  1
  O2-  O574  1  0.82845440  0.91638241  0.35550038  1
  O2-  O575  1  0.82745357  0.90962946  0.68991037  1
