# generated using pymatgen
data_H2O
_symmetry_space_group_name_H-M   'P 1'
_cell_length_a   17.98955616
_cell_length_b   17.99511730
_cell_length_c   22.00907793
_cell_angle_alpha   90.00632932
_cell_angle_beta   89.99701308
_cell_angle_gamma   120.00008757
_symmetry_Int_Tables_number   1
_chemical_formula_structural   H2O
_chemical_formula_sum   'H384 O192'
_cell_volume   6170.31341606
_cell_formula_units_Z   192
loop_
 _symmetry_equiv_pos_site_id
 _symmetry_equiv_pos_as_xyz
  1  'x, y, z'
loop_
 _atom_type_symbol
 _atom_type_oxidation_number
  H+  1.0
  O2-  -2.0
loop_
 _atom_site_type_symbol
 _atom_site_label
 _atom_site_symmetry_multiplicity
 _atom_site_fract_x
 _atom_site_fract_y
 _atom_site_fract_z
 _atom_site_occupancy
  H+  H0  1  0.72909540  0.62365760  0.33613362  1
  H+  H1  1  0.13811412  0.72144064  0.02542426  1
  H+  H2  1  0.87662174  0.14250829  0.16576899  1
  H+  H3  1  0.97912000  0.11530031  0.99727810  1
  H+  H4  1  0.97949185  0.11510947  0.18045418  1
  H+  H5  1  0.88077693  0.49934010  1.01768508  1
  H+  H6  1  0.19395574  0.33761126  0.83865490  1
  H+  H7  1  0.43630333  0.34469659  0.92897676  1
  H+  H8  1  0.13142413  0.86516647  0.66027847  1
  H+  H9  1  0.00727348  0.36633460  0.17244694  1
  H+  H10  1  0.02262485  0.88562906  0.66845020  1
  H+  H11  1  0.46973643  0.38664896  0.16232046  1
  H+  H12  1  0.60962278  0.12041443  0.49309037  1
  H+  H13  1  0.41674307  0.84593542  0.90601208  1
  H+  H14  1  0.64194747  0.28431666  0.32826526  1
  H+  H15  1  0.26504795  0.89508976  0.49815099  1
  H+  H16  1  0.67251441  0.02422780  0.18698574  1
  H+  H17  1  0.60518996  0.95725471  0.00124270  1
  H+  H18  1  0.46009959  0.85261241  0.16938820  1
  H+  H19  1  0.64113703  0.88430838  0.15567911  1
  H+  H20  1  0.13483070  0.02345660  0.16000561  1
  H+  H21  1  0.39151385  0.61382018  0.99460478  1
  H+  H22  1  0.97789349  0.36096151  0.66063112  1
  H+  H23  1  0.35597702  0.71258613  -0.00143332  1
  H+  H24  1  0.88904799  0.78020463  0.32388950  1
  H+  H25  1  0.13769813  0.11097289  0.32555105  1
  H+  H26  1  0.89250763  0.77774319  0.84260557  1
  H+  H27  1  0.61832920  0.64852329  0.82742198  1
  H+  H28  1  0.22493983  0.61983058  0.50908566  1
  H+  H29  1  0.40134122  0.03718667  0.82394053  1
  H+  H30  1  0.35486700  0.47000718  0.33879584  1
  H+  H31  1  0.34485226  0.17426619  0.22126543  1
  H+  H32  1  0.51982088  0.40171527  0.00404742  1
  H+  H33  1  0.26525948  0.62733502  0.66517427  1
  H+  H34  1  0.15339575  0.57243391  0.27165327  1
  H+  H35  1  0.72206267  0.10355014  0.84897132  1
  H+  H36  1  0.39268608  0.28986376  0.16600373  1
  H+  H37  1  0.11619171  0.73345493  0.82471509  1
  H+  H38  1  0.21944774  0.34846129  0.50419536  1
  H+  H39  1  0.54287314  0.65515235  0.49240763  1
  H+  H40  1  0.29096836  0.77177996  0.29011641  1
  H+  H41  1  0.48923125  0.13075852  0.32211809  1
  H+  H42  1  0.46792623  0.85531706  0.98925531  1
  H+  H43  1  0.63799495  0.27593684  0.67459059  1
  H+  H44  1  0.39096282  0.61140668  0.49904888  1
  H+  H45  1  0.60414475  0.86790536  0.00071296  1
  H+  H46  1  0.52386403  0.63759603  0.34218885  1
  H+  H47  1  0.60585155  0.39661897  0.00787541  1
  H+  H48  1  0.52749740  0.63747535  0.00120573  1
  H+  H49  1  0.13744474  0.02289151  0.32836133  1
  H+  H50  1  0.83802518  0.43389611  0.74098274  1
  H+  H51  1  0.37177826  0.25513982  0.68439451  1
  H+  H52  1  0.55373514  0.67553482  0.15441164  1
  H+  H53  1  0.11275896  0.10018688  0.84585949  1
  H+  H54  1  0.86546821  -0.02169190  1.00527188  1
  H+  H55  1  0.67579893  0.79455987  0.48796661  1
  H+  H56  1  0.73123311  0.12385206  0.33410633  1
  H+  H57  1  0.60291752  0.73133094  0.66994470  1
  H+  H58  1  0.85717564  0.43052363  0.89929120  1
  H+  H59  1  0.41922846  0.57901298  0.55704702  1
  H+  H60  1  0.27776128  0.13801723  0.30822788  1
  H+  H61  1  0.61879370  0.25352880  0.51312379  1
  H+  H62  1  0.77533594  0.88885017  0.00598845  1
  H+  H63  1  0.92120470  0.58740779  0.27781127  1
  H+  H64  1  0.38628931  0.87682311  0.83793173  1
  H+  H65  1  0.88095216  0.01795676  0.33669308  1
  H+  H66  1  0.88092627  0.65636538  0.49139634  1
  H+  H67  1  0.21399722  0.36034578  -0.01696326  1
  H+  H68  1  0.89425746  0.86258071  0.64727127  1
  H+  H69  1  0.08299294  0.20961725  0.67594383  1
  H+  H70  1  0.63763977  0.77350019  0.84159692  1
  H+  H71  1  0.25277610  0.37243715  0.15822930  1
  H+  H72  1  0.69387434  0.33092172  1.00077171  1
  H+  H73  1  0.55324372  0.96681183  0.13109213  1
  H+  H74  1  1.04180101  0.66019385  1.01088141  1
  H+  H75  1  0.35723785  0.47755193  0.00053864  1
  H+  H76  1  0.78025599  0.64146690  0.00126326  1
  H+  H77  1  0.64713342  0.62051393  -0.01226801  1
  H+  H78  1  0.66057944  0.64615234  0.15963594  1
  H+  H79  1  0.86696239  0.89852812  0.15947042  1
  H+  H80  1  0.62843947  0.22464900  0.83254804  1
  H+  H81  1  0.13429346  0.61010024  0.33220017  1
  H+  H82  1  0.87428720  0.09781881  0.84364980  1
  H+  H83  1  0.84256682  0.16455032  0.10418219  1
  H+  H84  1  0.26169755  0.61821535  0.34146233  1
  H+  H85  1  0.60353480  0.08457665  0.15976023  1
  H+  H86  1  0.89554996  0.52724366  0.33542516  1
  H+  H87  1  0.01919622  0.12944348  0.34213848  1
  H+  H88  1  0.38008026  0.35571022  0.34138750  1
  H+  H89  1  0.40873129  0.13143097  0.82738225  1
  H+  H90  1  0.61765404  0.97749307  0.33343985  1
  H+  H91  1  0.50134861  0.87311453  0.47939168  1
  H+  H92  1  0.61926938  0.98019666  0.67756445  1
  H+  H93  1  0.73715085  0.11074604  0.50612132  1
  H+  H94  1  0.77860462  0.88526144  0.83926437  1
  H+  H95  1  0.12844537  0.51875805  0.66531993  1
  H+  H96  1  1.02216312  0.37849152  0.49120317  1
  H+  H97  1  0.19777072  0.27701677  0.64660386  1
  H+  H98  1  0.11387549  0.10038533  0.00365652  1
  H+  H99  1  0.29126345  0.14103627  0.16170589  1
  H+  H100  1  0.95948405  0.09168562  0.49800003  1
  H+  H101  1  0.87032224  0.88919015  0.84032277  1
  H+  H102  1  0.87006999  0.38873335  0.33516871  1
  H+  H103  1  0.29969276  0.16305738  0.54793167  1
  H+  H104  1  0.63932525  0.86364553  0.84393420  1
  H+  H105  1  0.59767141  0.26539497  0.99044133  1
  H+  H106  1  0.85833395  0.22570820  0.82467108  1
  H+  H107  1  0.12286752  0.51304716  0.17497345  1
  H+  H108  1  0.39348012  0.13335703  0.30553617  1
  H+  H109  1  0.13247168  0.78569431  0.17592434  1
  H+  H110  1  0.73016525  0.11465329  0.66175534  1
  H+  H111  1  0.09196707  0.11482816  0.49213446  1
  H+  H112  1  0.76411893  0.41060721  0.69314092  1
  H+  H113  1  0.09324908  0.36548253  1.00594170  1
  H+  H114  1  0.40809026  0.29566929  0.51969010  1
  H+  H115  1  0.32729377  0.65762086  0.72492633  1
  H+  H116  1  0.82623234  0.53944259  0.20430967  1
  H+  H117  1  0.26350416  0.88691735  0.16260057  1
  H+  H118  1  0.37716844  0.60252900  0.65082003  1
  H+  H119  1  0.38906526  1.02038949  -0.00485671  1
  H+  H120  1  0.96260368  0.09615143  0.65384260  1
  H+  H121  1  1.02773464  0.63242763  0.66800755  1
  H+  H122  1  0.98009953  0.36168591  0.32899507  1
  H+  H123  1  0.61534055  0.51128603  0.15226600  1
  H+  H124  1  0.77697291  0.86767358  0.65696638  1
  H+  H125  1  0.93718108  0.80284162  0.49144197  1
  H+  H126  1  0.92894159  0.67675761  0.98537608  1
  H+  H127  1  0.83319047  0.16884854  0.43313020  1
  H+  H128  1  0.10744605  0.22895766  0.00697222  1
  H+  H129  1  0.98416454  0.62786978  0.83486808  1
  H+  H130  1  0.36997072  0.76280189  0.17593588  1
  H+  H131  1  0.12948161  0.35867585  0.17507722  1
  H+  H132  1  0.39572828  0.24445498  0.84616240  1
  H+  H133  1  0.63960589  0.09452918  1.00042556  1
  H+  H134  1  0.10786288  0.88762137  0.34585292  1
  H+  H135  1  0.64103262  0.77174747  0.99086236  1
  H+  H136  1  0.35836766  0.72161031  0.48925999  1
  H+  H137  1  0.61580842  0.39598715  0.33725134  1
  H+  H138  1  0.47316959  0.11384417  0.67252904  1
  H+  H139  1  0.34173745  0.62610118  0.17475805  1
  H+  H140  1  0.11061820  -0.02438125  0.67255633  1
  H+  H141  1  0.87699356  0.24512859  -0.00388594  1
  H+  H142  1  0.58034770  0.68087624  0.77155066  1
  H+  H143  1  0.34935175  0.87832604  0.16127209  1
  H+  H144  1  0.10633864  0.36918895  0.82959670  1
  H+  H145  1  0.43260402  0.37489691  0.84385429  1
  H+  H146  1  0.38400653  0.02445953  0.66808695  1
  H+  H147  1  0.11022766  0.72854894  0.66948308  1
  H+  H148  1  0.08815940  0.78320186  0.97050384  1
  H+  H149  1  0.86568342  0.00552214  0.50208256  1
  H+  H150  1  0.47990816  0.10238368  -0.00584366  1
  H+  H151  1  0.88696573  0.35185596  0.85058311  1
  H+  H152  1  0.88988850  0.51730567  0.66084942  1
  H+  H153  1  0.61190169  -0.02356591  0.83366023  1
  H+  H154  1  0.87808542  0.40423566  0.49260001  1
  H+  H155  1  0.82060515  0.31205800  0.01534656  1
  H+  H156  1  0.47227702  0.79188552  0.61877527  1
  H+  H157  1  0.77714650  0.38387885  0.85447763  1
  H+  H158  1  0.38617619  0.74970773  0.65453486  1
  H+  H159  1  0.98137306  0.87705352  0.16637788  1
  H+  H160  1  0.64532429  0.35693110  0.83776466  1
  H+  H161  1  0.12223028  0.65173047  0.49646700  1
  H+  H162  1  0.88905144  0.02871926  0.17634204  1
  H+  H163  1  0.34724197  0.38198722  0.15251613  1
  H+  H164  1  0.89705628  0.53609577  0.49637208  1
  H+  H165  1  0.90191275  0.53009830  0.17577179  1
  H+  H166  1  0.32734499  0.39756349  0.84165581  1
  H+  H167  1  0.67258041  0.59658600  0.89091951  1
  H+  H168  1  0.26405302  0.88013332  1.00703690  1
  H+  H169  1  0.64002007  0.53482807  0.33189645  1
  H+  H170  1  0.53443956  0.88827136  0.67907995  1
  H+  H171  1  0.87982618  0.74970355  0.15596460  1
  H+  H172  1  0.42414277  0.59080492  0.93395545  1
  H+  H173  1  1.02165720  0.65135484  0.16968932  1
  H+  H174  1  0.64308462  0.53061971  -0.01088488  1
  H+  H175  1  0.27424569  0.88638439  0.82686520  1
  H+  H176  1  0.13567840  0.61098497  0.82918054  1
  H+  H177  1  0.61571484  0.64125206  0.34349282  1
  H+  H178  1  0.02479723  0.88116692  0.82740584  1
  H+  H179  1  0.93650797  0.42366628  0.15488239  1
  H+  H180  1  0.36077311  0.38999198  0.48573737  1
  H+  H181  1  0.87066726  0.64513040  0.34403813  1
  H+  H182  1  0.03197680  0.64325466  0.34468552  1
  H+  H183  1  0.34893646  0.88539449  0.34785382  1
  H+  H184  1  0.61403367  0.14067850  0.67816242  1
  H+  H185  1  0.78227530  0.39260856  0.33777313  1
  H+  H186  1  0.02116010  0.88662677  0.03017029  1
  H+  H187  1  0.27030287  0.63806587  0.81103028  1
  H+  H188  1  0.78042677  0.64707927  0.67442846  1
  H+  H189  1  0.54399717  0.40579300  0.48528093  1
  H+  H190  1  0.87904824  0.65961834  0.15744963  1
  H+  H191  1  0.06927236  0.91094012  0.40447978  1
  H+  H192  1  0.37871196  0.85833256  -0.00740221  1
  H+  H193  1  0.47230181  0.36040476  0.34109765  1
  H+  H194  1  0.61520679  0.14304606  0.33793244  1
  H+  H195  1  0.40052261  0.54525790  0.84091521  1
  H+  H196  1  0.10590738  0.36922526  0.49021850  1
  H+  H197  1  0.74218726  0.63442102  0.15909162  1
  H+  H198  1  0.57915793  0.16457264  0.39750589  1
  H+  H199  1  0.77086502  0.37788875  0.15839293  1
  H+  H200  1  0.88056408  0.01146328  0.84808901  1
  H+  H201  1  0.75015783  0.11972825  0.17768386  1
  H+  H202  1  0.61241522  0.39180568  0.67913042  1
  H+  H203  1  0.77950574  0.34214225  0.16612357  1
  H+  H204  1  0.18858575  0.07682010  0.48776267  1
  H+  H205  1  0.12190723  0.10678763  0.65821851  1
  H+  H206  1  0.65073715  0.86935826  0.64524420  1
  H+  H207  1  0.89026468  0.77986699  -0.00293744  1
  H+  H208  1  0.15517449  0.32512698  0.23670196  1
  H+  H209  1  0.37911570  0.01072766  0.17461435  1
  H+  H210  1  0.64385075  0.53620541  0.65933385  1
  H+  H211  1  0.27487249  0.62149141  1.01235502  1
  H+  H212  1  0.84114015  0.92865688  0.09841715  1
  H+  H213  1  0.38396732  0.23791967  0.01097107  1
  H+  H214  1  0.13030362  0.25665857  0.50607502  1
  H+  H215  1  0.86662986  0.65014166  0.82329835  1
  H+  H216  1  0.52127702  0.12138448  0.49724876  1
  H+  H217  1  1.00833258  0.12849378  0.82455089  1
  H+  H218  1  0.36687950  0.23362857  0.31658605  1
  H+  H219  1  0.90467412  0.48630102  -0.00404234  1
  H+  H220  1  0.11072283  0.13411574  0.15887522  1
  H+  H221  1  0.13340505  0.59291426  0.01652954  1
  H+  H222  1  0.86398408  0.13656518  0.34217394  1
  H+  H223  1  0.73405508  0.88994626  0.16079901  1
  H+  H224  1  0.25511096  0.62990084  0.17678907  1
  H+  H225  1  0.53405105  0.13705417  0.82182842  1
  H+  H226  1  0.65605447  0.63206518  0.50058562  1
  H+  H227  1  0.85958186  0.95871076  0.66020857  1
  H+  H228  1  0.91271139  0.28403866  0.16917591  1
  H+  H229  1  0.52255507  0.38735355  0.68322809  1
  H+  H230  1  0.36341209  0.64836508  0.81552887  1
  H+  H231  1  0.38272069  0.02626946  0.51402960  1
  H+  H232  1  0.61559381  0.40310170  0.18317533  1
  H+  H233  1  0.13573649  0.77871417  0.32707109  1
  H+  H234  1  0.64550974  0.77993376  0.33231586  1
  H+  H235  1  0.77952249  0.18333737  0.78026467  1
  H+  H236  1  0.37063905  0.86175455  0.50402287  1
  H+  H237  1  0.07960515  0.67035476  0.11087045  1
  H+  H238  1  0.34578673  0.70816812  0.33733050  1
  H+  H239  1  0.09446605  0.22157898  0.82486271  1
  H+  H240  1  0.13372084  0.77864317  0.50682766  1
  H+  H241  1  0.38249576  0.15446386  0.53782974  1
  H+  H242  1  0.36433980  0.38054476  0.67964854  1
  H+  H243  1  0.16622645  0.45638106  0.12517687  1
  H+  H244  1  0.11413873  0.38623713  0.68010634  1
  H+  H245  1  0.39682557  0.10882185  0.17553999  1
  H+  H246  1  0.77051214  0.11432689  1.01198750  1
  H+  H247  1  0.66473540  0.20842888  0.03887279  1
  H+  H248  1  0.58301862  0.96210200  0.46835947  1
  H+  H249  1  0.95955166  0.33990595  0.99948489  1
  H+  H250  1  0.21761554  0.35547164  0.32840322  1
  H+  H251  1  0.34910286  0.88490016  0.66542047  1
  H+  H252  1  0.51167187  0.64705837  0.67428446  1
  H+  H253  1  0.53621528  0.37039259  0.84005805  1
  H+  H254  1  0.37995142  0.60303603  0.33100825  1
  H+  H255  1  0.66783433  0.33279125  0.61491496  1
  H+  H256  1  0.86381368  0.12112256  0.01008152  1
  H+  H257  1  0.26718325  0.89457441  0.34728325  1
  H+  H258  1  0.28279346  0.39278834  0.68037013  1
  H+  H259  1  0.48490894  0.63513075  0.84230552  1
  H+  H260  1  0.12826890  0.35548232  0.33015184  1
  H+  H261  1  0.35108844  0.49534529  0.17438187  1
  H+  H262  1  0.37878563  0.14879439  1.00892212  1
  H+  H263  1  0.73018882  0.63197588  0.83209862  1
  H+  H264  1  0.86130799  0.12301866  0.65882732  1
  H+  H265  1  0.62533224  0.21272094  0.18668878  1
  H+  H266  1  0.61738540  0.22263249  0.15481423  1
  H+  H267  1  0.10800741  0.46930756  0.34328791  1
  H+  H268  1  0.86140796  0.88788951  0.35000025  1
  H+  H269  1  0.11843985  0.60200943  0.17995302  1
  H+  H270  1  0.50710256  0.06965940  0.15417869  1
  H+  H271  1  0.95501486  0.50905331  0.61782920  1
  H+  H272  1  0.26052952  0.12626187  0.68373241  1
  H+  H273  1  0.38995719  0.36955037  0.98565584  1
  H+  H274  1  0.10477289  0.98093377  1.02530235  1
  H+  H275  1  0.13291551  0.61082503  0.66526959  1
  H+  H276  1  0.26068573  0.88513446  0.66891822  1
  H+  H277  1  0.61547599  0.31569275  0.18194021  1
  H+  H278  1  0.62539198  0.39539214  0.49069279  1
  H+  H279  1  0.14082025  0.86930533  0.83424505  1
  H+  H280  1  0.10756663  0.22219740  0.16525907  1
  H+  H281  1  0.79788544  0.66672193  0.49313594  1
  H+  H282  1  0.91133037  0.30922581  0.90367247  1
  H+  H283  1  0.89179396  0.27226824  0.65373291  1
  H+  H284  1  0.38952601  0.52067052  0.65528475  1
  H+  H285  1  0.63620989  0.11032434  0.84684383  1
  H+  H286  1  0.48367765  0.87820627  0.84206723  1
  H+  H287  1  0.06144790  0.15310790  0.73665657  1
  H+  H288  1  0.59368634  0.67685805  0.05771413  1
  H+  H289  1  0.31764235  0.41387506  0.05694558  1
  H+  H290  1  0.59312182  0.67841550  0.42972243  1
  H+  H291  1  0.33419581  0.17564263  0.79578579  1
  H+  H292  1  0.43032342  0.08631514  0.25669998  1
  H+  H293  1  0.44945151  0.38661705  0.55136110  1
  H+  H294  1  0.10731034  0.21999145  0.34194546  1
  H+  H295  1  0.07834345  0.40528983  0.40160894  1
  H+  H296  1  0.84695829  0.68422142  0.40053322  1
  H+  H297  1  0.63710845  0.76559931  0.14650451  1
  H+  H298  1  0.93869142  0.47658811  0.09547695  1
  H+  H299  1  0.92878211  0.33551113  0.26631688  1
  H+  H300  1  0.88691232  0.27820884  0.50627309  1
  H+  H301  1  0.31978210  0.41148794  0.39789875  1
  H+  H302  1  0.80256431  0.89327602  0.43943154  1
  H+  H303  1  0.13177727  0.05956215  0.94525769  1
  H+  H304  1  0.34945916  0.12678937  0.68827128  1
  H+  H305  1  0.56291622  0.27989970  0.55043541  1
  H+  H306  1  0.91192378  0.07594596  0.27541859  1
  H+  H307  1  0.68179513  0.84555480  0.58334049  1
  H+  H308  1  0.66608769  0.06729652  0.93865680  1
  H+  H309  1  0.66554849  0.32377277  0.90089631  1
  H+  H310  1  0.38143011  0.81506700  0.26060585  1
  H+  H311  1  0.16100887  0.84249665  0.26934197  1
  H+  H312  1  0.14660996  0.32112365  0.92582231  1
  H+  H313  1  0.17027819  0.32026431  0.59634707  1
  H+  H314  1  0.66730949  0.08625678  0.60565786  1
  H+  H315  1  0.16147634  0.07691401  0.22238957  1
  H+  H316  1  0.58584881  0.12729780  0.07139877  1
  H+  H317  1  0.64860745  0.86945825  0.32433698  1
  H+  H318  1  0.40430786  0.56873992  0.27197955  1
  H+  H319  1  0.08328966  0.67506807  0.76435418  1
  H+  H320  1  0.15987754  0.83596036  0.59928650  1
  H+  H321  1  0.07240868  0.15395701  0.43290980  1
  H+  H322  1  0.42143820  0.07983196  0.57632539  1
  H+  H323  1  0.35681967  0.42821436  0.77360680  1
  H+  H324  1  0.89241954  0.86974474  0.99731563  1
  H+  H325  1  0.67107564  0.83467834  0.93331490  1
  H+  H326  1  0.44248587  0.57624137  0.17682023  1
  H+  H327  1  0.32055862  0.90652022  0.06741324  1
  H+  H328  1  0.86908701  0.22891305  0.33894217  1
  H+  H329  1  0.96127978  0.64921329  0.92670037  1
  H+  H330  1  0.92607114  0.58954962  0.55734713  1
  H+  H331  1  0.87200613  0.73098634  0.67016149  1
  H+  H332  1  0.39680389  0.28701868  0.61945303  1
  H+  H333  1  0.03105355  0.64931484  0.49066267  1
  H+  H334  1  0.58464842  0.91795409  0.77316711  1
  H+  H335  1  0.92754207  0.83580923  0.90425378  1
  H+  H336  1  0.35694351  0.47604720  0.48974938  1
  H+  H337  1  0.56192208  0.90159404  0.08849614  1
  H+  H338  1  0.08079162  0.91191234  0.76545918  1
  H+  H339  1  0.17051854  0.84539855  0.89590341  1
  H+  H340  1  0.12993428  0.87222675  1.00252297  1
  H+  H341  1  0.32566814  0.92336109  0.43890931  1
  H+  H342  1  0.58018878  0.44160026  0.09748661  1
  H+  H343  1  0.40534864  0.82761551  0.55855128  1
  H+  H344  1  0.97572531  0.86976180  0.32641181  1
  H+  H345  1  0.11918251  1.01539323  0.84481672  1
  H+  H346  1  0.59551499  0.40958901  0.77799910  1
  H+  H347  1  0.67214648  0.01623287  0.52798814  1
  H+  H348  1  0.09551392  0.67826959  0.40168728  1
  H+  H349  1  0.94267691  0.84538516  0.59114495  1
  H+  H350  1  0.31450200  0.12732083  0.42503507  1
  H+  H351  1  0.66144653  0.54619856  0.49949386  1
  H+  H352  1  0.57263759  0.90360957  0.38151321  1
  H+  H353  1  0.92329901  0.84668732  0.22858431  1
  H+  H354  1  0.90686273  0.06861390  0.59115861  1
  H+  H355  1  0.08169795  0.41028444  0.74075774  1
  H+  H356  1  0.67895806  0.59478106  0.60038244  1
  H+  H357  1  0.78515711  0.33039828  0.07737648  1
  H+  H358  1  0.15166192  0.07592807  0.59867041  1
  H+  H359  1  0.67791463  0.09507169  0.27305023  1
  H+  H360  1  0.59308573  0.42934910  0.39609598  1
  H+  H361  1  0.86048190  0.13343537  0.49053020  1
  H+  H362  1  0.66368334  0.35185136  0.27344271  1
  H+  H363  1  0.10187921  -0.01038530  0.50494782  1
  H+  H364  1  0.84431039  0.15852184  0.72075152  1
  H+  H365  1  0.59015445  0.16887832  0.74021757  1
  H+  H366  1  0.12694411  0.50223660  1.00909352  1
  H+  H367  1  0.07768849  0.17263423  0.06966312  1
  H+  H368  1  0.84052041  0.68208659  0.76263450  1
  H+  H369  1  0.30116372  0.16061307  0.42891379  1
  H+  H370  1  0.16462643  0.59217719  0.56788408  1
  H+  H371  1  0.84126776  0.67685059  0.06146500  1
  H+  H372  1  0.07029994  0.39595696  0.06947827  1
  H+  H373  1  0.13282189  0.87525598  0.16782696  1
  H+  H374  1  0.92057935  0.33722280  0.56557181  1
  H+  H375  1  0.77004439  0.88474153  0.34716526  1
  H+  H376  1  0.91837917  0.08288679  0.93659580  1
  H+  H377  1  0.32748069  0.65679095  0.43314929  1
  H+  H378  1  0.11854046  0.85943349  0.51041497  1
  H+  H379  1  0.32995498  0.90930587  0.76557346  1
  H+  H380  1  0.13860561  0.52378978  0.83011486  1
  H+  H381  1  0.02297472  0.38080918  0.82752557  1
  H+  H382  1  0.84967032  0.43057411  0.43201080  1
  H+  H383  1  0.89593875  0.54137895  0.84920370  1
  O2-  O384  1  0.07628721  0.16245095  0.14803002  1
  O2-  O385  1  0.06690566  0.15063677  0.47864939  1
  O2-  O386  1  0.06666479  0.16041655  0.80594312  1
  O2-  O387  1  0.10769158  0.42514978  0.14075079  1
  O2-  O388  1  0.07955672  0.40058436  0.47195832  1
  O2-  O389  1  0.08223270  0.40806448  0.81168846  1
  O2-  O390  1  0.08109925  0.67581339  0.15655236  1
  O2-  O391  1  0.09272172  0.68220881  0.47754572  1
  O2-  O392  1  0.08227209  0.67314413  0.80985530  1
  O2-  O393  1  0.08005227  0.92083514  0.13636115  1
  O2-  O394  1  0.05778649  0.90046396  0.48439904  1
  O2-  O395  1  0.08493949  0.91089616  0.81066356  1
  O2-  O396  1  0.35123639  0.17004849  0.17649421  1
  O2-  O397  1  0.36224253  0.19620461  0.54788258  1
  O2-  O398  1  0.35996868  0.17984526  0.83562262  1
  O2-  O399  1  0.31116079  0.40900916  0.14000011  1
  O2-  O400  1  0.32298784  0.41392555  0.47666240  1
  O2-  O401  1  0.37386782  0.44064506  0.81712120  1
  O2-  O402  1  0.31718152  0.66324821  0.16639396  1
  O2-  O403  1  0.33212387  0.65979316  0.47853198  1
  O2-  O404  1  0.32975259  0.66930505  0.79303216  1
  O2-  O405  1  0.32384755  0.91346839  0.14623102  1
  O2-  O406  1  0.32665054  0.92461835  0.48521591  1
  O2-  O407  1  0.33473201  0.91209477  0.81067099  1
  O2-  O408  1  0.55273097  0.06374985  0.13243117  1
  O2-  O409  1  0.58047455  0.15151442  0.47927502  1
  O2-  O410  1  0.60043478  0.16414998  0.81665403  1
  O2-  O411  1  0.57642532  0.44798806  0.14249067  1
  O2-  O412  1  0.60549346  0.43331233  0.47372391  1
  O2-  O413  1  0.59801469  0.39466949  0.82063610  1
  O2-  O414  1  0.60866204  0.70132201  0.13374177  1
  O2-  O415  1  0.60188011  0.68538465  0.47564260  1
  O2-  O416  1  0.58559594  0.68001496  0.81683883  1
  O2-  O417  1  0.56038018  0.91536133  0.13283022  1
  O2-  O418  1  0.56087886  0.90093958  0.46280476  1
  O2-  O419  1  0.57843036  0.91559915  0.81840563  1
  O2-  O420  1  0.84725131  0.17388134  0.14928302  1
  O2-  O421  1  0.83128105  0.16622063  0.47885286  1
  O2-  O422  1  0.81822871  0.16969073  0.80235328  1
  O2-  O423  1  0.93489038  0.47545277  0.13952971  1
  O2-  O424  1  0.85211686  0.43784889  0.47674573  1
  O2-  O425  1  0.84411084  0.41934730  0.85613266  1
  O2-  O426  1  0.85222644  0.68967638  0.13822594  1
  O2-  O427  1  0.85789436  0.69392712  0.47706449  1
  O2-  O428  1  0.83890163  0.68278187  0.80924142  1
  O2-  O429  1  0.83999621  0.93192783  0.14396394  1
  O2-  O430  1  0.79815180  0.88889031  0.48591796  1
  O2-  O431  1  0.84022516  0.92078286  0.82827510  1
  O2-  O432  1  0.16573384  0.08368450  0.17768488  1
  O2-  O433  1  0.14075198  0.05642468  0.51626120  1
  O2-  O434  1  0.13546173  0.06823214  0.86821838  1
  O2-  O435  1  0.15451004  0.32245899  0.19126256  1
  O2-  O436  1  0.16122211  0.31619154  0.52314050  1
  O2-  O437  1  0.13580311  0.31208194  0.85418815  1
  O2-  O438  1  0.14654582  0.57093863  0.19629017  1
  O2-  O439  1  0.16655684  0.60312479  0.52364716  1
  O2-  O440  1  0.17189983  0.58586028  0.83943339  1
  O2-  O441  1  0.16319948  0.84702896  0.18866791  1
  O2-  O442  1  0.15876719  0.83878805  0.52382293  1
  O2-  O443  1  0.17358808  0.84124338  0.85116202  1
  O2-  O444  1  0.42142969  0.07122287  0.18839796  1
  O2-  O445  1  0.42120710  0.08571401  0.53089534  1
  O2-  O446  1  0.43988533  0.09828314  0.81584667  1
  O2-  O447  1  0.40880410  0.34979183  0.17506217  1
  O2-  O448  1  0.43712628  0.35914448  0.51156294  1
  O2-  O449  1  0.45056396  0.33863560  0.86477390  1
  O2-  O450  1  0.38572908  0.55556396  0.19392324  1
  O2-  O451  1  0.42150301  0.58006080  0.51156649  1
  O2-  O452  1  0.42314113  0.60469561  0.85601576  1
  O2-  O453  1  0.40110373  0.82669043  0.18647028  1
  O2-  O454  1  0.40067832  0.82881772  0.51380237  1
  O2-  O455  1  0.42217946  0.85231116  0.85829865  1
  O2-  O456  1  0.69025512  0.08419420  0.19551866  1
  O2-  O457  1  0.67737152  0.07284494  0.52461501  1
  O2-  O458  1  0.66199103  0.07447405  0.86352864  1
  O2-  O459  1  0.64029913  0.36964848  0.20409138  1
  O2-  O460  1  0.62128516  0.30344302  0.53510484  1
  O2-  O461  1  0.68002603  0.32733051  0.85706218  1
  O2-  O462  1  0.68131825  0.60677691  0.17186342  1
  O2-  O463  1  0.68965607  0.60536045  0.51583988  1
  O2-  O464  1  0.66978008  0.60395909  0.84658376  1
  O2-  O465  1  0.67147437  0.85499097  0.16999746  1
  O2-  O466  1  0.70688727  0.85708593  0.49987472  1
  O2-  O467  1  0.66997574  0.83454375  0.85907078  1
  O2-  O468  1  0.91857844  0.08705423  0.19608307  1
  O2-  O469  1  0.89962386  0.06697326  0.51415281  1
  O2-  O470  1  0.90980099  0.07620631  0.86066917  1
  O2-  O471  1  0.94674610  0.34367245  0.18551460  1
  O2-  O472  1  0.91978471  0.33875092  0.51980606  1
  O2-  O473  1  0.91276542  0.31473938  0.85820783  1
  O2-  O474  1  0.88837424  0.57111255  0.19848373  1
  O2-  O475  1  0.92599612  0.59748292  0.51280336  1
  O2-  O476  1  0.92635398  0.60401830  0.85545372  1
  O2-  O477  1  0.92045389  0.84654419  0.18318312  1
  O2-  O478  1  0.96902870  0.86241654  0.50847535  1
  O2-  O479  1  0.92729186  0.83806511  0.85899699  1
  O2-  O480  1  0.16738724  0.08097365  0.30917851  1
  O2-  O481  1  0.15881010  0.08359708  0.64337144  1
  O2-  O482  1  0.13119927  0.05843338  0.99079696  1
  O2-  O483  1  0.15614844  0.32260318  0.31476023  1
  O2-  O484  1  0.17726316  0.31773304  0.64220533  1
  O2-  O485  1  0.15181638  0.32607057  0.97256789  1
  O2-  O486  1  0.15952217  0.57484806  0.31723496  1
  O2-  O487  1  0.15920158  0.57793109  0.64800763  1
  O2-  O488  1  0.16610210  0.56484986  1.00470219  1
  O2-  O489  1  0.16227086  0.84034487  0.31467155  1
  O2-  O490  1  0.16255520  0.83496160  0.64509162  1
  O2-  O491  1  0.14530583  0.83413005  0.97845093  1
  O2-  O492  1  0.42956547  0.10103714  0.30228493  1
  O2-  O493  1  0.41457468  0.08528314  0.65402261  1
  O2-  O494  1  0.42213465  0.07847164  0.97767207  1
  O2-  O495  1  0.40906854  0.32099033  0.34327676  1
  O2-  O496  1  0.40260088  0.31090714  0.66029979  1
  O2-  O497  1  0.42971807  0.34812788  0.97680580  1
  O2-  O498  1  0.41177902  0.57367651  0.31691916  1
  O2-  O499  1  0.41209917  0.57714662  0.63508668  1
  O2-  O500  1  0.42422834  0.58464678  0.97920420  1
  O2-  O501  1  0.35139049  0.79827856  0.30131444  1
  O2-  O502  1  0.43245473  0.80776634  0.63661980  1
  O2-  O503  1  0.40870655  0.83118222  0.97154436  1
  O2-  O504  1  0.67114670  0.09678977  0.31782344  1
  O2-  O505  1  0.66751210  0.08659867  0.65077466  1
  O2-  O506  1  0.66705273  0.06182282  0.98403803  1
  O2-  O507  1  0.67462723  0.34606311  0.31757748  1
  O2-  O508  1  0.66781809  0.33685723  0.65957295  1
  O2-  O509  1  0.64185210  0.32391871  0.97984194  1
  O2-  O510  1  0.66811406  0.59732450  0.32396216  1
  O2-  O511  1  0.67756702  0.59612595  0.64520784  1
  O2-  O512  1  0.67877146  0.59115853  0.97387772  1
  O2-  O513  1  0.68297559  0.84009537  0.31886645  1
  O2-  O514  1  0.67194752  0.83314643  0.62739979  1
  O2-  O515  1  0.66987278  0.83430691  0.97931151  1
  O2-  O516  1  0.91231032  0.07853384  0.32081445  1
  O2-  O517  1  0.90325448  0.06776938  0.63660910  1
  O2-  O518  1  0.91753367  0.08141195  0.98224064  1
  O2-  O519  1  0.92004715  0.33205749  0.31110785  1
  O2-  O520  1  0.92006208  0.33330876  0.64153357  1
  O2-  O521  1  0.89949297  0.30595796  0.98154127  1
  O2-  O522  1  0.92600239  0.58939922  0.32263853  1
  O2-  O523  1  0.93888158  0.55075070  0.63118749  1
  O2-  O524  1  0.98098325  0.67976510  0.96646622  1
  O2-  O525  1  0.91644611  0.84094784  0.30912768  1
  O2-  O526  1  0.93292237  0.83800682  0.63541062  1
  O2-  O527  1  0.92643175  0.84185382  0.98556475  1
  O2-  O528  1  0.07502771  0.16937394  0.02434176  1
  O2-  O529  1  0.08006532  0.15918091  0.35696687  1
  O2-  O530  1  0.06046725  0.15007095  0.68934957  1
  O2-  O531  1  0.05819519  0.38933833  0.02413386  1
  O2-  O532  1  0.07782837  0.40742125  0.35497947  1
  O2-  O533  1  0.08196565  0.41350710  0.69395012  1
  O2-  O534  1  0.09050270  0.66494559  0.03687515  1
  O2-  O535  1  0.09427198  0.67506919  0.35583038  1
  O2-  O536  1  0.08477863  0.66977901  0.68745773  1
  O2-  O537  1  0.08293816  0.91837018  0.04297975  1
  O2-  O538  1  0.07821057  0.91921013  0.35950793  1
  O2-  O539  1  0.08276959  0.91535439  0.68701399  1
  O2-  O540  1  0.36345578  0.18426537  0.03424766  1
  O2-  O541  1  0.34078456  0.17177491  0.29886146  1
  O2-  O542  1  0.31761855  0.15488948  0.70365530  1
  O2-  O543  1  0.32103768  0.41558794  0.01184837  1
  O2-  O544  1  0.32112380  0.40861013  0.35264936  1
  O2-  O545  1  0.34298973  0.41913619  0.69413309  1
  O2-  O546  1  0.33858589  0.65665380  0.01707268  1
  O2-  O547  1  0.32329116  0.65002229  0.35540832  1
  O2-  O548  1  0.32710264  0.65537599  0.67764355  1
  O2-  O549  1  0.32324184  0.90436280  0.02200714  1
  O2-  O550  1  0.32545350  0.91970386  0.36551734  1
  O2-  O551  1  0.32233998  0.91438406  0.68483220  1
  O2-  O552  1  0.60711248  0.15805470  0.03150883  1
  O2-  O553  1  0.58129889  0.17079208  0.35247654  1
  O2-  O554  1  0.58398836  0.17014815  0.69474061  1
  O2-  O555  1  0.58195399  0.43300973  0.02081408  1
  O2-  O556  1  0.58346898  0.42438533  0.35133255  1
  O2-  O557  1  0.58382764  0.42399367  0.69288772  1
  O2-  O558  1  0.59031584  0.66995119  0.01265539  1
  O2-  O559  1  0.58337723  0.67141438  0.35775498  1
  O2-  O560  1  0.55922940  0.69168144  0.69866278  1
  O2-  O561  1  0.56935294  0.89547632  0.01369787  1
  O2-  O562  1  0.58660886  0.91451857  0.33766859  1
  O2-  O563  1  0.59452504  0.92031069  0.69338798  1
  O2-  O564  1  0.83093286  0.14912204  0.02701068  1
  O2-  O565  1  0.83592634  0.16961818  0.35652882  1
  O2-  O566  1  0.83622800  0.15809976  0.67643729  1
  O2-  O567  1  0.76834403  0.30798578  0.03617924  1
  O2-  O568  1  0.84356924  0.42225924  0.35107363  1
  O2-  O569  1  0.81788564  0.45872516  0.71047087  1
  O2-  O570  1  0.84127690  0.67592168  0.01610304  1
  O2-  O571  1  0.84181995  0.67807755  0.35512645  1
  O2-  O572  1  0.84006813  0.67531546  0.69128986  1
  O2-  O573  1  0.83553452  0.91832216  0.02188506  1
  O2-  O574  1  0.83045198  0.91577409  0.36778460  1
  O2-  O575  1  0.83717126  0.89793245  0.67145306  1
