# generated using pymatgen
data_H2O
_symmetry_space_group_name_H-M   'P 1'
_cell_length_a   17.98310252
_cell_length_b   17.99006877
_cell_length_c   22.00908032
_cell_angle_alpha   90.01172829
_cell_angle_beta   89.99636526
_cell_angle_gamma   120.02938016
_symmetry_Int_Tables_number   1
_chemical_formula_structural   H2O
_chemical_formula_sum   'H384 O192'
_cell_volume   6164.54902186
_cell_formula_units_Z   192
loop_
 _symmetry_equiv_pos_site_id
 _symmetry_equiv_pos_as_xyz
  1  'x, y, z'
loop_
 _atom_type_symbol
 _atom_type_oxidation_number
  H+  1.0
  O2-  -2.0
loop_
 _atom_site_type_symbol
 _atom_site_label
 _atom_site_symmetry_multiplicity
 _atom_site_fract_x
 _atom_site_fract_y
 _atom_site_fract_z
 _atom_site_occupancy
  H+  H0  1  0.87259573  0.14359100  0.15887917  1
  H+  H1  1  0.36409597  0.22793614  0.33938166  1
  H+  H2  1  0.11749749  0.95928228  0.34272593  1
  H+  H3  1  0.98326505  0.61653463  1.01135622  1
  H+  H4  1  0.14850647  0.35913233  0.18263903  1
  H+  H5  1  0.33991159  0.92523296  0.06655204  1
  H+  H6  1  0.33640540  0.91370210  0.43262938  1
  H+  H7  1  0.36989521  0.64032728  0.00375452  1
  H+  H8  1  0.72316005  0.36200040  0.66170721  1
  H+  H9  1  0.66393193  0.56913769  0.59823648  1
  H+  H10  1  0.36335347  0.13218320  0.49317244  1
  H+  H11  1  0.13667519  0.36869363  0.84687955  1
  H+  H12  1  0.75074093  0.71233984  0.24004421  1
  H+  H13  1  0.55809314  0.16698918  0.43324283  1
  H+  H14  1  0.12457440  0.72968774  0.01203732  1
  H+  H15  1  0.98287936  0.61034854  0.65116519  1
  H+  H16  1  0.43743544  0.07542566  0.24410556  1
  H+  H17  1  0.03351043  0.38567354  0.16794666  1
  H+  H18  1  0.63651220  0.50876106  0.65896371  1
  H+  H19  1  0.38481334  0.60800239  0.17367264  1
  H+  H20  1  0.85780357  0.46867778  0.33769479  1
  H+  H21  1  0.61860787  0.60761317  0.33277224  1
  H+  H22  1  0.12255605  0.87682789  0.67245667  1
  H+  H23  1  0.14373561  0.52546906  0.99835472  1
  H+  H24  1  0.38809397  0.35664454  0.16962196  1
  H+  H25  1  -0.01184148  0.36840672  0.32857627  1
  H+  H26  1  0.28149582  0.88756606  0.15558342  1
  H+  H27  1  0.26868740  0.14248609  0.00766845  1
  H+  H28  1  0.87007075  0.26388732  0.84525564  1
  H+  H29  1  0.03141663  0.87894705  0.16205832  1
  H+  H30  1  0.86368582  0.47657191  0.01198852  1
  H+  H31  1  0.02538749  0.64045017  0.33911062  1
  H+  H32  1  0.56694104  0.20107246  0.82850542  1
  H+  H33  1  0.37294314  0.36094470  0.83241735  1
  H+  H34  1  0.07515669  0.17484737  0.67117192  1
  H+  H35  1  0.02774010  0.63210906  0.48484996  1
  H+  H36  1  0.92463964  0.57857792  0.55273360  1
  H+  H37  1  0.51678109  0.63129881  1.01898996  1
  H+  H38  1  0.38742687  0.27122727  0.50449036  1
  H+  H39  1  0.37575350  0.60797999  0.83224160  1
  H+  H40  1  0.63453509  0.78274681  0.17780726  1
  H+  H41  1  0.50944473  0.60231364  0.49297191  1
  H+  H42  1  0.63546681  0.36335598  -0.00012848  1
  H+  H43  1  0.77007248  0.38177351  0.16414095  1
  H+  H44  1  0.14762123  0.86816438  0.83808016  1
  H+  H45  1  0.16840941  0.08436583  0.89959028  1
  H+  H46  1  0.37066626  0.47654113  0.15982231  1
  H+  H47  1  0.09136657  0.23149983  0.50186002  1
  H+  H48  1  0.33343028  0.16281060  0.72915413  1
  H+  H49  1  0.65732152  0.79919516  0.64977087  1
  H+  H50  1  0.59814460  0.38509944  0.33652843  1
  H+  H51  1  0.14447361  0.28061547  -0.00055256  1
  H+  H52  1  0.45448360  0.36072048  0.32772361  1
  H+  H53  1  0.57937228  0.24090475  0.33411140  1
  H+  H54  1  0.74074875  0.13356567  0.17993424  1
  H+  H55  1  0.52514204  0.89376052  0.67272760  1
  H+  H56  1  0.03399177  0.87770272  0.67053939  1
  H+  H57  1  0.05566043  0.01892177  0.22945587  1
  H+  H58  1  0.61082959  0.37934646  0.49082035  1
  H+  H59  1  0.72917115  0.60493626  0.50981067  1
  H+  H60  1  0.37633847  0.13039928  0.18215490  1
  H+  H61  1  0.60668012  0.97824610  0.33461069  1
  H+  H62  1  0.36277411  0.12974107  0.67091958  1
  H+  H63  1  0.36881527  -0.01578854  1.00660204  1
  H+  H64  1  0.89950852  0.02404999  0.98839564  1
  H+  H65  1  0.60542578  0.60484984  0.67388937  1
  H+  H66  1  0.89541489  0.61145395  0.64079122  1
  H+  H67  1  0.11933513  0.89289213  0.00639724  1
  H+  H68  1  0.85523445  0.17798186  0.43315462  1
  H+  H69  1  0.39374754  0.78144536  0.99699188  1
  H+  H70  1  0.39073460  0.86943169  -0.00428569  1
  H+  H71  1  0.86943999  0.97616925  0.33423522  1
  H+  H72  1  0.14031767  0.02772456  0.99749601  1
  H+  H73  1  0.37916267  0.77904326  0.30607043  1
  H+  H74  1  0.38056095  0.01485648  0.50583040  1
  H+  H75  1  0.87593540  0.22898286  0.73688669  1
  H+  H76  1  0.46936826  0.86850951  0.31029197  1
  H+  H77  1  1.11936777  0.97597024  0.82612167  1
  H+  H78  1  0.72659174  0.10492244  0.33607540  1
  H+  H79  1  0.97593944  0.34777487  0.66808389  1
  H+  H80  1  1.02880083  0.62904158  0.16235197  1
  H+  H81  1  0.10909332  0.48786110  0.83975401  1
  H+  H82  1  0.36453762  0.72398071  0.15800990  1
  H+  H83  1  0.23229186  0.85418452  0.65909144  1
  H+  H84  1  0.89187832  0.77370833  0.65074314  1
  H+  H85  1  0.74205950  0.09437777  0.62980211  1
  H+  H86  1  0.62465387  0.66380502  0.17634545  1
  H+  H87  1  0.12616631  0.73677892  0.82615586  1
  H+  H88  1  0.17153509  0.34093561  0.90343653  1
  H+  H89  1  0.22677041  0.10394161  0.65613689  1
  H+  H90  1  0.59998699  0.60677346  0.48814911  1
  H+  H91  1  0.61158077  0.88996580  0.15259883  1
  H+  H92  1  0.72200871  0.35557321  0.50481296  1
  H+  H93  1  0.72042075  0.61209346  -0.00313459  1
  H+  H94  1  0.52680737  0.13431124  0.16594859  1
  H+  H95  1  0.85492215  0.15938427  0.83219291  1
  H+  H96  1  0.17399636  0.83963586  0.93628825  1
  H+  H97  1  0.37411816  0.63158551  0.32658964  1
  H+  H98  1  0.03475685  0.14737200  0.01380040  1
  H+  H99  1  0.89273513  0.87319491  -0.00910736  1
  H+  H100  1  0.28181611  0.64085251  0.00493567  1
  H+  H101  1  0.57970061  0.66826992  0.11361637  1
  H+  H102  1  0.47529701  0.36067658  0.50473903  1
  H+  H103  1  0.62899859  0.12220049  0.83820639  1
  H+  H104  1  0.87467089  0.22736468  0.33964371  1
  H+  H105  1  0.98296630  0.85661116  0.50130469  1
  H+  H106  1  0.34253092  0.41809655  0.06518068  1
  H+  H107  1  0.23743360  0.63401062  0.32187270  1
  H+  H108  1  0.27392775  0.63921876  0.83086996  1
  H+  H109  1  0.50689615  0.38723008  0.81954881  1
  H+  H110  1  0.36029229  0.13833977  0.82862970  1
  H+  H111  1  -0.00519720  0.11622343  0.32223263  1
  H+  H112  1  0.39529178  0.01500603  0.18389099  1
  H+  H113  1  0.14034298  0.11767091  -0.00138036  1
  H+  H114  1  0.13453817  0.80285658  0.33656129  1
  H+  H115  1  0.61224083  0.12821440  0.67539299  1
  H+  H116  1  0.35582508  0.62350943  0.67771131  1
  H+  H117  1  0.04683677  0.10721215  0.76253790  1
  H+  H118  1  0.89108537  0.36823196  1.00292550  1
  H+  H119  1  0.60579078  -0.01145059  0.67085057  1
  H+  H120  1  0.88675874  0.51840815  0.49437442  1
  H+  H121  1  0.64079883  0.51334661  0.50768866  1
  H+  H122  1  0.65115608  0.57808184  0.94265624  1
  H+  H123  1  0.73104968  0.29475345  0.84465471  1
  H+  H124  1  0.14203811  0.76537363  0.50369271  1
  H+  H125  1  0.87265111  0.14522432  1.00040462  1
  H+  H126  1  0.39096653  0.76922610  0.66036400  1
  H+  H127  1  0.90411116  0.81964575  0.23247939  1
  H+  H128  1  0.74729576  0.32686142  0.87005403  1
  H+  H129  1  0.67372815  0.08940286  0.27576128  1
  H+  H130  1  0.60237749  0.62754611  0.02212934  1
  H+  H131  1  0.63586557  0.36444193  0.17152657  1
  H+  H132  1  0.11728062  0.38918477  0.01329920  1
  H+  H133  1  0.71274851  0.86108719  0.33394152  1
  H+  H134  1  0.50805178  0.63676526  0.33899443  1
  H+  H135  1  0.61328714  0.09569917  0.49258902  1
  H+  H136  1  0.87789935  0.60355572  0.32826130  1
  H+  H137  1  0.16783190  0.07403217  0.56006240  1
  H+  H138  1  0.88041759  0.73160044  0.15860965  1
  H+  H139  1  0.92864772  0.33756662  0.26941320  1
  H+  H140  1  0.36120925  0.89042554  0.33706205  1
  H+  H141  1  0.47278174  0.85226981  0.49846521  1
  H+  H142  1  1.00066694  0.11479771  0.82175822  1
  H+  H143  1  -0.02310776  0.36952875  0.85520151  1
  H+  H144  1  0.58223444  0.33835640  0.84620130  1
  H+  H145  1  0.12031622  0.22588790  0.16606198  1
  H+  H146  1  0.58605990  0.61458094  0.83196384  1
  H+  H147  1  0.60258287  0.22071419  0.49312256  1
  H+  H148  1  0.14312240  1.01037197  0.65564177  1
  H+  H149  1  0.36572939  0.72665484  0.83043729  1
  H+  H150  1  0.53298898  0.89949150  -0.00363132  1
  H+  H151  1  0.73336848  0.85929772  0.84049745  1
  H+  H152  1  0.14012644  0.62029118  0.84373530  1
  H+  H153  1  0.86118910  0.38168548  0.33788155  1
  H+  H154  1  0.89635793  0.86179612  0.17216871  1
  H+  H155  1  0.45905927  0.57964439  0.67130105  1
  H+  H156  1  0.61033956  0.98671071  0.83152503  1
  H+  H157  1  0.65110254  0.13050051  0.18089036  1
  H+  H158  1  0.25401116  0.35325345  0.66700519  1
  H+  H159  1  0.89054360  0.60983176  0.17128476  1
  H+  H160  1  0.67142194  0.77954672  0.62507029  1
  H+  H161  1  0.41899245  0.14580910  0.33621050  1
  H+  H162  1  0.83903449  0.74411287  0.31870914  1
  H+  H163  1  0.01618646  0.38649021  0.49838061  1
  H+  H164  1  0.12382396  0.47280953  0.16863503  1
  H+  H165  1  0.23100579  0.85562610  0.50440876  1
  H+  H166  1  0.88530030  0.90147743  0.49150363  1
  H+  H167  1  0.73815246  0.87847347  0.46139788  1
  H+  H168  1  0.26081327  0.38411114  0.82613592  1
  H+  H169  1  0.23727361  0.86787157  0.83830251  1
  H+  H170  1  0.22312098  0.60548860  0.65880097  1
  H+  H171  1  0.61448187  0.51324068  0.84277915  1
  H+  H172  1  0.08595047  0.31699926  0.51321592  1
  H+  H173  1  0.47744306  0.86510174  0.84254887  1
  H+  H174  1  0.47427588  0.85732001  0.15838559  1
  H+  H175  1  0.88079758  0.98837435  0.50125578  1
  H+  H176  1  0.13653616  0.60958175  0.50335346  1
  H+  H177  1  0.35450868  0.38481201  0.48440756  1
  H+  H178  1  0.86617027  0.63384465  0.49062340  1
  H+  H179  1  0.36650003  0.72263360  0.50078420  1
  H+  H180  1  0.33058461  0.20067125  0.06119755  1
  H+  H181  1  0.71483625  0.35707217  0.32443902  1
  H+  H182  1  0.77427049  0.38666201  0.00607224  1
  H+  H183  1  0.23277310  0.87213132  -0.00422706  1
  H+  H184  1  0.38369343  0.51840143  0.99158551  1
  H+  H185  1  0.71158607  0.16462168  0.61745736  1
  H+  H186  1  0.89232693  0.36615591  0.17609785  1
  H+  H187  1  0.90077231  0.50696650  0.82595257  1
  H+  H188  1  0.11555749  0.47337007  0.65906888  1
  H+  H189  1  0.61377673  0.22815204  0.01140569  1
  H+  H190  1  0.37729785  0.27286855  0.83199846  1
  H+  H191  1  0.85604740  0.94621156  0.77999069  1
  H+  H192  1  0.76622301  0.16692641  0.83040726  1
  H+  H193  1  0.23085339  0.60883963  0.17551309  1
  H+  H194  1  0.59207522  -0.03690766  0.48116412  1
  H+  H195  1  0.11163757  0.62976061  0.67445807  1
  H+  H196  1  0.13820269  0.09906848  0.49761532  1
  H+  H197  1  0.89008978  0.27450561  0.50483286  1
  H+  H198  1  0.12395089  0.09543393  0.83967013  1
  H+  H199  1  0.76941086  0.62531498  0.65711715  1
  H+  H200  1  0.86514429  0.72308267  0.49341792  1
  H+  H201  1  0.68466349  0.93101032  0.69662068  1
  H+  H202  1  0.24545945  0.36835016  0.32919438  1
  H+  H203  1  0.11007118  0.46863977  0.50077822  1
  H+  H204  1  0.27528779  0.13279975  0.49061038  1
  H+  H205  1  0.52064998  0.37881140  0.67030492  1
  H+  H206  1  0.10999783  0.00217962  0.18155137  1
  H+  H207  1  0.09048045  0.66727008  0.42747344  1
  H+  H208  1  0.11594862  0.72054032  0.67206825  1
  H+  H209  1  0.89597522  0.27939009  0.17358966  1
  H+  H210  1  0.24271880  0.10615384  0.33121075  1
  H+  H211  1  0.31601352  0.49933133  0.35200752  1
  H+  H212  1  0.89824538  0.85929214  0.83691500  1
  H+  H213  1  0.85378297  0.13363233  0.65792921  1
  H+  H214  1  0.64475108  0.86488890  0.45864850  1
  H+  H215  1  0.77593922  1.01277598  0.67266521  1
  H+  H216  1  0.36820856  0.38819173  1.00297740  1
  H+  H217  1  0.89246912  0.02735515  0.17063803  1
  H+  H218  1  0.49029650  0.10758673  0.82632460  1
  H+  H219  1  0.83764151  0.83364139  0.31425378  1
  H+  H220  1  0.11831267  0.87526277  0.49475613  1
  H+  H221  1  0.52573606  0.38169919  0.16211998  1
  H+  H222  1  0.87714130  0.13995634  0.34018480  1
  H+  H223  1  0.56888311  0.65458062  0.39564189  1
  H+  H224  1  0.97480555  0.07586372  0.94055871  1
  H+  H225  1  0.84575347  0.94814829  0.68350936  1
  H+  H226  1  0.59702969  0.68855124  0.67500558  1
  H+  H227  1  0.55869318  0.90524132  0.42084841  1
  H+  H228  1  0.22496884  0.60818085  0.50972013  1
  H+  H229  1  0.47939881  0.60545822  0.82491184  1
  H+  H230  1  0.28280779  0.38638183  0.15695524  1
  H+  H231  1  0.63503978  0.27394328  0.17374793  1
  H+  H232  1  0.96445771  0.13565939  0.55275115  1
  H+  H233  1  0.41704698  0.83278475  0.90171915  1
  H+  H234  1  0.60014193  0.88566244  0.33267649  1
  H+  H235  1  0.61169304  0.47368814  0.00898220  1
  H+  H236  1  0.38628365  0.60639662  0.52146234  1
  H+  H237  1  0.32722637  0.03337198  0.87254179  1
  H+  H238  1  0.10315848  0.12788538  0.16841112  1
  H+  H239  1  0.37037280  0.88798829  0.82923106  1
  H+  H240  1  0.23286981  0.36929451  0.99759214  1
  H+  H241  1  0.88201504  0.41183968  0.82484644  1
  H+  H242  1  0.87381869  0.23395308  0.00611769  1
  H+  H243  1  0.14925146  0.85810575  0.16784663  1
  H+  H244  1  0.64379793  0.12650357  0.99336664  1
  H+  H245  1  0.38902536  0.85699858  0.66001165  1
  H+  H246  1  0.62013105  -0.00903187  0.99661655  1
  H+  H247  1  0.47393982  0.10410916  0.65755002  1
  H+  H248  1  0.39328679  0.12156014  0.99586178  1
  H+  H249  1  0.73393230  0.12676350  -0.00986371  1
  H+  H250  1  0.52564249  0.13848749  1.00653641  1
  H+  H251  1  0.52329332  0.38501228  1.00220532  1
  H+  H252  1  0.78221229  0.90647866  0.99965154  1
  H+  H253  1  0.47486136  0.61218638  0.18174731  1
  H+  H254  1  0.36299729  0.88118865  0.49312069  1
  H+  H255  1  0.70047990  0.60389564  0.85093224  1
  H+  H256  1  0.35741726  0.47170596  0.49807414  1
  H+  H257  1  0.76129413  0.87209283  0.16126015  1
  H+  H258  1  0.75615790  0.61966091  0.34759803  1
  H+  H259  1  0.87600694  0.14767357  0.49712267  1
  H+  H260  1  0.11780414  0.64859224  0.33514410  1
  H+  H261  1  0.75185096  0.65476230  0.18693211  1
  H+  H262  1  0.85629937  0.38143588  0.49200794  1
  H+  H263  1  0.13189494  0.12781350  0.33560593  1
  H+  H264  1  0.36869613  0.97751393  0.82809410  1
  H+  H265  1  0.36548393  0.97014257  0.67126799  1
  H+  H266  1  0.27297281  0.14103077  0.82383996  1
  H+  H267  1  0.65776384  0.88871575  0.98745699  1
  H+  H268  1  0.09709785  0.10050304  0.66804756  1
  H+  H269  1  0.99891106  0.63350526  0.85165107  1
  H+  H270  1  0.14876512  0.22316513  0.33039530  1
  H+  H271  1  0.15282789  0.42880111  0.35874425  1
  H+  H272  1  0.36516708  0.49566022  0.66734542  1
  H+  H273  1  0.90658264  0.62632103  0.86224036  1
  H+  H274  1  0.38684304  0.26659528  0.65629051  1
  H+  H275  1  0.12070687  0.32672874  0.65430354  1
  H+  H276  1  0.92307381  0.83768611  0.93478286  1
  H+  H277  1  0.85139567  0.70822705  0.83067627  1
  H+  H278  1  0.86387673  0.64268962  0.00894683  1
  H+  H279  1  0.98611662  0.85942678  0.83608621  1
  H+  H280  1  0.91208098  0.87174500  0.65991669  1
  H+  H281  1  0.46806671  0.10605704  0.50682505  1
  H+  H282  1  0.90577021  0.32665861  0.56734830  1
  H+  H283  1  -0.01800502  0.11583352  0.17004346  1
  H+  H284  1  0.63601983  0.26902788  0.66219102  1
  H+  H285  1  0.14885176  0.76933379  0.16661107  1
  H+  H286  1  0.14635582  0.54192528  0.33039995  1
  H+  H287  1  0.11739313  0.62701602  0.16441757  1
  H+  H288  1  0.85579884  0.04267187  0.83262752  1
  H+  H289  1  0.33552558  0.66247548  0.10058851  1
  H+  H290  1  0.59645754  0.47253133  0.34052367  1
  H+  H291  1  0.82912704  0.41003538  0.10456364  1
  H+  H292  1  0.16402928  0.58022227  0.59842000  1
  H+  H293  1  0.64914807  0.32293639  0.94061592  1
  H+  H294  1  0.92929734  0.08798203  0.26651312  1
  H+  H295  1  0.56020860  0.63504976  0.76473851  1
  H+  H296  1  0.69828500  0.92991235  0.55868091  1
  H+  H297  1  0.91216617  0.57818590  0.26908134  1
  H+  H298  1  0.66610065  0.59382662  0.27751636  1
  H+  H299  1  0.66994177  0.84306849  0.23614401  1
  H+  H300  1  0.98346358  0.37050517  1.00399517  1
  H+  H301  1  0.93223051  0.59100538  0.94992340  1
  H+  H302  1  0.13216869  0.28204287  0.59860144  1
  H+  H303  1  0.14568639  0.61554107  0.99821893  1
  H+  H304  1  0.32916051  0.66203514  0.73317602  1
  H+  H305  1  0.84385570  0.17313081  0.09919710  1
  H+  H306  1  0.36770858  0.51037398  0.82730710  1
  H+  H307  1  0.60936571  0.37661301  0.67291201  1
  H+  H308  1  0.41503890  0.83524396  0.21900288  1
  H+  H309  1  0.94711368  1.00907095  0.68653220  1
  H+  H310  1  0.08093620  0.89814732  0.39886867  1
  H+  H311  1  0.08951325  0.91740535  0.10230343  1
  H+  H312  1  0.34215154  0.16977647  0.40058426  1
  H+  H313  1  0.41531992  0.33718959  0.92445150  1
  H+  H314  1  0.11534050  0.41267784  0.71089020  1
  H+  H315  1  0.08789569  0.42498474  0.40686511  1
  H+  H316  1  0.02975216  0.89257766  0.00712345  1
  H+  H317  1  0.39880864  0.58338376  0.27463592  1
  H+  H318  1  0.17292509  0.82370764  0.59888387  1
  H+  H319  1  0.31417514  0.40336325  0.76219856  1
  H+  H320  1  0.57079225  0.14910273  0.73322546  1
  H+  H321  1  0.11924932  0.96488366  0.49210547  1
  H+  H322  1  0.81141286  0.61437357  0.79994601  1
  H+  H323  1  0.84454345  0.92233737  0.39451672  1
  H+  H324  1  0.91695429  0.33820167  0.91645926  1
  H+  H325  1  0.66351632  0.32687132  0.56519713  1
  H+  H326  1  0.32542159  0.12399063  0.12434218  1
  H+  H327  1  0.82545324  0.40684081  0.43046979  1
  H+  H328  1  0.28817496  0.31693484  0.30244577  1
  H+  H329  1  0.34914515  0.36511321  0.66961543  1
  H+  H330  1  0.08981343  0.41734157  0.07451626  1
  H+  H331  1  0.27805231  0.89963961  0.34809814  1
  H+  H332  1  0.57919167  0.41186703  0.43289516  1
  H+  H333  1  0.41265848  0.57578380  0.93169330  1
  H+  H334  1  0.86157269  0.73058734  0.00517794  1
  H+  H335  1  0.41589433  0.32866550  0.59770015  1
  H+  H336  1  0.62582801  0.77255580  0.32840467  1
  H+  H337  1  0.09233057  0.91565863  0.76619722  1
  H+  H338  1  0.16888024  0.58821803  0.90397947  1
  H+  H339  1  0.17431226  0.07002098  0.27569088  1
  H+  H340  1  0.33162871  0.70925303  0.37644205  1
  H+  H341  1  0.40980567  0.56797967  0.57882736  1
  H+  H342  1  0.19585237  0.32801341  0.23260073  1
  H+  H343  1  0.86870791  0.08268619  0.57935010  1
  H+  H344  1  0.28827327  0.43569115  0.40973331  1
  H+  H345  1  0.84126337  0.65942473  0.70795320  1
  H+  H346  1  0.41178098  0.07393041  0.59897439  1
  H+  H347  1  0.40832076  0.32561143  0.26417463  1
  H+  H348  1  0.63714554  0.78507179  0.84485748  1
  H+  H349  1  0.70927656  0.89546341  0.56467621  1
  H+  H350  1  0.05946038  0.42602008  0.78433083  1
  H+  H351  1  0.37069360  0.88780898  0.15233360  1
  H+  H352  1  0.79211883  0.82839338  0.11417327  1
  H+  H353  1  0.09295739  0.17302787  0.07367052  1
  H+  H354  1  0.88574774  0.51850167  0.17361376  1
  H+  H355  1  0.38757985  0.26618928  0.17485498  1
  H+  H356  1  0.17227723  0.58378666  0.23631872  1
  H+  H357  1  0.66070898  0.33500242  0.26251456  1
  H+  H358  1  0.58186116  0.41007008  0.10229699  1
  H+  H359  1  0.57891154  0.93084594  0.77219532  1
  H+  H360  1  0.33914207  0.91348240  0.73202836  1
  H+  H361  1  0.02001024  0.09770212  0.46377589  1
  H+  H362  1  0.65114075  0.06921171  0.54804414  1
  H+  H363  1  0.09287132  0.15387276  0.41632669  1
  H+  H364  1  0.57564375  0.41349094  0.76480626  1
  H+  H365  1  0.77731051  0.95417417  0.76330888  1
  H+  H366  1  0.52110250  0.26191151  0.88877206  1
  H+  H367  1  0.84458667  0.93314939  0.05969782  1
  H+  H368  1  0.41996674  0.82672566  0.56281907  1
  H+  H369  1  0.09793889  0.66851694  0.07142891  1
  H+  H370  1  0.67235217  0.10579650  0.89739496  1
  H+  H371  1  0.92523313  0.83364460  0.56053256  1
  H+  H372  1  0.83689828  0.67098761  0.10075394  1
  H+  H373  1  0.08816983  0.67070753  0.76906555  1
  H+  H374  1  0.89404185  0.09685660  0.89463207  1
  H+  H375  1  0.34135635  0.65153612  0.44817764  1
  H+  H376  1  0.58499913  0.91561020  0.09012145  1
  H+  H377  1  0.41341545  0.08852532  0.93276537  1
  H+  H378  1  0.68840599  0.84325987  0.93690410  1
  H+  H379  1  0.82467652  0.65791591  0.40166847  1
  H+  H380  1  0.38698374  0.27654364  0.98344838  1
  H+  H381  1  0.58201176  0.16547981  0.10418361  1
  H+  H382  1  0.85780811  0.47357070  0.66142092  1
  H+  H383  1  0.83901315  0.43066339  0.72607594  1
  O2-  O384  1  0.08428770  0.16608206  0.14884994  1
  O2-  O385  1  0.08074901  0.14129677  0.46146339  1
  O2-  O386  1  0.04027149  0.09616539  0.80720159  1
  O2-  O387  1  0.09431867  0.41159561  0.15360389  1
  O2-  O388  1  0.07671056  0.40914908  0.48434925  1
  O2-  O389  1  0.07339300  0.42478331  0.82699269  1
  O2-  O390  1  0.08891229  0.65804620  0.14681137  1
  O2-  O391  1  0.08989884  0.66260789  0.47349840  1
  O2-  O392  1  0.09260213  0.67434412  0.81447539  1
  O2-  O393  1  0.09168521  0.91521042  0.14751288  1
  O2-  O394  1  0.08648969  0.90366370  0.47882690  1
  O2-  O395  1  0.08921320  0.91481743  0.81179008  1
  O2-  O396  1  0.34353149  0.15561187  0.16239770  1
  O2-  O397  1  0.33667068  0.16565167  0.47705456  1
  O2-  O398  1  0.33369372  0.17138443  0.80912528  1
  O2-  O399  1  0.34331083  0.41697670  0.14179818  1
  O2-  O400  1  0.32373460  0.41628972  0.47621412  1
  O2-  O401  1  0.32111750  0.41404946  0.80717415  1
  O2-  O402  1  0.33438162  0.66124073  0.14583097  1
  O2-  O403  1  0.33423474  0.65787923  0.49149495  1
  O2-  O404  1  0.33383088  0.66569795  0.81467020  1
  O2-  O405  1  0.34386263  0.92395207  0.14199262  1
  O2-  O406  1  0.33333576  0.91233205  0.47948947  1
  O2-  O407  1  0.34064853  0.91752575  0.81113637  1
  O2-  O408  1  0.58579225  0.17104753  0.14919194  1
  O2-  O409  1  0.56704003  0.16096874  0.47706095  1
  O2-  O410  1  0.55051246  0.14326542  0.81184564  1
  O2-  O411  1  0.58589339  0.41094122  0.14717130  1
  O2-  O412  1  0.58263800  0.41278972  0.47845419  1
  O2-  O413  1  0.57019119  0.41560581  0.81022306  1
  O2-  O414  1  0.58175364  0.67748843  0.15913800  1
  O2-  O415  1  0.55697144  0.61367451  0.46497558  1
  O2-  O416  1  0.55217637  0.63842651  0.81008725  1
  O2-  O417  1  0.57261434  0.90730551  0.13420348  1
  O2-  O418  1  0.56156306  0.90127566  0.46636129  1
  O2-  O419  1  0.57785469  0.92679647  0.81723463  1
  O2-  O420  1  0.84751149  0.17847039  0.14410262  1
  O2-  O421  1  0.86056267  0.18791638  0.47793702  1
  O2-  O422  1  0.83145652  0.19984350  0.81992148  1
  O2-  O423  1  0.83161534  0.41168869  0.14971159  1
  O2-  O424  1  0.82542904  0.41068936  0.47594804  1
  O2-  O425  1  0.88429804  0.45708131  0.79889417  1
  O2-  O426  1  0.84317556  0.67054009  0.14576663  1
  O2-  O427  1  0.83170251  0.66172966  0.47982462  1
  O2-  O428  1  0.81522622  0.64523937  0.83727036  1
  O2-  O429  1  0.81507677  0.88208894  0.13686264  1
  O2-  O430  1  0.86658237  0.94009650  0.47317258  1
  O2-  O431  1  0.81030671  0.95071803  0.80145945  1
  O2-  O432  1  0.10965316  0.04920263  0.20708735  1
  O2-  O433  1  0.17102639  0.07278097  0.51476730  1
  O2-  O434  1  0.16814527  0.08104667  0.85449911  1
  O2-  O435  1  0.18017174  0.32713228  0.18870148  1
  O2-  O436  1  0.08164012  0.26545562  0.53303569  1
  O2-  O437  1  0.17030219  0.34134804  0.85813362  1
  O2-  O438  1  0.17015032  0.57638623  0.19043546  1
  O2-  O439  1  0.16392881  0.57874470  0.52339540  1
  O2-  O440  1  0.16762479  0.58664613  0.85819017  1
  O2-  O441  1  0.18435370  0.83126931  0.17620118  1
  O2-  O442  1  0.17118215  0.82432439  0.52195541  1
  O2-  O443  1  0.17686401  0.83745556  0.85442826  1
  O2-  O444  1  0.42754946  0.07557812  0.20024094  1
  O2-  O445  1  0.40760944  0.07480010  0.52288487  1
  O2-  O446  1  0.38737264  0.07364330  0.86319732  1
  O2-  O447  1  0.41750725  0.32736427  0.18792245  1
  O2-  O448  1  0.41529590  0.33107651  0.52078131  1
  O2-  O449  1  0.40716829  0.33436215  0.84690596  1
  O2-  O450  1  0.41224793  0.57604055  0.19121240  1
  O2-  O451  1  0.41387031  0.57272668  0.53383862  1
  O2-  O452  1  0.40405672  0.57250506  0.84331380  1
  O2-  O453  1  0.41264908  0.82779728  0.17319184  1
  O2-  O454  1  0.41256607  0.82039185  0.51799855  1
  O2-  O455  1  0.41560761  0.82977231  0.85610885  1
  O2-  O456  1  0.68421068  0.10631263  0.19991606  1
  O2-  O457  1  0.63910183  0.06030436  0.50406776  1
  O2-  O458  1  0.67338072  0.10751595  0.85154711  1
  O2-  O459  1  0.66751002  0.33497914  0.18831378  1
  O2-  O460  1  0.66121728  0.32494479  0.51987113  1
  O2-  O461  1  0.57825609  0.28918204  0.87067572  1
  O2-  O462  1  0.71176088  0.66251948  0.21404081  1
  O2-  O463  1  0.66952599  0.57203404  0.52671906  1
  O2-  O464  1  0.63833622  0.57267303  0.86067302  1
  O2-  O465  1  0.67313966  0.84429542  0.19034353  1
  O2-  O466  1  0.67990869  0.83929655  0.44664873  1
  O2-  O467  1  0.69279513  0.80823483  0.86474388  1
  O2-  O468  1  0.92119019  0.08604116  0.18614739  1
  O2-  O469  1  0.90752668  0.08704386  0.54347303  1
  O2-  O470  1  0.89020863  0.10321260  0.85026993  1
  O2-  O471  1  0.92602733  0.33909244  0.19053685  1
  O2-  O472  1  0.91148089  0.33513433  0.52329792  1
  O2-  O473  1  0.91531008  0.33757638  0.86984889  1
  O2-  O474  1  0.91928854  0.57925487  0.18822865  1
  O2-  O475  1  0.92093882  0.58000780  0.50742530  1
  O2-  O476  1  0.94166083  0.60028473  0.87275670  1
  O2-  O477  1  0.92834155  0.83534916  0.18980357  1
  O2-  O478  1  0.92164360  0.83040956  0.51538817  1
  O2-  O479  1  0.92450263  0.82626449  0.85088053  1
  O2-  O480  1  0.17998134  0.07331694  0.32044052  1
  O2-  O481  1  0.16704789  0.07014845  0.63967056  1
  O2-  O482  1  0.17083387  0.08843610  0.98187807  1
  O2-  O483  1  0.23321198  0.31708077  0.30195364  1
  O2-  O484  1  0.14721770  0.29223006  0.64324217  1
  O2-  O485  1  0.17148420  0.34051074  0.98367971  1
  O2-  O486  1  0.17154803  0.59826582  0.30962467  1
  O2-  O487  1  0.16226200  0.57502617  0.64427092  1
  O2-  O488  1  0.17396126  0.58438048  0.98040244  1
  O2-  O489  1  0.17341898  0.86459975  0.32716067  1
  O2-  O490  1  0.17129966  0.82296517  0.64469138  1
  O2-  O491  1  0.17139388  0.84012597  0.98150765  1
  O2-  O492  1  0.46584659  0.13374559  0.32216037  1
  O2-  O493  1  0.41245964  0.07388029  0.64486501  1
  O2-  O494  1  0.42289592  0.09234993  0.97944745  1
  O2-  O495  1  0.39697968  0.32377542  0.30894632  1
  O2-  O496  1  0.41613554  0.32831882  0.64364897  1
  O2-  O497  1  0.41961021  0.33749045  0.96990464  1
  O2-  O498  1  0.39763340  0.59014349  0.31932250  1
  O2-  O499  1  0.39908286  0.55885354  0.65818532  1
  O2-  O500  1  0.41319324  0.57917156  0.97627701  1
  O2-  O501  1  0.41030850  0.84175571  0.29231508  1
  O2-  O502  1  0.42187984  0.82920521  0.64488693  1
  O2-  O503  1  0.42189723  0.84058088  0.97944853  1
  O2-  O504  1  0.66732038  0.07801687  0.32050534  1
  O2-  O505  1  0.68552579  0.10381820  0.62738101  1
  O2-  O506  1  0.67496233  0.09988829  0.97285349  1
  O2-  O507  1  0.65567554  0.33432028  0.30834783  1
  O2-  O508  1  0.66162246  0.32824624  0.64594065  1
  O2-  O509  1  0.66571999  0.33262239  0.98400087  1
  O2-  O510  1  0.65045163  0.57677995  0.32069367  1
  O2-  O511  1  0.66523555  0.57043410  0.64492966  1
  O2-  O512  1  0.65787697  0.57762319  0.98732780  1
  O2-  O513  1  0.65763276  0.83227346  0.31150027  1
  O2-  O514  1  0.74720293  0.95466407  0.70002666  1
  O2-  O515  1  0.69604718  0.86440531  0.97954473  1
  O2-  O516  1  0.93262025  0.08669090  0.31150705  1
  O2-  O517  1  0.81237316  0.08337673  0.63448911  1
  O2-  O518  1  0.93675306  0.08397411  0.96803823  1
  O2-  O519  1  0.92751619  0.33633844  0.31486565  1
  O2-  O520  1  0.91349267  0.30432565  0.66655585  1
  O2-  O521  1  0.92296528  0.33903808  0.98746851  1
  O2-  O522  1  0.91077118  0.57547598  0.31439584  1
  O2-  O523  1  0.92598103  0.58033428  0.63002694  1
  O2-  O524  1  0.92334991  0.58775077  0.99491309  1
  O2-  O525  1  0.83792328  0.78668231  0.28990425  1
  O2-  O526  1  0.93202104  0.83458331  0.64020364  1
  O2-  O527  1  0.92157150  0.83970692  0.97978844  1
  O2-  O528  1  0.09510235  0.17551224  0.02786842  1
  O2-  O529  1  0.10469333  0.16429645  0.34443548  1
  O2-  O530  1  0.05341883  0.11464942  0.68393519  1
  O2-  O531  1  0.08644306  0.41882347  0.02894263  1
  O2-  O532  1  0.09962393  0.43199111  0.36207769  1
  O2-  O533  1  0.08651477  0.41100956  0.67309110  1
  O2-  O534  1  0.09638707  0.66879996  0.02553975  1
  O2-  O535  1  0.08544584  0.67507661  0.35362752  1
  O2-  O536  1  0.08220476  0.66091114  0.68931850  1
  O2-  O537  1  0.09008317  0.92417441  0.02234696  1
  O2-  O538  1  0.07485775  0.89915444  0.35376205  1
  O2-  O539  1  0.09342686  0.90839682  0.68785971  1
  O2-  O540  1  0.33102361  0.17762607  0.02114344  1
  O2-  O541  1  0.34418718  0.16811369  0.35495531  1
  O2-  O542  1  0.33260586  0.16127878  0.68374766  1
  O2-  O543  1  0.33773506  0.41742330  0.01955002  1
  O2-  O544  1  0.26667646  0.44631715  0.37036830  1
  O2-  O545  1  0.31290001  0.38936304  0.68468937  1
  O2-  O546  1  0.34218722  0.67239291  0.02003488  1
  O2-  O547  1  0.32949306  0.68509667  0.33661486  1
  O2-  O548  1  0.32892831  0.65893547  0.68799361  1
  O2-  O549  1  0.33733128  0.92328319  0.02050062  1
  O2-  O550  1  0.33794655  0.91986963  0.36242933  1
  O2-  O551  1  0.33699986  0.90947748  0.68667120  1
  O2-  O552  1  0.58526933  0.16645672  0.02381811  1
  O2-  O553  1  0.53732655  0.19183914  0.36073283  1
  O2-  O554  1  0.57886259  0.15562086  0.68826790  1
  O2-  O555  1  0.58175868  0.41131819  0.02045655  1
  O2-  O556  1  0.56615548  0.41137963  0.35500279  1
  O2-  O557  1  0.58049311  0.40923298  0.68749394  1
  O2-  O558  1  0.57263127  0.65606034  0.03995452  1
  O2-  O559  1  0.57001946  0.66386268  0.35044428  1
  O2-  O560  1  0.57015754  0.63012828  0.69155837  1
  O2-  O561  1  0.59436330  0.92996732  0.00935478  1
  O2-  O562  1  0.56770715  0.91474561  0.34478810  1
  O2-  O563  1  0.58191111  0.93340976  0.69207403  1
  O2-  O564  1  0.84099620  0.17148248  0.01754412  1
  O2-  O565  1  0.84564255  0.16790950  0.35630295  1
  O2-  O566  1  0.91495097  0.23619215  0.70302570  1
  O2-  O567  1  0.83382346  0.41426683  0.02298867  1
  O2-  O568  1  0.82631285  0.40743682  0.35183364  1
  O2-  O569  1  0.82093551  0.41892314  0.68292195  1
  O2-  O570  1  0.82951685  0.67024518  0.02028342  1
  O2-  O571  1  0.81920896  0.65235240  0.35634760  1
  O2-  O572  1  0.83385185  0.66083694  0.66433136  1
  O2-  O573  1  0.84772318  0.93522455  0.01482770  1
  O2-  O574  1  0.83467250  0.91662832  0.34988936  1
  O2-  O575  1  0.89979171  0.95005534  0.69516108  1
