# generated using pymatgen
data_H2O
_symmetry_space_group_name_H-M   'P 1'
_cell_length_a   18.00265457
_cell_length_b   17.99401858
_cell_length_c   22.00522424
_cell_angle_alpha   89.96400501
_cell_angle_beta   90.04584308
_cell_angle_gamma   119.99266390
_symmetry_Int_Tables_number   1
_chemical_formula_structural   H2O
_chemical_formula_sum   'H384 O192'
_cell_volume   6173.80756949
_cell_formula_units_Z   192
loop_
 _symmetry_equiv_pos_site_id
 _symmetry_equiv_pos_as_xyz
  1  'x, y, z'
loop_
 _atom_type_symbol
 _atom_type_oxidation_number
  H+  1.0
  O2-  -2.0
loop_
 _atom_site_type_symbol
 _atom_site_label
 _atom_site_symmetry_multiplicity
 _atom_site_fract_x
 _atom_site_fract_y
 _atom_site_fract_z
 _atom_site_occupancy
  H+  H0  1  0.52854117  0.89987006  0.47405290  1
  H+  H1  1  0.38533785  0.89172894  0.67460105  1
  H+  H2  1  0.62816976  0.88536872  0.12410961  1
  H+  H3  1  0.37704120  0.01892417  0.17265761  1
  H+  H4  1  0.39666553  0.27154689  0.50878523  1
  H+  H5  1  0.64573670  0.37733888  0.30840415  1
  H+  H6  1  0.86395096  0.13542618  0.00492312  1
  H+  H7  1  0.39430887  0.31797567  0.60557502  1
  H+  H8  1  0.23411196  0.86038639  0.51330593  1
  H+  H9  1  0.95703801  0.86168277  0.65912052  1
  H+  H10  1  0.67127341  0.08698197  0.90248328  1
  H+  H11  1  0.75483290  0.92192895  0.48935099  1
  H+  H12  1  0.95769707  0.94179518  0.45151198  1
  H+  H13  1  0.11616404  0.63703560  0.15670795  1
  H+  H14  1  0.52460126  0.40861746  -0.00047290  1
  H+  H15  1  0.86698883  0.74626453  0.33923549  1
  H+  H16  1  0.01810750  0.38457435  0.34765816  1
  H+  H17  1  0.14363269  0.86596697  0.99770601  1
  H+  H18  1  0.88749697  0.52322171  0.50378865  1
  H+  H19  1  0.15971282  1.00346285  0.48381438  1
  H+  H20  1  0.88096458  0.27748881  0.84109147  1
  H+  H21  1  0.68576652  1.09623355  0.25659151  1
  H+  H22  1  0.84184453  0.34196188  0.18684224  1
  H+  H23  1  0.76772627  0.62997173  0.49475910  1
  H+  H24  1  0.08376020  0.70515453  0.67060838  1
  H+  H25  1  0.37725877  0.71331038  0.85137468  1
  H+  H26  1  0.14236442  0.61500312  0.83982430  1
  H+  H27  1  0.39398893  0.51128416  0.00395155  1
  H+  H28  1  0.82384132  0.41152741  0.10560030  1
  H+  H29  1  0.11828115  0.50899256  0.34323989  1
  H+  H30  1  0.12528120  0.48098965  0.82166415  1
  H+  H31  1  0.68290063  0.09226069  0.60860925  1
  H+  H32  1  0.73395444  0.64170081  0.32849979  1
  H+  H33  1  0.29567741  0.64906607  0.15038528  1
  H+  H34  1  0.17683104  0.54142860  0.15282194  1
  H+  H35  1  0.48026013  0.37216219  0.16341634  1
  H+  H36  1  0.99574642  0.33425599  0.15045340  1
  H+  H37  1  0.78339544  0.64145231  1.00143417  1
  H+  H38  1  0.15423007  0.04588606  0.33448699  1
  H+  H39  1  0.86480189  0.39207661  0.83056217  1
  H+  H40  1  0.48345223  0.13918188  0.66857120  1
  H+  H41  1  0.97687181  0.11022182  0.99237135  1
  H+  H42  1  0.13197322  1.09422640  0.66215554  1
  H+  H43  1  0.00720510  0.36883157  0.17373808  1
  H+  H44  1  0.39901894  0.28060656  0.31751111  1
  H+  H45  1  0.38816743  0.04551721  0.83939370  1
  H+  H46  1  0.19122164  0.82825042  0.66682296  1
  H+  H47  1  0.60740260  0.23739448  0.67236851  1
  H+  H48  1  0.46710693  0.10348255  0.32517553  1
  H+  H49  1  0.38992673  0.36231901  0.96600108  1
  H+  H50  1  0.86122078  0.60111281  0.67908298  1
  H+  H51  1  0.15642827  0.87438694  0.50480774  1
  H+  H52  1  0.94778050  0.59843221  0.67346180  1
  H+  H53  1  0.25539690  0.61050399  0.34837247  1
  H+  H54  1  0.10118113  0.95943399  0.82750882  1
  H+  H55  1  0.73604573  0.87100045  0.15561411  1
  H+  H56  1  0.85633212  0.84909657  0.51232882  1
  H+  H57  1  0.48131528  0.61756987  0.32090797  1
  H+  H58  1  0.63935356  0.85491069  0.84364303  1
  H+  H59  1  0.90254381  1.02855426  0.32569818  1
  H+  H60  1  0.77546220  0.39443406  0.34047928  1
  H+  H61  1  0.28580526  0.14222593  0.49270594  1
  H+  H62  1  0.34609389  0.16917746  0.43285941  1
  H+  H63  1  0.13389339  0.61592883  0.50809990  1
  H+  H64  1  0.54151348  0.88635784  0.84155276  1
  H+  H65  1  0.88433378  0.52028755  0.17512159  1
  H+  H66  1  1.02301687  0.63022389  0.16040581  1
  H+  H67  1  0.11716224  0.10224333  0.18108489  1
  H+  H68  1  0.35416373  0.89010642  0.17705317  1
  H+  H69  1  0.51776954  0.21713740  0.38208755  1
  H+  H70  1  0.89984925  0.63558433  0.98967161  1
  H+  H71  1  0.87314012  0.88596537  0.32785157  1
  H+  H72  1  0.98874010  0.63309453  0.98607391  1
  H+  H73  1  0.89255057  0.37156709  0.51032551  1
  H+  H74  1  0.25994829  0.88498941  0.34425619  1
  H+  H75  1  0.58309135  0.43056058  0.09781327  1
  H+  H76  1  0.42387424  0.64442931  0.69743284  1
  H+  H77  1  0.96853370  0.85317105  0.17907226  1
  H+  H78  1  0.35736512  0.98200390  0.33986107  1
  H+  H79  1  0.64493207  0.27639785  0.83773218  1
  H+  H80  1  0.39127837  0.27517583  0.97385278  1
  H+  H81  1  0.59372761  0.71478543  0.81363853  1
  H+  H82  1  0.61343026  0.13808880  0.82894147  1
  H+  H83  1  0.60249764  0.84767366  0.52088841  1
  H+  H84  1  0.77142038  0.15102860  0.49259982  1
  H+  H85  1  0.12203865  0.22706113  1.00014292  1
  H+  H86  1  0.37291665  0.89582667  0.49318878  1
  H+  H87  1  0.63317033  0.52338750  0.53337145  1
  H+  H88  1  0.63963789  0.84500984  1.00074366  1
  H+  H89  1  0.41882423  0.56510751  0.91039978  1
  H+  H90  1  0.77810327  0.13819167  0.82686338  1
  H+  H91  1  0.52322225  0.13149426  0.00622721  1
  H+  H92  1  0.10765795  0.72438550  0.50017336  1
  H+  H93  1  0.41071979  0.27665523  0.81644738  1
  H+  H94  1  0.39797279  0.76666936  1.00830081  1
  H+  H95  1  0.41788511  0.33670527  0.22089579  1
  H+  H96  1  0.61252642  0.13181038  1.00894428  1
  H+  H97  1  0.84903954  0.88250644  0.67818195  1
  H+  H98  1  0.29530380  0.93540710  0.64727823  1
  H+  H99  1  0.38354344  0.63098673  0.15564388  1
  H+  H100  1  0.37094326  0.39957488  0.15755211  1
  H+  H101  1  0.60178856  0.21615411  0.16019102  1
  H+  H102  1  0.86351186  0.39360259  0.34721831  1
  H+  H103  1  0.13346797  0.39411132  0.81780061  1
  H+  H104  1  0.62033706  0.24144444  0.50167500  1
  H+  H105  1  0.86354903  0.13273483  0.82876730  1
  H+  H106  1  0.11647689  0.60003600  0.66165310  1
  H+  H107  1  0.30923313  0.84111069  0.85495714  1
  H+  H108  1  0.59596504  0.07923018  0.17757419  1
  H+  H109  1  0.12867933  0.24071530  0.50021700  1
  H+  H110  1  0.60817369  0.89386740  0.68279101  1
  H+  H111  1  0.88622274  0.53219095  0.33051362  1
  H+  H112  1  0.82991080  0.67276247  0.43704525  1
  H+  H113  1  0.08941369  0.87296158  0.66961484  1
  H+  H114  1  0.57931894  0.70879015  0.50853276  1
  H+  H115  1  0.84306585  0.37894594  0.01630846  1
  H+  H116  1  1.01794099  0.38750832  0.67944020  1
  H+  H117  1  0.52297925  0.90139673  0.68459003  1
  H+  H118  1  0.60666082  0.64656725  0.34395043  1
  H+  H119  1  0.92676958  0.61301831  0.90303921  1
  H+  H120  1  0.03268586  0.14364032  0.34488502  1
  H+  H121  1  0.19851608  0.38482822  0.56454394  1
  H+  H122  1  0.11641682  0.84989645  0.84063617  1
  H+  H123  1  0.47321963  0.59585968  0.84802653  1
  H+  H124  1  0.28293610  -0.11771004  1.00725751  1
  H+  H125  1  0.53646117  0.64855096  0.15873924  1
  H+  H126  1  0.52066190  0.65009164  0.76391871  1
  H+  H127  1  0.22438126  0.10260473  0.66531555  1
  H+  H128  1  0.59250263  0.43023474  0.59499641  1
  H+  H129  1  0.16572608  0.28143841  0.60677992  1
  H+  H130  1  0.61914879  0.63549245  0.74389304  1
  H+  H131  1  0.12000148  0.72963834  0.82641103  1
  H+  H132  1  0.60108302  0.63196003  0.50350432  1
  H+  H133  1  0.27140044  0.64212399  0.50360472  1
  H+  H134  1  0.38936457  0.36506798  0.31127247  1
  H+  H135  1  0.85128752  0.72795494  0.68431418  1
  H+  H136  1  0.66203912  0.05940294  0.32041468  1
  H+  H137  1  1.01366614  0.10413183  0.83317748  1
  H+  H138  1  0.27633322  1.01431669  0.79337013  1
  H+  H139  1  0.63045876  0.75148056  -0.00038804  1
  H+  H140  1  0.10425901  0.96792572  0.66963491  1
  H+  H141  1  0.11314919  0.19710318  0.68444992  1
  H+  H142  1  0.53094729  0.14660501  0.50642808  1
  H+  H143  1  0.87360640  0.97694759  0.15857938  1
  H+  H144  1  0.85152260  0.47012372  0.67597060  1
  H+  H145  1  0.53517975  0.40190517  0.29969611  1
  H+  H146  1  0.66959136  0.70687668  0.64623391  1
  H+  H147  1  0.63908604  0.12448983  0.51515160  1
  H+  H148  1  0.47937410  0.36025249  0.53216127  1
  H+  H149  1  0.88257215  1.01882009  0.66434963  1
  H+  H150  1  0.39100987  0.11396020  0.50992638  1
  H+  H151  1  0.79154331  0.14157830  0.67315602  1
  H+  H152  1  0.90234679  0.11842176  0.32919140  1
  H+  H153  1  0.38606011  0.13257966  0.66881362  1
  H+  H154  1  0.73016134  0.11151137  0.99873641  1
  H+  H155  1  0.36754435  0.62025203  0.00455050  1
  H+  H156  1  0.38869806  0.52677146  0.16521219  1
  H+  H157  1  0.87953045  0.82281548  0.60761825  1
  H+  H158  1  0.62956391  0.38577114  0.81330652  1
  H+  H159  1  0.10270266  -0.03300942  0.17017122  1
  H+  H160  1  0.15987015  0.41392247  0.14515183  1
  H+  H161  1  0.39897374  0.83888547  0.30188585  1
  H+  H162  1  0.13460859  0.36557291  0.32655565  1
  H+  H163  1  0.79658394  0.14948442  0.33354332  1
  H+  H164  1  0.38933123  0.77234457  0.50378098  1
  H+  H165  1  0.27982103  0.62748393  0.00427883  1
  H+  H166  1  0.89171417  0.27645400  0.33974804  1
  H+  H167  1  0.48146602  0.60727671  1.00446165  1
  H+  H168  1  0.67903231  0.61724448  0.26665598  1
  H+  H169  1  0.63016761  0.78854258  0.69321360  1
  H+  H170  1  0.39034983  0.61360166  0.31295989  1
  H+  H171  1  0.25750960  0.35714622  -0.00438097  1
  H+  H172  1  0.02934928  0.88657150  0.01068834  1
  H+  H173  1  0.62235497  0.49323208  0.30344247  1
  H+  H174  1  0.32780188  0.92577561  0.40819406  1
  H+  H175  1  0.63391653  0.27183539  -0.00751346  1
  H+  H176  1  0.37982707  0.74563144  0.69993971  1
  H+  H177  1  0.01683578  0.89122389  0.53652065  1
  H+  H178  1  0.66718223  0.51449921  0.82463550  1
  H+  H179  1  0.46446525  0.59614214  0.52175560  1
  H+  H180  1  0.23659886  0.36822011  0.17290394  1
  H+  H181  1  0.73331186  0.88920028  0.46464249  1
  H+  H182  1  0.64236019  0.62075157  0.16849808  1
  H+  H183  1  0.85033748  0.17213105  0.73242786  1
  H+  H184  1  0.21135764  0.87508271  0.83620253  1
  H+  H185  1  0.61456277  0.00448303  0.16063803  1
  H+  H186  1  0.79130444  0.90377058  0.33178535  1
  H+  H187  1  0.64082963  0.03691047  0.51004993  1
  H+  H188  1  0.65430696  0.35315326  0.47229197  1
  H+  H189  1  0.22866366  0.11264412  -0.00721719  1
  H+  H190  1  0.10707404  0.63941850  0.35365260  1
  H+  H191  1  0.73360674  0.36716291  0.83883530  1
  H+  H192  1  0.90243483  0.70453307  0.84305686  1
  H+  H193  1  0.54687199  0.39423316  0.80404167  1
  H+  H194  1  -0.03001999  0.84467802  0.83898260  1
  H+  H195  1  0.18314240  0.37626818  0.97996353  1
  H+  H196  1  0.42248430  0.59185040  0.22485179  1
  H+  H197  1  0.61295154  0.49581311  -0.00018740  1
  H+  H198  1  0.23843606  0.36739920  0.82255344  1
  H+  H199  1  0.27719483  0.38977855  0.32064324  1
  H+  H200  1  0.86440295  0.63601519  0.16029445  1
  H+  H201  1  0.38661143  0.13048151  0.84570088  1
  H+  H202  1  0.36597139  0.14108279  -0.00210886  1
  H+  H203  1  0.86214806  0.23712990  0.49123390  1
  H+  H204  1  0.65409646  1.03685927  0.66941492  1
  H+  H205  1  0.40932159  0.84592450  0.86489467  1
  H+  H206  1  0.36783652  0.13692050  0.33524084  1
  H+  H207  1  0.76487387  0.58909448  0.83376971  1
  H+  H208  1  0.38922216  0.02119086  0.99293158  1
  H+  H209  1  0.13744166  0.27848807  0.32645591  1
  H+  H210  1  0.15043537  0.13331150  0.33900812  1
  H+  H211  1  0.21467363  0.08411388  0.84166124  1
  H+  H212  1  0.11896061  0.23176994  0.15647382  1
  H+  H213  1  0.62851719  0.35806952  0.16871183  1
  H+  H214  1  0.86217395  0.72419910  0.16311237  1
  H+  H215  1  0.61565553  0.38780291  0.53918577  1
  H+  H216  1  0.57892249  0.95737826  0.27149178  1
  H+  H217  1  0.88768616  0.02021278  0.99492676  1
  H+  H218  1  0.37742256  0.59804613  0.52427074  1
  H+  H219  1  -0.04617876  0.36425478  -0.00209417  1
  H+  H220  1  0.76507053  0.65023714  0.70837138  1
  H+  H221  1  0.72864378  0.61587309  0.17111875  1
  H+  H222  1  0.53469596  0.88044649  0.03051989  1
  H+  H223  1  0.12229116  0.73145401  0.00657357  1
  H+  H224  1  0.36696662  0.46761603  0.81897714  1
  H+  H225  1  0.64370665  0.02224496  1.00415713  1
  H+  H226  1  0.01609070  0.63364136  0.49566703  1
  H+  H227  1  0.12335234  0.08235393  0.84463432  1
  H+  H228  1  0.75805892  0.38384456  1.01664759  1
  H+  H229  1  0.43256425  0.33455059  0.87518577  1
  H+  H230  1  1.00697960  0.85158988  0.51888307  1
  H+  H231  1  0.66997827  0.63314859  0.95588150  1
  H+  H232  1  0.11504831  0.13554196  0.00381980  1
  H+  H233  1  0.88744549  0.61245112  0.50174771  1
  H+  H234  1  0.36133755  0.48876014  0.67614525  1
  H+  H235  1  0.36411480  0.61940704  0.84418883  1
  H+  H236  1  0.76565070  0.86359524  0.83268112  1
  H+  H237  1  0.65676406  0.89574054  0.30609624  1
  H+  H238  1  0.89359566  0.77628824  0.99643379  1
  H+  H239  1  0.36912492  0.98295481  0.50051004  1
  H+  H240  1  0.87516398  1.00677985  0.84378868  1
  H+  H241  1  0.13758487  0.52845549  0.50693556  1
  H+  H242  1  0.76948539  0.38276031  0.49940319  1
  H+  H243  1  0.63667787  0.28717057  0.32904815  1
  H+  H244  1  0.52757059  0.14511110  0.83104738  1
  H+  H245  1  0.31010845  0.19176276  0.84240382  1
  H+  H246  1  0.24609139  0.37621655  0.50578217  1
  H+  H247  1  0.72606093  0.35918862  0.65837977  1
  H+  H248  1  0.46721883  0.10635962  0.17322950  1
  H+  H249  1  0.59495980  0.62084006  0.02298145  1
  H+  H250  1  0.08321569  0.91134128  0.10919725  1
  H+  H251  1  0.10435661  0.48404953  -0.00132605  1
  H+  H252  1  0.11783953  0.97524081  0.01318819  1
  H+  H253  1  0.41088912  0.77297942  0.34322902  1
  H+  H254  1  0.36467422  0.37870219  0.49767111  1
  H+  H255  1  0.13947736  0.77345980  0.33417888  1
  H+  H256  1  0.13318382  0.76801960  0.17731850  1
  H+  H257  1  0.37104589  0.23534740  0.14695966  1
  H+  H258  1  0.85477284  0.86390647  0.83019949  1
  H+  H259  1  0.86625532  0.13260231  0.15796314  1
  H+  H260  1  0.08001751  0.41351875  0.40733724  1
  H+  H261  1  -0.01740486  0.11586979  0.17114181  1
  H+  H262  1  1.02740938  0.39116028  0.49970376  1
  H+  H263  1  -0.03327738  0.86050070  0.32027342  1
  H+  H264  1  0.89660640  0.11380510  0.66136830  1
  H+  H265  1  0.37106225  0.38478273  0.80359714  1
  H+  H266  1  0.86319051  0.65349528  0.34290517  1
  H+  H267  1  0.36600220  0.46791630  0.49792141  1
  H+  H268  1  0.83725359  0.91267886  0.06370214  1
  H+  H269  1  0.14293170  0.61787911  0.99432542  1
  H+  H270  1  0.61552657  0.47953909  0.16082520  1
  H+  H271  1  -0.02576357  0.62094037  0.33104962  1
  H+  H272  1  0.10811849  0.48144470  0.67422441  1
  H+  H273  1  0.09123244  0.94154991  0.28109006  1
  H+  H274  1  0.76357602  0.38721934  0.16369836  1
  H+  H275  1  0.22877680  0.34475052  0.65518020  1
  H+  H276  1  0.89445629  0.27718158  0.66311829  1
  H+  H277  1  0.64408274  1.02720466  0.84440880  1
  H+  H278  1  0.89321200  0.86469329  0.99246789  1
  H+  H279  1  0.11981809  0.39480625  0.49709777  1
  H+  H280  1  0.31765201  0.83818055  0.82156662  1
  H+  H281  1  0.90246850  0.33112346  0.28105720  1
  H+  H282  1  0.26803815  0.88574105  0.15910588  1
  H+  H283  1  0.15379756  0.12733889  0.50954923  1
  H+  H284  1  0.90824354  0.07059654  0.90088112  1
  H+  H285  1  0.23111888  0.61307684  0.84618641  1
  H+  H286  1  0.28768671  0.15130625  0.34179050  1
  H+  H287  1  1.01999278  0.11402633  0.67775465  1
  H+  H288  1  0.39816632  0.85684009  1.00823259  1
  H+  H289  1  0.15517269  0.08603463  0.24201008  1
  H+  H290  1  0.35049574  0.66260399  0.08805162  1
  H+  H291  1  0.57792528  0.17742239  0.73290201  1
  H+  H292  1  0.66854797  0.33352098  0.59919367  1
  H+  H293  1  0.83501424  0.16305638  0.06623373  1
  H+  H294  1  0.09013579  0.42275141  0.74536961  1
  H+  H295  1  0.58960972  0.92066512  0.77717413  1
  H+  H296  1  0.20392618  0.59667168  0.21519684  1
  H+  H297  1  0.16311986  0.06946090  0.93741273  1
  H+  H298  1  0.92495846  1.03041990  0.50384760  1
  H+  H299  1  0.84099446  0.17278122  0.40008240  1
  H+  H300  1  0.52446415  0.89856950  0.32609470  1
  H+  H301  1  0.57112959  0.18254551  0.41477568  1
  H+  H302  1  0.91735339  0.81860267  0.90127023  1
  H+  H303  1  0.15397584  0.57620029  0.60374432  1
  H+  H304  1  0.34166275  0.17834625  0.05510252  1
  H+  H305  1  0.37816062  1.02119319  0.66948222  1
  H+  H306  1  0.82891801  0.40859034  0.73269821  1
  H+  H307  1  0.07740793  0.38641439  -0.01295075  1
  H+  H308  1  0.89707849  0.33006784  0.90245636  1
  H+  H309  1  0.44471525  0.82651703  0.92455454  1
  H+  H310  1  0.41777272  0.09165151  0.57376511  1
  H+  H311  1  0.78628662  0.25977327  0.22703117  1
  H+  H312  1  0.56024061  0.65435820  0.40359644  1
  H+  H313  1  0.34414724  0.22506632  0.68346785  1
  H+  H314  1  0.36787619  0.47630796  0.31533312  1
  H+  H315  1  0.58614528  0.67228834  0.09440189  1
  H+  H316  1  0.68813353  0.86067216  0.25304410  1
  H+  H317  1  0.32046772  0.16408837  0.74438661  1
  H+  H318  1  0.66670433  0.33322759  0.93493952  1
  H+  H319  1  0.07363830  0.12789382  0.77483638  1
  H+  H320  1  0.88741055  0.36367269  0.66388171  1
  H+  H321  1  0.07376270  0.65827072  0.73415901  1
  H+  H322  1  0.66899093  0.60484418  0.57480168  1
  H+  H323  1  0.36834960  0.36280962  0.65514356  1
  H+  H324  1  0.41813049  0.08449076  0.93446519  1
  H+  H325  1  0.87617662  0.93013746  0.41579446  1
  H+  H326  1  0.16869245  0.58524903  0.93394547  1
  H+  H327  1  0.15540892  0.82349105  0.59884687  1
  H+  H328  1  0.04219393  0.14716746  0.50196618  1
  H+  H329  1  0.30324392  0.95974886  0.75209768  1
  H+  H330  1  0.46152609  0.83761638  0.54799407  1
  H+  H331  1  0.60959604  0.44174434  0.42241674  1
  H+  H332  1  0.17276559  0.82714519  0.27055168  1
  H+  H333  1  0.86803334  0.88439881  0.16112864  1
  H+  H334  1  0.62360897  0.42861522  0.69399047  1
  H+  H335  1  0.91767180  0.58391164  0.23261070  1
  H+  H336  1  0.93587687  0.07910089  0.56736899  1
  H+  H337  1  0.84562785  0.20909368  0.16252353  1
  H+  H338  1  0.02985682  0.64438628  0.82719145  1
  H+  H339  1  0.77436743  0.87637342  1.00583360  1
  H+  H340  1  0.86751639  0.48350036  0.82618818  1
  H+  H341  1  0.60564527  0.93710484  0.42768525  1
  H+  H342  1  0.16826575  0.83604944  0.93599084  1
  H+  H343  1  0.38876517  0.83190620  0.62469453  1
  H+  H344  1  0.36484929  0.14395716  0.15024964  1
  H+  H345  1  0.57384650  0.15706255  0.10104631  1
  H+  H346  1  0.33499885  0.42506006  0.09867700  1
  H+  H347  1  0.09269330  0.17968588  0.40545691  1
  H+  H348  1  0.69666950  0.58032199  0.91228281  1
  H+  H349  1  0.18625130  0.33725876  0.88439946  1
  H+  H350  1  0.08811271  0.17103732  0.09761764  1
  H+  H351  1  0.35024336  0.67649173  0.75281835  1
  H+  H352  1  0.06833434  0.90460423  0.76453475  1
  H+  H353  1  0.30085151  0.56621484  0.37996519  1
  H+  H354  1  0.62076082  0.51333926  0.68546854  1
  H+  H355  1  0.87402434  0.26841478  0.99729794  1
  H+  H356  1  0.92324200  0.34118727  0.56920390  1
  H+  H357  1  0.58037631  0.39433338  0.41743552  1
  H+  H358  1  0.12273607  0.89241584  0.32283440  1
  H+  H359  1  0.65895410  0.32819888  0.22810871  1
  H+  H360  1  0.61542262  0.81412397  0.58450646  1
  H+  H361  1  0.08580426  0.66810727  0.06401637  1
  H+  H362  1  0.33855129  0.91176907  0.06808594  1
  H+  H363  1  0.33027355  0.66281826  0.44542031  1
  H+  H364  1  0.65740700  0.81051123  0.90047421  1
  H+  H365  1  0.82954986  0.41562518  0.44013740  1
  H+  H366  1  0.83431459  0.66803773  0.06630015  1
  H+  H367  1  0.35842118  0.48448809  0.60560940  1
  H+  H368  1  0.12332715  0.44055577  0.08667087  1
  H+  H369  1  0.16961774  0.33884042  0.22859311  1
  H+  H370  1  0.72300225  0.86684441  0.67570146  1
  H+  H371  1  0.92672262  0.08583017  0.23201272  1
  H+  H372  1  0.17845601  0.08773914  0.56713665  1
  H+  H373  1  0.36237705  0.36880759  0.04147533  1
  H+  H374  1  0.13175788  0.85627086  0.18076266  1
  H+  H375  1  0.07889282  0.67465977  0.40957960  1
  H+  H376  1  0.41010399  0.07081040  0.26246086  1
  H+  H377  1  0.90716758  0.82664139  0.23996127  1
  H+  H378  1  0.82370757  0.91074821  0.74023730  1
  H+  H379  1  0.64569929  0.78220090  0.15813626  1
  H+  H380  1  0.12797862  0.56898711  0.28725006  1
  H+  H381  1  0.49594581  0.62447509  0.66921134  1
  H+  H382  1  0.11775311  0.93951344  0.42803916  1
  H+  H383  1  0.83999900  0.75441547  0.52001902  1
  O2-  O384  1  0.08646835  0.17069684  0.14295529  1
  O2-  O385  1  0.10326953  0.18162566  0.48450633  1
  O2-  O386  1  0.07353983  0.12467550  0.81989607  1
  O2-  O387  1  0.16332295  0.46311243  0.12152526  1
  O2-  O388  1  0.08720618  0.42248972  0.48177037  1
  O2-  O389  1  0.10099483  0.42358948  0.80224093  1
  O2-  O390  1  0.08299239  0.66469130  0.14399467  1
  O2-  O391  1  0.08036987  0.66591936  0.48258899  1
  O2-  O392  1  0.09017343  0.66864945  0.81198949  1
  O2-  O393  1  0.07984385  0.90701491  0.15444460  1
  O2-  O394  1  0.15590736  0.95248421  0.46263725  1
  O2-  O395  1  0.06813254  0.89948278  0.80975461  1
  O2-  O396  1  0.34260996  0.17697034  0.12874459  1
  O2-  O397  1  0.34654197  0.16794501  0.47831450  1
  O2-  O398  1  0.31945282  0.15216317  0.81784719  1
  O2-  O399  1  0.33921432  0.43034363  0.14534207  1
  O2-  O400  1  0.33412458  0.40831097  0.48186932  1
  O2-  O401  1  0.33946345  0.41510209  0.79370676  1
  O2-  O402  1  0.35571606  0.66958710  0.13469916  1
  O2-  O403  1  0.33323161  0.67014498  0.49003615  1
  O2-  O404  1  0.33934655  0.65678572  0.83230044  1
  O2-  O405  1  0.32907213  0.91439879  0.14605492  1
  O2-  O406  1  0.33951565  0.92376965  0.48138305  1
  O2-  O407  1  0.28883907  0.96723880  0.79459568  1
  O2-  O408  1  0.56920056  0.15506225  0.14659111  1
  O2-  O409  1  0.58896762  0.17619300  0.48787463  1
  O2-  O410  1  0.58633384  0.17097474  0.81341915  1
  O2-  O411  1  0.58545363  0.42082307  0.14255067  1
  O2-  O412  1  0.58397044  0.41933867  0.54983164  1
  O2-  O413  1  0.60785308  0.42047464  0.79188231  1
  O2-  O414  1  0.59510858  0.67724755  0.14209049  1
  O2-  O415  1  0.56170116  0.65233068  0.48912233  1
  O2-  O416  1  0.56383784  0.65631097  0.79536373  1
  O2-  O417  1  0.59493346  0.91418806  0.10771791  1
  O2-  O418  1  0.59186222  0.93181057  0.47091174  1
  O2-  O419  1  0.59891226  0.92032780  0.82211487  1
  O2-  O420  1  0.83314667  0.15739417  0.13919300  1
  O2-  O421  1  0.82776611  0.18038942  0.47161083  1
  O2-  O422  1  0.83851804  0.16706452  0.81219141  1
  O2-  O423  1  0.82560411  0.41403354  0.15259960  1
  O2-  O424  1  0.83188201  0.41381547  0.48528723  1
  O2-  O425  1  0.83579170  0.42344375  0.81257400  1
  O2-  O426  1  0.83338317  0.66501891  0.14455337  1
  O2-  O427  1  0.82869016  0.66453070  0.48232076  1
  O2-  O428  1  0.88129085  0.64532870  0.82585887  1
  O2-  O429  1  0.84306118  0.91761006  0.14133918  1
  O2-  O430  1  0.90174706  0.93602363  0.45851832  1
  O2-  O431  1  0.82612639  0.89665673  0.81759886  1
  O2-  O432  1  0.12839891  0.06034797  0.20261048  1
  O2-  O433  1  0.18398132  0.09558097  0.52189110  1
  O2-  O434  1  0.15570323  0.05229554  0.86010533  1
  O2-  O435  1  0.17400613  0.33845275  0.18330639  1
  O2-  O436  1  0.18534970  0.35677307  0.52484011  1
  O2-  O437  1  0.18025953  0.34576563  0.84092270  1
  O2-  O438  1  0.19490200  0.60151127  0.17212892  1
  O2-  O439  1  0.16758461  0.58862597  0.52274568  1
  O2-  O440  1  0.16894184  0.58252400  0.85749961  1
  O2-  O441  1  0.16339002  0.82677624  0.19533573  1
  O2-  O442  1  0.17311363  0.83526278  0.52595848  1
  O2-  O443  1  0.15731146  0.83095792  0.85567929  1
  O2-  O444  1  0.40751633  0.07827450  0.19042714  1
  O2-  O445  1  0.41845045  0.08270566  0.52883758  1
  O2-  O446  1  0.42237746  0.10229615  0.85877447  1
  O2-  O447  1  0.41802126  0.34203752  0.17541317  1
  O2-  O448  1  0.41506349  0.32781429  0.52857224  1
  O2-  O449  1  0.43632443  0.33683949  0.82974542  1
  O2-  O450  1  0.41906600  0.59010661  0.17842960  1
  O2-  O451  1  0.40379602  0.56404913  0.53744883  1
  O2-  O452  1  0.41428066  0.56551090  0.86478940  1
  O2-  O453  1  0.37158218  0.85392918  0.23704057  1
  O2-  O454  1  0.42489054  0.83568567  0.51458553  1
  O2-  O455  1  0.44491445  0.82223215  0.87857639  1
  O2-  O456  1  0.61279357  0.03867151  0.19483691  1
  O2-  O457  1  0.67010776  0.09418135  0.52923981  1
  O2-  O458  1  0.67122128  0.08851723  0.85725360  1
  O2-  O459  1  0.65631181  0.32483296  0.18280923  1
  O2-  O460  1  0.66509098  0.33588981  0.51182108  1
  O2-  O461  1  0.67248589  0.33663742  0.85298697  1
  O2-  O462  1  0.66888145  0.58877375  0.18737070  1
  O2-  O463  1  0.66280346  0.58828154  0.53191522  1
  O2-  O464  1  0.70517136  0.57217476  0.84406119  1
  O2-  O465  1  0.67357935  0.84597075  0.16517746  1
  O2-  O466  1  0.58070399  0.79651097  0.54698966  1
  O2-  O467  1  0.65837817  0.81313581  0.85497318  1
  O2-  O468  1  0.92245664  0.08235593  0.18669800  1
  O2-  O469  1  0.94850801  0.08742476  0.52316006  1
  O2-  O470  1  0.90611478  0.06841013  0.85543569  1
  O2-  O471  1  0.84441110  0.29554799  0.21166582  1
  O2-  O472  1  0.92640686  0.34386400  0.52380165  1
  O2-  O473  1  0.90240204  0.33586946  0.85755266  1
  O2-  O474  1  0.91925716  0.58233801  0.18721233  1
  O2-  O475  1  0.92282730  0.58592034  0.51179228  1
  O2-  O476  1  0.92845765  0.60753947  0.85406254  1
  O2-  O477  1  0.90750312  0.82480598  0.19182411  1
  O2-  O478  1  0.83656044  0.80126609  0.54178699  1
  O2-  O479  1  0.91133110  0.80665462  0.85653609  1
  O2-  O480  1  0.18484032  0.10723391  0.32296203  1
  O2-  O481  1  0.16694728  0.06956685  0.64453073  1
  O2-  O482  1  0.16607374  0.07782114  0.98265075  1
  O2-  O483  1  0.16373451  0.33689065  0.30753255  1
  O2-  O484  1  0.17027015  0.29549640  0.64994656  1
  O2-  O485  1  0.19682743  0.33120853  0.97256533  1
  O2-  O486  1  0.14857790  0.57249265  0.32864934  1
  O2-  O487  1  0.14893227  0.57126211  0.64862303  1
  O2-  O488  1  0.17004860  0.58393309  0.97972721  1
  O2-  O489  1  0.17329376  0.83319708  0.31641162  1
  O2-  O490  1  0.13997796  0.81519238  0.64371281  1
  O2-  O491  1  0.17398710  0.83629988  0.98115683  1
  O2-  O492  1  0.40797748  0.06881365  0.30916059  1
  O2-  O493  1  0.41918991  0.10590740  0.65128660  1
  O2-  O494  1  0.41780207  0.08230959  0.98008117  1
  O2-  O495  1  0.42306472  0.33702741  0.29694915  1
  O2-  O496  1  0.38612033  0.31965020  0.65024494  1
  O2-  O497  1  0.42165606  0.33310112  0.95368089  1
  O2-  O498  1  0.42452499  0.58975605  0.29596297  1
  O2-  O499  1  0.45505415  0.61099197  0.70241185  1
  O2-  O500  1  0.41887520  0.57117692  0.98759892  1
  O2-  O501  1  0.42322467  0.83213381  0.34243291  1
  O2-  O502  1  0.40996659  0.85358077  0.66534790  1
  O2-  O503  1  0.43341918  0.82909128  0.99851351  1
  O2-  O504  1  0.70131734  0.11370216  0.29956329  1
  O2-  O505  1  0.69405747  0.09408129  0.65293721  1
  O2-  O506  1  0.66862099  0.07915704  0.98460352  1
  O2-  O507  1  0.67462717  0.34100654  0.30697598  1
  O2-  O508  1  0.66550557  0.33171140  0.64371136  1
  O2-  O509  1  0.66259838  0.33273298  0.97993633  1
  O2-  O510  1  0.67410994  0.61395168  0.31175356  1
  O2-  O511  1  0.64877438  0.62303864  0.70908979  1
  O2-  O512  1  0.69075998  0.59246971  0.95770514  1
  O2-  O513  1  0.69399078  0.87114487  0.29722249  1
  O2-  O514  1  0.65894989  0.83473010  0.66378821  1
  O2-  O515  1  0.66496729  0.81324506  0.98164764  1
  O2-  O516  1  0.93454129  0.09087042  0.31260979  1
  O2-  O517  1  0.92128370  0.07715686  0.64764336  1
  O2-  O518  1  0.91571570  0.08020186  0.97877376  1
  O2-  O519  1  0.91686551  0.33836164  0.32523329  1
  O2-  O520  1  0.92318920  0.33845863  0.64891159  1
  O2-  O521  1  0.89494862  0.32826564  0.98222264  1
  O2-  O522  1  0.91593127  0.59121471  0.31272346  1
  O2-  O523  1  0.88642432  0.56715905  0.66242692  1
  O2-  O524  1  0.93186542  0.61254717  0.96656728  1
  O2-  O525  1  0.90664106  0.83068539  0.30741619  1
  O2-  O526  1  0.89392114  0.83158586  0.65272774  1
  O2-  O527  1  0.92582769  0.83591763  0.97913729  1
  O2-  O528  1  0.08588576  0.16788464  0.01685129  1
  O2-  O529  1  0.09357886  0.17848924  0.36000402  1
  O2-  O530  1  0.07885852  0.13511027  0.69526394  1
  O2-  O531  1  0.06831957  0.42318712  0.01485037  1
  O2-  O532  1  0.08003698  0.41541876  0.36136508  1
  O2-  O533  1  0.08028765  0.42041457  0.69316075  1
  O2-  O534  1  0.09062657  0.66944246  0.01874968  1
  O2-  O535  1  0.08134710  0.67547739  0.36332566  1
  O2-  O536  1  0.06190802  0.64825892  0.68959940  1
  O2-  O537  1  0.08873735  0.91438070  0.02801494  1
  O2-  O538  1  0.09560560  0.92937910  0.32381720  1
  O2-  O539  1  0.06524386  0.90808952  0.68525187  1
  O2-  O540  1  0.33813344  0.17518317  0.00894357  1
  O2-  O541  1  0.34951515  0.17550061  0.35395200  1
  O2-  O542  1  0.32141715  0.16421572  0.69803376  1
  O2-  O543  1  0.33879197  0.40425333  0.02763447  1
  O2-  O544  1  0.33934197  0.41590865  0.32896674  1
  O2-  O545  1  0.33378178  0.44848868  0.64222008  1
  O2-  O546  1  0.34038469  0.65548070  0.01887501  1
  O2-  O547  1  0.31156766  0.62210284  0.36573925  1
  O2-  O548  1  0.36323887  0.68578080  0.70860412  1
  O2-  O549  1  0.34314665  0.91068723  0.02259993  1
  O2-  O550  1  0.32159742  0.92359926  0.36204531  1
  O2-  O551  1  0.33794428  0.95261903  0.67956403  1
  O2-  O552  1  0.58225785  0.16188953  0.02380166  1
  O2-  O553  1  0.55329535  0.19182417  0.37264344  1
  O2-  O554  1  0.56908106  0.17726792  0.68843528  1
  O2-  O555  1  0.56633522  0.45427379  0.02631073  1
  O2-  O556  1  0.59871307  0.43100245  0.29721387  1
  O2-  O557  1  0.62212646  0.46701888  0.66306293  1
  O2-  O558  1  0.57417605  0.66118112  0.02735918  1
  O2-  O559  1  0.56230023  0.65994268  0.35886620  1
  O2-  O560  1  0.62187924  0.64832182  0.65347577  1
  O2-  O561  1  0.59774217  0.91142775  0.04085368  1
  O2-  O562  1  0.58516745  0.94075968  0.31300102  1
  O2-  O563  1  0.58242417  0.92692791  0.70016147  1
  O2-  O564  1  0.83296489  0.16474409  0.02008543  1
  O2-  O565  1  0.85354107  0.17561390  0.35479270  1
  O2-  O566  1  0.85392379  0.17342898  0.68711058  1
  O2-  O567  1  0.81637691  0.40945284  0.03591192  1
  O2-  O568  1  0.83405158  0.42592386  0.35911082  1
  O2-  O569  1  0.82935733  0.40726463  0.68746861  1
  O2-  O570  1  0.84106420  0.67415240  0.02105086  1
  O2-  O571  1  0.83596966  0.68501574  0.35970727  1
  O2-  O572  1  0.82618516  0.67021983  0.70304693  1
  O2-  O573  1  0.83582009  0.91245412  0.01808754  1
  O2-  O574  1  0.85159959  0.92641771  0.34638805  1
  O2-  O575  1  0.81933467  0.91376950  0.69497437  1
