# generated using pymatgen
data_H2O
_symmetry_space_group_name_H-M   'P 1'
_cell_length_a   17.99421940
_cell_length_b   17.99475072
_cell_length_c   21.99999823
_cell_angle_alpha   90.00009749
_cell_angle_beta   89.99439457
_cell_angle_gamma   120.00274565
_symmetry_Int_Tables_number   1
_chemical_formula_structural   H2O
_chemical_formula_sum   'H384 O192'
_cell_volume   6169.07577211
_cell_formula_units_Z   192
loop_
 _symmetry_equiv_pos_site_id
 _symmetry_equiv_pos_as_xyz
  1  'x, y, z'
loop_
 _atom_type_symbol
 _atom_type_oxidation_number
  H+  1.0
  O2-  -2.0
loop_
 _atom_site_type_symbol
 _atom_site_label
 _atom_site_symmetry_multiplicity
 _atom_site_fract_x
 _atom_site_fract_y
 _atom_site_fract_z
 _atom_site_occupancy
  H+  H0  1  0.63418962  0.60512762  0.83526194  1
  H+  H1  1  0.21004189  0.61390864  0.32481683  1
  H+  H2  1  0.78600198  0.90076851  0.33532675  1
  H+  H3  1  0.89024697  0.25920724  0.50764904  1
  H+  H4  1  0.61420878  0.22793441  0.33992008  1
  H+  H5  1  0.13456276  0.28592520  0.32778970  1
  H+  H6  1  0.89250638  0.76899256  0.99719001  1
  H+  H7  1  0.62517715  0.72332677  0.15722167  1
  H+  H8  1  0.40885376  0.30594510  0.32123536  1
  H+  H9  1  0.91172995  0.62516879  0.65781232  1
  H+  H10  1  0.39622745  0.77465234  0.66994302  1
  H+  H11  1  0.11335184  0.72885315  0.49250431  1
  H+  H12  1  0.39677057  0.11121677  0.67142784  1
  H+  H13  1  0.48817210  0.61822218  0.16629440  1
  H+  H14  1  0.27732288  0.12776040  0.68419979  1
  H+  H15  1  0.27910440  0.89133641  0.83148268  1
  H+  H16  1  0.36731125  0.97292148  0.67966438  1
  H+  H17  1  0.14617405  0.77959241  0.83630996  1
  H+  H18  1  0.37145617  0.95984370  0.13610672  1
  H+  H19  1  0.37499835  0.96606160  0.50461898  1
  H+  H20  1  0.89269028  0.02676616  0.32283834  1
  H+  H21  1  0.77262907  0.59968286  0.02729127  1
  H+  H22  1  0.76119209  0.68682540  0.97229644  1
  H+  H23  1  0.86830005  -0.01973658  0.15561205  1
  H+  H24  1  0.65600684  0.55231920  0.88202562  1
  H+  H25  1  0.38658920  0.85093212  0.32202758  1
  H+  H26  1  0.78673809  0.64026910  0.16114255  1
  H+  H27  1  0.89871978  1.03288945  -0.00591446  1
  H+  H28  1  0.34255130  0.45615468  0.83235698  1
  H+  H29  1  0.89898317  0.03279246  0.85575845  1
  H+  H30  1  0.02050979  0.67084048  0.33237457  1
  H+  H31  1  0.58979172  0.32734793  0.68300969  1
  H+  H32  1  0.62317708  0.13540487  0.49495994  1
  H+  H33  1  0.14423251  0.86579479  0.66534838  1
  H+  H34  1  0.01289080  0.38818782  0.16376030  1
  H+  H35  1  0.96070296  0.36105773  0.32821374  1
  H+  H36  1  0.47630710  0.85444514  0.32617224  1
  H+  H37  1  0.11618471  0.64333952  0.47946538  1
  H+  H38  1  0.12326244  0.27457233  0.17870777  1
  H+  H39  1  0.10944107  0.47862776  0.01046766  1
  H+  H40  1  0.80036560  0.42186526  0.17419674  1
  H+  H41  1  0.77367416  0.90141672  0.67539206  1
  H+  H42  1  0.68264497  0.15643558  0.97937931  1
  H+  H43  1  0.89351813  0.60922854  0.84615923  1
  H+  H44  1  0.85560150  0.22376195  0.33687567  1
  H+  H45  1  0.72575506  0.10930435  0.66108598  1
  H+  H46  1  0.10584423  0.88758638  0.32444297  1
  H+  H47  1  0.64180689  0.88352631  0.84042904  1
  H+  H48  1  0.12850877  0.35103101  0.84691559  1
  H+  H49  1  0.73834524  0.61604251  0.49519627  1
  H+  H50  1  0.97128263  0.28689128  0.54712497  1
  H+  H51  1  0.38549066  0.77872273  0.85382004  1
  H+  H52  1  -0.01255928  0.12263345  0.00147708  1
  H+  H53  1  0.85374471  0.22404673  0.67726768  1
  H+  H54  1  0.48967453  0.40256923  0.32734240  1
  H+  H55  1  0.57851652  0.91978091  0.77052558  1
  H+  H56  1  0.13661831  1.02177446  0.83399316  1
  H+  H57  1  0.89152084  0.77537642  0.17040890  1
  H+  H58  1  0.36054884  0.21768791  0.83813006  1
  H+  H59  1  0.87320339  0.10364731  0.17386911  1
  H+  H60  1  0.40530665  0.77699763  0.16500994  1
  H+  H61  1  0.22595764  0.37502501  0.32613504  1
  H+  H62  1  0.86464103  0.62436590  0.00227363  1
  H+  H63  1  0.36369826  0.40114404  0.33302840  1
  H+  H64  1  0.87511167  0.86814349  0.65554325  1
  H+  H65  1  0.02192062  0.63279793  0.82474818  1
  H+  H66  1  0.82954215  0.16251223  0.73575876  1
  H+  H67  1  -0.00175621  0.33705593  0.68278810  1
  H+  H68  1  0.13274349  0.34374315  0.66292223  1
  H+  H69  1  0.16214160  0.55864800  0.64331278  1
  H+  H70  1  0.52474085  0.88964629  0.67693646  1
  H+  H71  1  0.37361361  0.63964868  0.68304163  1
  H+  H72  1  0.64013285  0.66667359  0.65587872  1
  H+  H73  1  0.61724912  0.13348473  0.67631552  1
  H+  H74  1  0.43184208  0.07211992  0.58339916  1
  H+  H75  1  0.03822945  0.90197250  0.66625617  1
  H+  H76  1  0.35204830  0.64620154  0.00071178  1
  H+  H77  1  0.77351919  0.13405764  0.82928740  1
  H+  H78  1  0.38814946  0.10958540  0.83449392  1
  H+  H79  1  0.84047021  0.93107769  0.73113722  1
  H+  H80  1  0.11904668  0.14464834  0.01387264  1
  H+  H81  1  0.27190658  0.39803024  0.00144780  1
  H+  H82  1  0.64317930  0.05307260  0.99520217  1
  H+  H83  1  0.84642144  0.38835963  0.49426034  1
  H+  H84  1  0.14408005  0.37786865  0.50520593  1
  H+  H85  1  0.51402186  0.15844292  0.02598564  1
  H+  H86  1  0.16229670  0.64415097  0.65056695  1
  H+  H87  1  0.01077631  0.87888856  0.48106795  1
  H+  H88  1  0.28761374  0.64692100  0.15814186  1
  H+  H89  1  0.76013529  0.39136058  0.49832114  1
  H+  H90  1  0.37078695  0.98684107  0.34267692  1
  H+  H91  1  0.10268175  0.39223299  0.33651505  1
  H+  H92  1  0.90695433  0.62075943  0.16118816  1
  H+  H93  1  0.13361155  0.11884724  0.83479105  1
  H+  H94  1  0.48504294  0.61539538  0.50597258  1
  H+  H95  1  0.15825278  0.01178905  0.18340723  1
  H+  H96  1  0.61813345  0.88657345  0.49516993  1
  H+  H97  1  0.38752865  0.01169542  0.83239177  1
  H+  H98  1  0.45985318  0.35282466  0.50911831  1
  H+  H99  1  0.64662695  0.42921000  0.33651881  1
  H+  H100  1  0.90341833  0.77839309  0.84030906  1
  H+  H101  1  0.36158018  0.22000283  0.67969891  1
  H+  H102  1  0.60365078  0.44813554  0.81356618  1
  H+  H103  1  1.01064053  0.87557811  0.32832983  1
  H+  H104  1  0.87170455  0.63525553  0.48785588  1
  H+  H105  1  0.11470697  0.24160022  0.49385720  1
  H+  H106  1  0.62632486  0.22717471  0.67623143  1
  H+  H107  1  0.65300465  0.80051832  0.84376156  1
  H+  H108  1  0.58215500  0.65953186  0.43346970  1
  H+  H109  1  0.64267821  0.87983495  0.66633738  1
  H+  H110  1  0.20818866  0.11155762  0.49042507  1
  H+  H111  1  0.85508004  0.47314370  0.83006128  1
  H+  H112  1  0.87935912  0.36347505  0.66630367  1
  H+  H113  1  0.39630305  0.54130197  0.32221831  1
  H+  H114  1  0.35930993  0.59959036  0.84213865  1
  H+  H115  1  0.23182136  0.86144668  0.67004142  1
  H+  H116  1  0.49979999  0.32464242  0.68231096  1
  H+  H117  1  0.61273817  0.19913451  0.19271361  1
  H+  H118  1  0.78098549  0.13746710  1.00663943  1
  H+  H119  1  0.80896441  0.65534482  0.67098755  1
  H+  H120  1  0.48780462  0.11399513  0.67260267  1
  H+  H121  1  0.11945641  0.23414194  0.01194034  1
  H+  H122  1  1.02336762  0.88759535  1.01165871  1
  H+  H123  1  0.62678770  0.89007379  0.15362674  1
  H+  H124  1  0.65975142  0.34528373  0.14705624  1
  H+  H125  1  0.55958324  0.67727204  0.87607564  1
  H+  H126  1  0.10522936  0.14734559  0.48832481  1
  H+  H127  1  0.66372804  0.33132424  0.56778732  1
  H+  H128  1  0.76556225  0.37562535  0.67196787  1
  H+  H129  1  0.20112996  0.11712068  0.32937067  1
  H+  H130  1  0.38780208  0.39773960  0.15300454  1
  H+  H131  1  0.01690479  0.63228728  0.13458714  1
  H+  H132  1  0.63096354  0.47203523  0.65780434  1
  H+  H133  1  0.41922111  0.02577330  0.99250342  1
  H+  H134  1  0.11675771  0.02392387  0.32858195  1
  H+  H135  1  0.78898318  0.64055634  0.82305068  1
  H+  H136  1  0.15681300  0.34159905  0.24212557  1
  H+  H137  1  0.36997364  0.89142397  0.83470773  1
  H+  H138  1  0.29070402  0.64959661  0.67621533  1
  H+  H139  1  0.42343907  0.12386252  0.30923477  1
  H+  H140  1  0.36959986  0.63238552  0.49125840  1
  H+  H141  1  0.89104433  0.27247413  0.00318965  1
  H+  H142  1  0.38907831  0.85985164  0.66592870  1
  H+  H143  1  0.39171153  0.85288358  0.51137297  1
  H+  H144  1  0.50033912  0.11020969  0.32483613  1
  H+  H145  1  0.39518275  0.52568125  0.66540885  1
  H+  H146  1  0.08317989  0.41649219  0.90631914  1
  H+  H147  1  0.89076510  0.86492629  0.16891362  1
  H+  H148  1  0.35526615  0.19737420  0.00760682  1
  H+  H149  1  0.46807880  0.34661141  0.85266909  1
  H+  H150  1  0.60564346  0.96707080  0.34413458  1
  H+  H151  1  0.03392610  0.89565107  0.82664966  1
  H+  H152  1  0.72243074  0.09927653  0.32974938  1
  H+  H153  1  0.34373108  0.15185123  0.46518591  1
  H+  H154  1  0.71217239  0.35706711  0.32649264  1
  H+  H155  1  0.40755375  0.27606883  0.17427017  1
  H+  H156  1  0.48370261  0.61535775  0.66167088  1
  H+  H157  1  0.90314912  0.52509631  0.16087216  1
  H+  H158  1  0.85394468  0.92855387  0.39200583  1
  H+  H159  1  0.88169013  0.26989187  0.83988403  1
  H+  H160  1  0.01813702  0.38527689  0.85286584  1
  H+  H161  1  0.43746184  0.58204273  0.83445372  1
  H+  H162  1  0.89978984  0.86523086  0.85339369  1
  H+  H163  1  0.12212934  0.75697226  0.14663660  1
  H+  H164  1  0.59368824  0.37940599  0.49150569  1
  H+  H165  1  0.89047066  0.52800947  0.50904350  1
  H+  H166  1  0.10837232  0.73032846  1.03646652  1
  H+  H167  1  0.31445263  0.14071744  0.28686161  1
  H+  H168  1  0.86552487  0.13814129  0.83118950  1
  H+  H169  1  1.02379197  0.13656385  0.67262926  1
  H+  H170  1  0.81001385  0.40827222  0.39731541  1
  H+  H171  1  0.88506404  0.38282353  0.17287199  1
  H+  H172  1  0.23170306  0.11573384  0.83758704  1
  H+  H173  1  0.27813487  0.39543574  0.49208952  1
  H+  H174  1  0.76440657  0.60971921  0.34166843  1
  H+  H175  1  0.63547382  0.02635775  0.84000248  1
  H+  H176  1  0.85725133  0.13475062  0.48949441  1
  H+  H177  1  0.90751476  0.32790398  0.60715776  1
  H+  H178  1  0.61028419  0.91625857  0.00829329  1
  H+  H179  1  0.89126714  0.03526198  0.65964580  1
  H+  H180  1  0.33462838  0.41156640  0.73447887  1
  H+  H181  1  0.12147201  0.49131558  0.48826381  1
  H+  H182  1  0.68122901  0.58001718  0.64819059  1
  H+  H183  1  0.39807018  0.09688124  0.52631611  1
  H+  H184  1  0.62810044  0.68046768  0.99115386  1
  H+  H185  1  0.89060515  0.12334932  0.66250898  1
  H+  H186  1  0.87545981  0.89977292  0.48718426  1
  H+  H187  1  0.39004547  0.54190432  0.99697883  1
  H+  H188  1  0.83996610  0.37320441  0.34108905  1
  H+  H189  1  0.37539760  0.64512710  0.15173411  1
  H+  H190  1  0.97400138  0.12267832  0.32390125  1
  H+  H191  1  0.61861052  0.64619708  0.49504276  1
  H+  H192  1  0.15244774  0.53520249  0.17188332  1
  H+  H193  1  0.53457667  0.13297502  0.49814009  1
  H+  H194  1  0.92473858  0.82736376  0.55563611  1
  H+  H195  1  0.13652034  0.36758245  0.99547948  1
  H+  H196  1  0.07691459  0.48793110  0.69365269  1
  H+  H197  1  0.48468689  0.11304094  0.83012341  1
  H+  H198  1  0.32576066  0.67235574  0.06173720  1
  H+  H199  1  0.59991233  0.48161072  0.67490027  1
  H+  H200  1  0.28065450  0.38926497  0.67317385  1
  H+  H201  1  0.11913650  0.85159838  0.15824036  1
  H+  H202  1  0.09942235  0.14685393  0.34176892  1
  H+  H203  1  0.64297004  0.26300294  0.83353964  1
  H+  H204  1  0.98363924  0.61563995  0.50322483  1
  H+  H205  1  0.52723605  0.88288246  0.49787505  1
  H+  H206  1  0.55125631  0.29779382  0.04125291  1
  H+  H207  1  0.10984203  -0.02029947  1.01095439  1
  H+  H208  1  0.91295656  0.32738938  0.94255349  1
  H+  H209  1  0.02707660  0.12975712  0.83225075  1
  H+  H210  1  0.63624896  1.01748019  0.50688390  1
  H+  H211  1  0.77103304  0.89140095  0.00076162  1
  H+  H212  1  0.22344879  0.10505249  -0.00009183  1
  H+  H213  1  0.63640444  0.13829431  0.15687969  1
  H+  H214  1  0.02532718  0.15022171  0.16471918  1
  H+  H215  1  0.03374249  0.39996150  0.49421857  1
  H+  H216  1  0.43653991  0.34518279  0.22982556  1
  H+  H217  1  0.36597623  0.31326291  1.02569959  1
  H+  H218  1  0.23825143  0.62147988  0.49036355  1
  H+  H219  1  0.02398340  0.63966335  0.66834183  1
  H+  H220  1  0.72128859  0.94985248  0.28123210  1
  H+  H221  1  0.61269524  0.98106307  0.67652794  1
  H+  H222  1  0.13714663  0.12100680  0.65511949  1
  H+  H223  1  0.35214206  0.70880847  0.33322326  1
  H+  H224  1  0.16030428  0.59787318  0.90895214  1
  H+  H225  1  0.84350893  0.70686833  0.33254286  1
  H+  H226  1  0.87338974  0.28631477  0.17383376  1
  H+  H227  1  0.64770388  0.53189901  0.03183475  1
  H+  H228  1  0.64643167  0.88487709  0.32159587  1
  H+  H229  1  0.26696476  0.64130869  0.83663706  1
  H+  H230  1  0.88299292  0.85594101  0.32350691  1
  H+  H231  1  0.11296662  0.63779918  0.82574514  1
  H+  H232  1  0.13355809  0.53207011  0.85479751  1
  H+  H233  1  0.58058880  0.57443558  0.36775207  1
  H+  H234  1  0.11984128  0.74046329  0.67801875  1
  H+  H235  1  0.66124334  0.52888514  0.17679466  1
  H+  H236  1  0.87904182  0.51873151  1.00274292  1
  H+  H237  1  0.52126713  0.88993166  0.83242939  1
  H+  H238  1  0.63775289  0.77771588  0.50633235  1
  H+  H239  1  0.82859175  0.16604830  0.42954432  1
  H+  H240  1  0.82612776  0.77955017  0.62402365  1
  H+  H241  1  0.74333602  0.36747818  0.83078286  1
  H+  H242  1  0.38522893  0.35483066  0.66436268  1
  H+  H243  1  0.56591281  0.42646051  0.43961245  1
  H+  H244  1  -0.02382825  0.12842023  0.50655762  1
  H+  H245  1  0.12926746  0.78368328  0.31412823  1
  H+  H246  1  0.59505361  0.66939905  0.09662424  1
  H+  H247  1  0.29035134  0.13374229  0.16549372  1
  H+  H248  1  0.64111326  0.52623074  0.99782744  1
  H+  H249  1  0.22695414  0.85828999  0.29598474  1
  H+  H250  1  0.41647889  0.84904343  0.90828357  1
  H+  H251  1  0.39950672  0.53069612  0.16770202  1
  H+  H252  1  0.86955954  0.13765909  0.01543761  1
  H+  H253  1  0.89527930  0.76315198  0.49692602  1
  H+  H254  1  0.64989690  0.24756378  1.00719167  1
  H+  H255  1  0.85832494  0.47331094  0.67606235  1
  H+  H256  1  1.02297447  0.88399781  0.16335877  1
  H+  H257  1  0.48076786  0.09370525  0.16554824  1
  H+  H258  1  0.89252086  0.74116453  0.67702491  1
  H+  H259  1  0.89280329  0.60831928  0.31061129  1
  H+  H260  1  0.09874512  -0.01986877  0.47433111  1
  H+  H261  1  0.57810225  0.90525674  0.40239151  1
  H+  H262  1  0.47921642  0.90664893  1.00161041  1
  H+  H263  1  0.10633200  0.50164163  0.72093661  1
  H+  H264  1  0.79871004  0.38078858  0.01827159  1
  H+  H265  1  0.64714771  0.79301751  0.66426156  1
  H+  H266  1  0.02176057  0.38550296  0.00890456  1
  H+  H267  1  0.87991361  0.35811676  0.83972384  1
  H+  H268  1  0.52805893  0.65425737  0.00069700  1
  H+  H269  1  0.85556235  0.87763337  0.00056291  1
  H+  H270  1  0.01954714  0.28193409  0.72669795  1
  H+  H271  1  0.12791967  0.61308887  0.00813265  1
  H+  H272  1  0.71754987  0.28682533  0.62126773  1
  H+  H273  1  0.37096280  0.48009862  0.49283632  1
  H+  H274  1  0.11569472  0.21955043  0.82893772  1
  H+  H275  1  0.88889204  0.99473906  0.48700723  1
  H+  H276  1  0.56747324  0.38108306  0.07624648  1
  H+  H277  1  0.37289571  0.72280784  0.49427723  1
  H+  H278  1  0.11788528  0.36829494  0.17848129  1
  H+  H279  1  0.63108724  0.79785376  0.99890288  1
  H+  H280  1  0.12735214  0.98677293  0.66474376  1
  H+  H281  1  0.86126590  0.13691977  0.33636384  1
  H+  H282  1  0.23139493  0.85522182  0.51066883  1
  H+  H283  1  0.38797466  0.09411359  -0.00091248  1
  H+  H284  1  0.61500342  0.13487434  0.82798712  1
  H+  H285  1  0.46244332  0.33236962  1.01244145  1
  H+  H286  1  0.80662088  0.14674822  0.10264976  1
  H+  H287  1  0.36435776  0.40920420  -0.00947559  1
  H+  H288  1  0.15452743  0.81538187  0.21562337  1
  H+  H289  1  0.06992300  0.91311149  0.41272674  1
  H+  H290  1  0.08239824  0.91741524  0.10315149  1
  H+  H291  1  0.40616034  0.31883768  0.91095254  1
  H+  H292  1  0.42397276  0.58438412  0.56533914  1
  H+  H293  1  0.21805532  0.61670938  0.99880877  1
  H+  H294  1  0.16592958  0.08430556  0.94001584  1
  H+  H295  1  0.66321791  0.85806417  0.94032087  1
  H+  H296  1  0.41941223  0.05923290  0.22111209  1
  H+  H297  1  0.14872664  0.86870603  0.83833146  1
  H+  H298  1  0.42934211  0.83479091  0.22504992  1
  H+  H299  1  0.56078251  0.36261116  0.77236115  1
  H+  H300  1  0.34939485  0.42537706  0.09833173  1
  H+  H301  1  0.21695739  0.34871137  0.83836932  1
  H+  H302  1  0.17190931  0.82690090  0.56849711  1
  H+  H303  1  0.54796972  0.69242063  0.80735519  1
  H+  H304  1  0.92634031  0.82702870  0.93778689  1
  H+  H305  1  0.42147867  0.82485718  0.57141050  1
  H+  H306  1  0.84597084  0.92420013  0.91431863  1
  H+  H307  1  0.72356528  0.68321151  0.90788963  1
  H+  H308  1  0.07391758  0.18343548  0.39942690  1
  H+  H309  1  0.63663983  0.10167375  0.32826153  1
  H+  H310  1  0.64930807  0.33911640  0.26882307  1
  H+  H311  1  0.08437237  0.15878021  0.73197933  1
  H+  H312  1  0.27936351  0.93915655  0.37262388  1
  H+  H313  1  0.93768229  0.59179695  0.59695802  1
  H+  H314  1  0.82534815  0.41769239  0.76496616  1
  H+  H315  1  0.73352545  0.86150641  0.16509661  1
  H+  H316  1  0.69434081  0.28344584  0.94360968  1
  H+  H317  1  0.61024160  0.67164144  0.72133320  1
  H+  H318  1  0.09108831  0.18408312  0.10975035  1
  H+  H319  1  0.92151483  0.57503139  0.90417755  1
  H+  H320  1  0.38360988  0.87879664  0.14135094  1
  H+  H321  1  0.34124531  0.23406970  0.48656437  1
  H+  H322  1  0.14098088  0.86713594  0.01552028  1
  H+  H323  1  0.34513934  0.91464808  0.44198869  1
  H+  H324  1  0.66914087  0.83946719  0.56439130  1
  H+  H325  1  0.97083874  0.60720213  1.00547550  1
  H+  H326  1  0.17252766  0.34362017  0.56418315  1
  H+  H327  1  0.91691445  0.09390333  0.56595623  1
  H+  H328  1  0.14701319  0.07096478  0.54870113  1
  H+  H329  1  0.63748378  0.35151051  0.84047935  1
  H+  H330  1  0.32836935  0.14627802  0.06983038  1
  H+  H331  1  0.58930011  0.16634286  0.76584097  1
  H+  H332  1  0.85735013  0.67344796  0.76934896  1
  H+  H333  1  0.22200939  0.85518171  1.00126776  1
  H+  H334  1  0.68141595  0.03648630  0.15459039  1
  H+  H335  1  0.40448475  0.31933026  0.60293263  1
  H+  H336  1  0.17066875  0.07783172  0.23537355  1
  H+  H337  1  0.36687343  0.90619951  0.04926688  1
  H+  H338  1  0.84158929  0.92412983  0.09468932  1
  H+  H339  1  0.43627923  0.59499294  0.26261107  1
  H+  H340  1  0.94223323  0.59862861  0.25395888  1
  H+  H341  1  0.33364049  0.42289382  0.39532255  1
  H+  H342  1  0.57168687  0.19241954  0.08788077  1
  H+  H343  1  0.54073779  0.37963855  0.17216867  1
  H+  H344  1  0.91009011  0.82464639  0.26393215  1
  H+  H345  1  0.72558651  0.10760663  0.50529152  1
  H+  H346  1  0.93463127  0.10358449  0.90586385  1
  H+  H347  1  0.32489511  0.65984814  0.39581995  1
  H+  H348  1  0.78433103  0.89952513  0.85882272  1
  H+  H349  1  0.90259938  0.33441838  0.26866984  1
  H+  H350  1  0.17704999  0.59426591  0.22987387  1
  H+  H351  1  0.08019591  0.70164825  0.39296746  1
  H+  H352  1  0.15192527  0.27031583  0.65448098  1
  H+  H353  1  0.11983921  0.53024416  0.31828918  1
  H+  H354  1  0.18237885  0.60669870  0.54897382  1
  H+  H355  1  0.16301632  0.33068520  0.93695485  1
  H+  H356  1  0.09280417  0.92873112  0.76580470  1
  H+  H357  1  0.40922397  0.58831778  0.93412890  1
  H+  H358  1  0.37561111  0.36069348  0.50903517  1
  H+  H359  1  0.83921370  0.66025503  0.42602388  1
  H+  H360  1  0.32968818  0.15312374  0.35880195  1
  H+  H361  1  0.84667700  0.67348388  0.10164951  1
  H+  H362  1  0.53281660  0.62167229  0.34268025  1
  H+  H363  1  0.35326882  0.37258295  0.83359359  1
  H+  H364  1  0.63579071  0.27241989  0.50806637  1
  H+  H365  1  0.22079966  0.15297958  0.61557402  1
  H+  H366  1  0.91368396  0.08242353  0.23075866  1
  H+  H367  1  0.33029199  0.66889839  0.77817436  1
  H+  H368  1  0.67475897  0.83971881  0.22377381  1
  H+  H369  1  0.65462045  0.61328092  0.16771552  1
  H+  H370  1  0.66691003  0.07944876  0.60059985  1
  H+  H371  1  0.54213818  0.89714273  0.16067703  1
  H+  H372  1  0.64527388  0.53148198  0.50638294  1
  H+  H373  1  0.08253352  0.66751480  0.73813776  1
  H+  H374  1  0.67176741  0.09003925  0.89793521  1
  H+  H375  1  0.70286287  0.62277501  0.58381746  1
  H+  H376  1  0.07573284  0.41228706  0.10543697  1
  H+  H377  1  0.58811937  0.94267224  0.07041720  1
  H+  H378  1  0.37670474  0.13270249  0.15674676  1
  H+  H379  1  0.07525446  0.42161981  0.39602756  1
  H+  H380  1  0.33640137  0.91332734  0.73836989  1
  H+  H381  1  0.83008281  0.43425788  0.08126764  1
  H+  H382  1  0.33467630  0.16442903  0.77447799  1
  H+  H383  1  0.59177033  0.16844167  0.39989156  1
  O2-  O384  1  0.08709030  0.18699319  0.15472269  1
  O2-  O385  1  0.07785429  0.18165929  0.47772531  1
  O2-  O386  1  0.08800056  0.15713528  0.81512077  1
  O2-  O387  1  0.07446398  0.41224186  0.15058887  1
  O2-  O388  1  0.09201409  0.42870190  0.47672245  1
  O2-  O389  1  0.08166333  0.41596555  0.86178949  1
  O2-  O390  1  0.08152532  0.66860434  0.11504229  1
  O2-  O391  1  0.08049791  0.67068020  0.47281434  1
  O2-  O392  1  0.08051297  0.66400684  0.80590002  1
  O2-  O393  1  0.08407427  0.91026827  0.14846118  1
  O2-  O394  1  0.07064222  0.91832893  0.45973032  1
  O2-  O395  1  0.09457085  0.93155261  0.81095572  1
  O2-  O396  1  0.34817957  0.16621421  0.14540722  1
  O2-  O397  1  0.30689957  0.17706609  0.46403818  1
  O2-  O398  1  0.33027432  0.15781571  0.82024567  1
  O2-  O399  1  0.35505292  0.42656693  0.14282090  1
  O2-  O400  1  0.33825994  0.41938036  0.47755985  1
  O2-  O401  1  0.32045090  0.39768656  0.81477196  1
  O2-  O402  1  0.34663000  0.67780878  0.13878657  1
  O2-  O403  1  0.34028664  0.66378293  0.47675610  1
  O2-  O404  1  0.32849312  0.66671755  0.82363965  1
  O2-  O405  1  0.35399722  0.90371966  0.11723420  1
  O2-  O406  1  0.34251185  0.90751788  0.48673008  1
  O2-  O407  1  0.34175100  0.92336324  0.81709759  1
  O2-  O408  1  0.59426767  0.15908653  0.15874363  1
  O2-  O409  1  0.59262756  0.16622240  0.48027834  1
  O2-  O410  1  0.58538270  0.16676944  0.81233566  1
  O2-  O411  1  0.60348438  0.41156019  0.15662774  1
  O2-  O412  1  0.56299704  0.41155232  0.48471826  1
  O2-  O413  1  0.57327657  0.38526137  0.81635801  1
  O2-  O414  1  0.59684909  0.66332384  0.14128935  1
  O2-  O415  1  0.58420398  0.67115739  0.47986983  1
  O2-  O416  1  0.57875739  0.67430419  0.83484331  1
  O2-  O417  1  0.60269720  0.92827850  0.14434023  1
  O2-  O418  1  0.58617715  0.91658586  0.48045791  1
  O2-  O419  1  0.58131488  0.92061974  0.81625945  1
  O2-  O420  1  0.79969671  0.14200227  0.14870914  1
  O2-  O421  1  0.82750124  0.16630794  0.47554680  1
  O2-  O422  1  0.83413641  0.16568261  0.81382090  1
  O2-  O423  1  0.85140396  0.43721380  0.15015790  1
  O2-  O424  1  0.82161308  0.42378245  0.48330046  1
  O2-  O425  1  0.82141791  0.41350586  0.81208909  1
  O2-  O426  1  0.84930177  0.67490451  0.14637891  1
  O2-  O427  1  0.84168798  0.66535512  0.47190242  1
  O2-  O428  1  0.85127508  0.67176552  0.81457727  1
  O2-  O429  1  0.84022332  0.91991409  0.13940169  1
  O2-  O430  1  0.88794183  0.94885781  0.46143779  1
  O2-  O431  1  0.84621794  0.92244019  0.86938567  1
  O2-  O432  1  0.20148535  0.06549623  0.20359698  1
  O2-  O433  1  0.14640551  0.07565116  0.50401434  1
  O2-  O434  1  0.16762942  0.08529455  0.84998260  1
  O2-  O435  1  0.15035474  0.33796609  0.19517608  1
  O2-  O436  1  0.17143245  0.34385986  0.51884833  1
  O2-  O437  1  0.15676718  0.31619020  0.85457552  1
  O2-  O438  1  0.18922360  0.59468237  0.18512183  1
  O2-  O439  1  0.17659514  0.59624933  0.50476309  1
  O2-  O440  1  0.16259975  0.59485782  0.86290419  1
  O2-  O441  1  0.14863103  0.81582425  0.16881973  1
  O2-  O442  1  0.17060272  0.82701269  0.52386390  1
  O2-  O443  1  0.18084222  0.83977412  0.84964103  1
  O2-  O444  1  0.41905033  0.06556472  0.17654341  1
  O2-  O445  1  0.43077162  0.06921913  0.53740245  1
  O2-  O446  1  0.42153369  0.07927348  0.84321943  1
  O2-  O447  1  0.44222076  0.33795749  0.18500092  1
  O2-  O448  1  0.39850848  0.32272085  0.52400369  1
  O2-  O449  1  0.40691566  0.31835947  0.86571574  1
  O2-  O450  1  0.42772280  0.59239311  0.18037622  1
  O2-  O451  1  0.42322565  0.58214978  0.52040372  1
  O2-  O452  1  0.38307177  0.56110400  0.85577764  1
  O2-  O453  1  0.43738822  0.83847022  0.18009824  1
  O2-  O454  1  0.42308146  0.82363062  0.52616796  1
  O2-  O455  1  0.41750357  0.84118697  0.86286169  1
  O2-  O456  1  0.70670568  0.10028151  0.15925342  1
  O2-  O457  1  0.66641857  0.07824050  0.52315441  1
  O2-  O458  1  0.66798615  0.08829562  0.85193014  1
  O2-  O459  1  0.64063554  0.36213290  0.18367670  1
  O2-  O460  1  0.65903817  0.33282406  0.52228612  1
  O2-  O461  1  0.67522572  0.32534424  0.84962826  1
  O2-  O462  1  0.69168972  0.59125251  0.18373425  1
  O2-  O463  1  0.68181842  0.59312818  0.51692613  1
  O2-  O464  1  0.67167679  0.58049190  0.84226686  1
  O2-  O465  1  0.67254561  0.83010987  0.17903272  1
  O2-  O466  1  0.66802086  0.83890921  0.51972553  1
  O2-  O467  1  0.67695694  0.85922454  0.85902835  1
  O2-  O468  1  0.91197812  0.08158249  0.18492545  1
  O2-  O469  1  0.91527482  0.09374933  0.52073108  1
  O2-  O470  1  0.93192666  0.09659518  0.86018330  1
  O2-  O471  1  0.91041720  0.34445874  0.18940285  1
  O2-  O472  1  0.93502923  0.30937641  0.53271448  1
  O2-  O473  1  0.91071884  0.32995769  0.85600958  1
  O2-  O474  1  0.94249189  0.59387415  0.16980313  1
  O2-  O475  1  0.92533635  0.58842150  0.52392537  1
  O2-  O476  1  0.91937389  0.57375773  0.85834133  1
  O2-  O477  1  0.92097656  0.83611542  0.18643860  1
  O2-  O478  1  0.92923150  0.82513288  0.51113659  1
  O2-  O479  1  0.93585553  0.83767309  0.85751134  1
  O2-  O480  1  0.14022260  0.08541578  0.31759697  1
  O2-  O481  1  0.17508483  0.10084119  0.63453088  1
  O2-  O482  1  0.16290964  0.08374706  0.98454782  1
  O2-  O483  1  0.16464519  0.34569593  0.31094945  1
  O2-  O484  1  0.17604318  0.33151383  0.64349596  1
  O2-  O485  1  0.16856900  0.33760820  0.98183263  1
  O2-  O486  1  0.15319404  0.58991352  0.30389919  1
  O2-  O487  1  0.19584163  0.61965779  0.63302826  1
  O2-  O488  1  0.15490897  0.58559369  0.98493840  1
  O2-  O489  1  0.16702064  0.83665702  0.28452009  1
  O2-  O490  1  0.16973511  0.82912465  0.65622217  1
  O2-  O491  1  0.16141823  0.82526208  1.01240583  1
  O2-  O492  1  0.43985643  0.07991942  0.30611493  1
  O2-  O493  1  0.42642036  0.08003189  0.65789395  1
  O2-  O494  1  0.43743162  0.08753051  0.98735923  1
  O2-  O495  1  0.43336466  0.36399869  0.30458676  1
  O2-  O496  1  0.40564633  0.31605078  0.64845537  1
  O2-  O497  1  0.40225612  0.31292700  0.99282461  1
  O2-  O498  1  0.44221609  0.59718066  0.30749687  1
  O2-  O499  1  0.42219417  0.58642023  0.65084304  1
  O2-  O500  1  0.42233218  0.59993228  0.97798114  1
  O2-  O501  1  0.41909738  0.82592964  0.30493040  1
  O2-  O502  1  0.42267492  0.83306299  0.65120105  1
  O2-  O503  1  0.42055450  0.87266586  0.98272105  1
  O2-  O504  1  0.66115570  0.06522023  0.31709974  1
  O2-  O505  1  0.66506935  0.08025264  0.64635709  1
  O2-  O506  1  0.68620526  0.10348387  0.97116753  1
  O2-  O507  1  0.64920588  0.33100743  0.31297041  1
  O2-  O508  1  0.69142323  0.31600828  0.64228096  1
  O2-  O509  1  0.70170163  0.26035432  0.98180597  1
  O2-  O510  1  0.56986360  0.46574222  0.37172495  1
  O2-  O511  1  0.71218304  0.63765311  0.62974541  1
  O2-  O512  1  0.72373429  0.70234415  0.94940521  1
  O2-  O513  1  0.69599043  0.89092975  0.29599926  1
  O2-  O514  1  0.67824733  0.85420106  0.65179354  1
  O2-  O515  1  0.66540507  0.85933221  0.98539576  1
  O2-  O516  1  0.91477814  0.08658854  0.30692216  1
  O2-  O517  1  0.92379342  0.09621845  0.64618885  1
  O2-  O518  1  0.92856455  0.09453487  0.98253836  1
  O2-  O519  1  0.89977305  0.32748766  0.31391158  1
  O2-  O520  1  0.90379041  0.32697159  0.65224112  1
  O2-  O521  1  0.92277861  0.33182224  0.98676367  1
  O2-  O522  1  0.93982426  0.59829517  0.29888599  1
  O2-  O523  1  0.94180544  0.59426759  0.64353424  1
  O2-  O524  1  0.91612547  0.57856551  0.98249933  1
  O2-  O525  1  0.90929106  0.82099426  0.30942435  1
  O2-  O526  1  0.88462017  0.82306222  0.63573971  1
  O2-  O527  1  0.91826305  0.82857491  0.98259814  1
  O2-  O528  1  0.08871686  0.17465013  0.02891215  1
  O2-  O529  1  0.07444303  0.18333474  0.35396457  1
  O2-  O530  1  0.08497394  0.16014612  0.68685646  1
  O2-  O531  1  0.08470523  0.41656561  0.02116933  1
  O2-  O532  1  0.06643386  0.41580258  0.35137115  1
  O2-  O533  1  0.04659125  0.33378330  0.70212030  1
  O2-  O534  1  0.07252817  0.66671621  0.04825023  1
  O2-  O535  1  0.06824511  0.72238933  0.35462799  1
  O2-  O536  1  0.08686791  0.67474421  0.69034080  1
  O2-  O537  1  0.08292188  0.92031056  0.02786154  1
  O2-  O538  1  0.07257585  0.91216027  0.34305396  1
  O2-  O539  1  0.09618023  0.92911636  0.68332700  1
  O2-  O540  1  0.32109114  0.13853349  0.02430982  1
  O2-  O541  1  0.32448877  0.17929794  0.32128632  1
  O2-  O542  1  0.33670587  0.16108878  0.69925557  1
  O2-  O543  1  0.33422207  0.43247261  0.01365141  1
  O2-  O544  1  0.32693737  0.42271873  0.35044078  1
  O2-  O545  1  0.34058251  0.41747664  0.68945473  1
  O2-  O546  1  0.31490008  0.66715990  0.01684180  1
  O2-  O547  1  0.30997772  0.65441809  0.35228232  1
  O2-  O548  1  0.34527903  0.67148552  0.69921389  1
  O2-  O549  1  0.37234122  0.91504784  0.00195741  1
  O2-  O550  1  0.32740993  0.93110530  0.36179454  1
  O2-  O551  1  0.33336972  0.91155098  0.69292546  1
  O2-  O552  1  0.56197163  0.21074833  0.04769259  1
  O2-  O553  1  0.59083444  0.16736728  0.35448878  1
  O2-  O554  1  0.59027959  0.16612561  0.69365928  1
  O2-  O555  1  0.54730389  0.35112153  0.03690487  1
  O2-  O556  1  0.65289979  0.48668686  0.34330443  1
  O2-  O557  1  0.54129054  0.31831764  0.70856107  1
  O2-  O558  1  0.58826901  0.69126840  0.01560239  1
  O2-  O559  1  0.58398899  0.63114521  0.36737425  1
  O2-  O560  1  0.60146124  0.68180442  0.67914385  1
  O2-  O561  1  0.58340762  0.94852564  0.02522372  1
  O2-  O562  1  0.57578313  0.90460878  0.35685744  1
  O2-  O563  1  0.58459566  0.92133904  0.69397121  1
  O2-  O564  1  0.83568624  0.16388038  0.03069742  1
  O2-  O565  1  0.82914769  0.16390151  0.35387609  1
  O2-  O566  1  0.82943492  0.16271975  0.69017116  1
  O2-  O567  1  0.81601105  0.43694761  0.03617987  1
  O2-  O568  1  0.80322843  0.39755115  0.35330681  1
  O2-  O569  1  0.82849276  0.41590551  0.69465457  1
  O2-  O570  1  0.82763538  0.65014278  0.01671690  1
  O2-  O571  1  0.82492729  0.64997823  0.35135678  1
  O2-  O572  1  0.86663188  0.68028451  0.69007392  1
  O2-  O573  1  0.83526048  0.91973934  0.00479692  1
  O2-  O574  1  0.84709908  0.92253671  0.34640286  1
  O2-  O575  1  0.83757961  0.92935856  0.68683534  1
