# generated using pymatgen
data_H2O
_symmetry_space_group_name_H-M   'P 1'
_cell_length_a   17.99446366
_cell_length_b   17.99493639
_cell_length_c   22.01273466
_cell_angle_alpha   90.02273780
_cell_angle_beta   90.00202146
_cell_angle_gamma   120.00512521
_symmetry_Int_Tables_number   1
_chemical_formula_structural   H2O
_chemical_formula_sum   'H384 O192'
_cell_volume   6172.64600668
_cell_formula_units_Z   192
loop_
 _symmetry_equiv_pos_site_id
 _symmetry_equiv_pos_as_xyz
  1  'x, y, z'
loop_
 _atom_type_symbol
 _atom_type_oxidation_number
  H+  1.0
  O2-  -2.0
loop_
 _atom_site_type_symbol
 _atom_site_label
 _atom_site_symmetry_multiplicity
 _atom_site_fract_x
 _atom_site_fract_y
 _atom_site_fract_z
 _atom_site_occupancy
  H+  H0  1  1.02079292  0.89569252  0.34004039  1
  H+  H1  1  0.21661044  0.10816305  0.50792872  1
  H+  H2  1  0.87453835  0.51654333  0.49403732  1
  H+  H3  1  0.88214354  0.26918196  0.83535008  1
  H+  H4  1  0.90710384  0.61118644  0.65934678  1
  H+  H5  1  0.59595346  0.15832446  0.73823214  1
  H+  H6  1  0.92674727  0.35280415  0.60133582  1
  H+  H7  1  0.09877585  0.65966514  0.14362998  1
  H+  H8  1  0.53448888  0.38019973  0.33262675  1
  H+  H9  1  0.61351348  0.62663290  0.50436701  1
  H+  H10  1  0.39276092  0.01364723  0.85032393  1
  H+  H11  1  0.38288566  0.61495486  0.32907552  1
  H+  H12  1  0.73657857  0.86180895  0.81457551  1
  H+  H13  1  0.46109212  0.81326724  0.99506278  1
  H+  H14  1  0.12130817  0.88054623  0.83821385  1
  H+  H15  1  0.63952559  0.36578161  0.17428472  1
  H+  H16  1  0.27948418  0.38318425  0.50140323  1
  H+  H17  1  0.27704200  0.12665939  0.33987483  1
  H+  H18  1  0.87996777  0.26026094  0.67525611  1
  H+  H19  1  0.76021208  0.13939467  0.17481382  1
  H+  H20  1  0.14421061  0.76887787  0.83917229  1
  H+  H21  1  0.87833623  0.86817046  0.32590442  1
  H+  H22  1  0.27536529  0.38566388  0.13573204  1
  H+  H23  1  0.60826485  0.87399192  0.68006456  1
  H+  H24  1  -0.01747539  0.85938841  0.66570097  1
  H+  H25  1  0.64205597  0.86055330  0.81905350  1
  H+  H26  1  0.61616507  0.09942685  0.34118072  1
  H+  H27  1  0.14216801  0.77105047  0.66491406  1
  H+  H28  1  0.20800397  0.39319127  0.86497187  1
  H+  H29  1  0.89388104  0.11451753  0.50091644  1
  H+  H30  1  0.15660458  0.60572127  0.20250328  1
  H+  H31  1  0.15865567  0.30753931  0.66867742  1
  H+  H32  1  0.11238241  0.63119896  0.83759505  1
  H+  H33  1  0.63632505  0.52896501  0.83994228  1
  H+  H34  1  0.13406197  0.59910603  0.50138993  1
  H+  H35  1  0.66346183  0.81576437  0.72707030  1
  H+  H36  1  0.89306643  0.63019789  0.33010151  1
  H+  H37  1  -0.01779553  0.06322307  0.64993098  1
  H+  H38  1  0.14716159  0.10619642  0.67597225  1
  H+  H39  1  0.11513368  0.24983299  0.84310043  1
  H+  H40  1  0.96995098  0.61640944  0.98680394  1
  H+  H41  1  0.73621199  0.36228602  0.00462548  1
  H+  H42  1  0.68847755  0.34977017  0.94183048  1
  H+  H43  1  -0.00970988  0.38879763  0.66044418  1
  H+  H44  1  0.37639364  0.24175746  0.67812679  1
  H+  H45  1  0.23699435  0.84981329  0.98961090  1
  H+  H46  1  0.36101977  0.73720219  0.00325215  1
  H+  H47  1  0.38507457  0.76298122  0.83788713  1
  H+  H48  1  0.64399805  0.09252283  0.65183951  1
  H+  H49  1  0.53356036  0.38977420  0.82899989  1
  H+  H50  1  0.87364391  0.87627062  0.66959302  1
  H+  H51  1  0.36669210  0.85578038  0.33122133  1
  H+  H52  1  0.37719773  0.95952244  0.00407998  1
  H+  H53  1  0.91075088  0.09656814  0.25567293  1
  H+  H54  1  0.52845808  0.38865184  0.15936623  1
  H+  H55  1  0.37367281  0.86704293  0.17115236  1
  H+  H56  1  0.27456799  0.14463093  0.16186348  1
  H+  H57  1  0.62198569  0.64023713  0.83343216  1
  H+  H58  1  0.53392618  0.38749920  0.00479726  1
  H+  H59  1  0.83308970  0.86526054  0.00518454  1
  H+  H60  1  0.12489006  0.90581331  0.16979927  1
  H+  H61  1  0.58575352  0.40510438  0.43483643  1
  H+  H62  1  0.36293050  0.98616213  0.15904520  1
  H+  H63  1  0.86986019  1.00467256  0.32688541  1
  H+  H64  1  0.42340763  0.62901308  0.98408957  1
  H+  H65  1  0.51274743  0.62249977  0.16013578  1
  H+  H66  1  0.38285752  0.61519509  0.16949020  1
  H+  H67  1  0.10126495  0.87060149  0.67253438  1
  H+  H68  1  0.61546624  0.86396796  0.97709011  1
  H+  H69  1  0.62743802  0.74078171  0.81739731  1
  H+  H70  1  0.88198090  1.02039493  0.50923812  1
  H+  H71  1  0.96559339  0.17093512  0.30307209  1
  H+  H72  1  0.72713841  0.89041160  0.30370749  1
  H+  H73  1  0.09121569  0.50769588  0.67991198  1
  H+  H74  1  0.49335497  0.64034258  0.67096409  1
  H+  H75  1  0.86982994  0.72580403  0.67479134  1
  H+  H76  1  0.43434361  0.32465284  0.59557746  1
  H+  H77  1  0.52492331  0.63060643  0.34495330  1
  H+  H78  1  0.02494011  0.11271350  0.35562924  1
  H+  H79  1  0.49867192  0.89458034  0.15583690  1
  H+  H80  1  0.83136269  0.10877000  0.65446754  1
  H+  H81  1  0.78627949  0.87544191  0.16473331  1
  H+  H82  1  0.22525290  0.09179077  0.66926470  1
  H+  H83  1  0.78245665  0.19380156  0.68404075  1
  H+  H84  1  0.96476136  0.32891043  0.21262318  1
  H+  H85  1  0.62257083  0.13240512  0.82721861  1
  H+  H86  1  0.60155260  0.64291911  0.61304187  1
  H+  H87  1  0.35806006  0.47597782  0.15625044  1
  H+  H88  1  0.23767442  0.40170876  0.99556746  1
  H+  H89  1  0.52514598  0.94588228  -0.00728886  1
  H+  H90  1  0.39538576  0.27836480  0.99476238  1
  H+  H91  1  0.28576854  0.63967691  0.66896989  1
  H+  H92  1  -0.03861522  0.86610579  -0.00181850  1
  H+  H93  1  0.08799688  0.44434459  0.73188317  1
  H+  H94  1  0.50392432  0.85103924  0.48514038  1
  H+  H95  1  0.34017577  0.71210137  0.34613664  1
  H+  H96  1  0.64241581  0.25380959  0.67391438  1
  H+  H97  1  0.01043912  0.65440887  0.15733821  1
  H+  H98  1  0.02862204  0.40783732  0.14930771  1
  H+  H99  1  0.49595719  0.35702516  0.65595450  1
  H+  H100  1  0.38952464  0.02580926  0.67098651  1
  H+  H101  1  0.59938970  0.35553362  0.49090962  1
  H+  H102  1  0.10489980  0.97514257  0.00855974  1
  H+  H103  1  0.08437595  0.24994283  0.32915638  1
  H+  H104  1  -0.02085301  0.37784456  0.35132139  1
  H+  H105  1  0.84719847  0.13643087  0.16522921  1
  H+  H106  1  0.12674451  0.72614423  0.48998827  1
  H+  H107  1  0.53836378  0.13357225  0.67791988  1
  H+  H108  1  0.31778419  0.66404685  0.09980868  1
  H+  H109  1  0.14068313  0.27286628  0.51215000  1
  H+  H110  1  0.72823636  0.36508294  0.17532558  1
  H+  H111  1  0.88055476  0.10520090  0.83251680  1
  H+  H112  1  0.36782679  0.12863594  0.34252390  1
  H+  H113  1  0.16419295  0.09893923  0.82435444  1
  H+  H114  1  0.68267068  0.24101584  0.53308874  1
  H+  H115  1  0.86496552  0.64318215  0.00324438  1
  H+  H116  1  0.39477903  0.11903062  0.99591376  1
  H+  H117  1  0.86534253  0.63143025  0.82787745  1
  H+  H118  1  0.61105946  0.23233759  0.15836092  1
  H+  H119  1  0.38359440  0.25136470  0.32503414  1
  H+  H120  1  0.10792668  0.46919107  0.49190692  1
  H+  H121  1  0.13540722  0.01658889  0.32823509  1
  H+  H122  1  0.85967858  0.37962772  0.82131327  1
  H+  H123  1  0.40367400  0.36279022  0.83663813  1
  H+  H124  1  0.38022372  0.40061180  0.00084151  1
  H+  H125  1  0.36289516  0.88423377  0.49716069  1
  H+  H126  1  0.85772928  0.95933043  0.66540316  1
  H+  H127  1  0.77814268  0.63556338  0.82885510  1
  H+  H128  1  0.00491050  0.37727041  -0.01405516  1
  H+  H129  1  0.89927447  0.77551140  0.17559697  1
  H+  H130  1  0.66349293  0.04687953  0.99207548  1
  H+  H131  1  0.60785110  0.70775448  0.15878901  1
  H+  H132  1  0.35697201  0.72738541  0.16004660  1
  H+  H133  1  0.64786521  1.04756336  0.48642663  1
  H+  H134  1  0.30196039  0.38604184  0.80931804  1
  H+  H135  1  0.16376067  0.32482179  0.06708632  1
  H+  H136  1  0.12502518  0.47753285  0.16405826  1
  H+  H137  1  0.11494068  0.49901290  0.33972031  1
  H+  H138  1  0.21828737  0.59346624  0.50918767  1
  H+  H139  1  0.37666856  0.76583439  0.51338256  1
  H+  H140  1  0.13143362  0.52323028  0.84666550  1
  H+  H141  1  0.86286192  0.73247163  0.00514230  1
  H+  H142  1  0.58797751  0.90078269  0.14503427  1
  H+  H143  1  0.73685870  0.61657147  0.99623671  1
  H+  H144  1  0.89017693  0.86052973  0.83814133  1
  H+  H145  1  0.69258688  0.35751640  0.26610201  1
  H+  H146  1  0.78345464  0.33502163  0.33254853  1
  H+  H147  1  0.60164099  -0.04218061  0.66638661  1
  H+  H148  1  0.48151454  0.35299790  0.50386504  1
  H+  H149  1  0.36292275  0.63274654  0.50736135  1
  H+  H150  1  0.53778888  0.63069055  0.00560995  1
  H+  H151  1  0.86442647  0.97240754  0.81995869  1
  H+  H152  1  0.91246591  0.23144535  0.99445705  1
  H+  H153  1  0.37028269  0.86694450  1.01055949  1
  H+  H154  1  0.09913196  0.63466759  1.00136040  1
  H+  H155  1  0.14870031  0.00615927  0.84497713  1
  H+  H156  1  0.89014164  0.51751626  0.83410673  1
  H+  H157  1  0.27937025  0.88147459  0.82958984  1
  H+  H158  1  0.30203275  0.39887599  0.66680266  1
  H+  H159  1  0.63276599  0.50732965  0.50387752  1
  H+  H160  1  0.88022835  0.88961923  0.16375815  1
  H+  H161  1  0.47456212  0.60863563  0.52217759  1
  H+  H162  1  -0.01296801  0.04073868  0.01417868  1
  H+  H163  1  0.88774785  0.53111920  0.18028776  1
  H+  H164  1  0.63284170  0.22682539  0.35017066  1
  H+  H165  1  0.61576391  0.22834415  1.00548987  1
  H+  H166  1  0.64483668  0.52194109  0.17164529  1
  H+  H167  1  0.68551862  0.84102875  0.99163618  1
  H+  H168  1  0.88140556  0.61828605  0.17469780  1
  H+  H169  1  0.29121900  0.12957870  0.83747757  1
  H+  H170  1  0.74533770  0.46678547  0.88982611  1
  H+  H171  1  0.13266443  0.35103536  0.12541367  1
  H+  H172  1  0.75075197  0.51599344  0.60863901  1
  H+  H173  1  0.51092521  0.06069852  0.54651883  1
  H+  H174  1  0.13552319  0.10252699  0.98975065  1
  H+  H175  1  0.94673960  0.23523978  0.44862007  1
  H+  H176  1  0.48511854  0.11878128  0.32962564  1
  H+  H177  1  0.57106276  0.18316310  0.40541468  1
  H+  H178  1  0.64216668  0.01790178  0.84150385  1
  H+  H179  1  0.38284604  0.38266552  0.66411455  1
  H+  H180  1  0.15817117  0.39550998  0.66087449  1
  H+  H181  1  0.76365286  0.59070588  0.65217628  1
  H+  H182  1  0.10231737  0.61600528  0.33708865  1
  H+  H183  1  0.42723058  0.08497965  -0.06752851  1
  H+  H184  1  0.63003600  0.87088101  0.30610045  1
  H+  H185  1  0.62254600  0.38535626  0.00831593  1
  H+  H186  1  0.40165651  0.27254887  0.84551462  1
  H+  H187  1  0.58032011  0.65591755  0.44799309  1
  H+  H188  1  0.39883788  0.53573382  0.32952459  1
  H+  H189  1  0.01085900  0.39057435  0.82171693  1
  H+  H190  1  0.88588877  0.28840783  0.51514780  1
  H+  H191  1  0.63706599  0.34844819  0.67547656  1
  H+  H192  1  0.39129514  0.36680056  0.17175168  1
  H+  H193  1  0.12255524  0.52598511  0.99392071  1
  H+  H194  1  0.77691584  0.64122462  0.15892185  1
  H+  H195  1  0.49658158  0.12739213  -0.00232675  1
  H+  H196  1  0.97135729  0.15486388  0.99577186  1
  H+  H197  1  0.52805947  0.64041203  0.82627485  1
  H+  H198  1  0.64025959  0.46062922  0.67087891  1
  H+  H199  1  0.76959788  0.63235787  0.48690395  1
  H+  H200  1  0.60544834  0.04629192  0.48822801  1
  H+  H201  1  0.47466925  0.12040547  0.17195551  1
  H+  H202  1  0.60584008  0.61483032  0.34702911  1
  H+  H203  1  0.10208754  0.15884905  0.85669086  1
  H+  H204  1  0.64531788  0.52473707  0.32432744  1
  H+  H205  1  0.36404025  0.23275447  0.15892295  1
  H+  H206  1  0.02987502  0.89685146  0.17276590  1
  H+  H207  1  1.03383398  0.88613898  0.84091681  1
  H+  H208  1  0.36854951  0.88125119  0.83070665  1
  H+  H209  1  0.88139652  0.32534248  0.27767011  1
  H+  H210  1  0.30907450  0.60969340  0.02215013  1
  H+  H211  1  0.22892577  0.87773403  0.16801641  1
  H+  H212  1  0.90909573  0.83291563  0.93534880  1
  H+  H213  1  1.02138348  0.87663148  0.49352983  1
  H+  H214  1  0.09739607  0.39041712  0.83181991  1
  H+  H215  1  0.89123486  0.77249820  0.84219568  1
  H+  H216  1  0.88446265  0.76380719  0.50975033  1
  H+  H217  1  0.39751391  0.10627782  0.84812092  1
  H+  H218  1  0.87242575  0.26199333  0.18499542  1
  H+  H219  1  0.22427299  0.86437938  0.66649023  1
  H+  H220  1  0.90450572  0.56845784  0.55771689  1
  H+  H221  1  0.26737275  0.62832084  0.83038339  1
  H+  H222  1  0.97815351  0.37087585  0.50995792  1
  H+  H223  1  0.40923990  0.53288220  0.98833742  1
  H+  H224  1  0.08721096  0.65860688  0.77598095  1
  H+  H225  1  0.61753736  0.02971742  0.17771107  1
  H+  H226  1  0.24193646  0.85107778  0.32331834  1
  H+  H227  1  0.53435363  0.13132153  0.82748028  1
  H+  H228  1  0.88713494  0.85366324  0.51579174  1
  H+  H229  1  0.85916500  0.47556933  0.66792171  1
  H+  H230  1  0.23269486  0.34170067  0.36934329  1
  H+  H231  1  0.62667365  0.61987715  0.01245992  1
  H+  H232  1  0.84187107  0.13299964  0.33003827  1
  H+  H233  1  0.64926373  0.52205141  0.99580035  1
  H+  H234  1  0.63630562  0.60548024  0.17266948  1
  H+  H235  1  0.46845295  0.85429622  0.66511637  1
  H+  H236  1  0.76897547  0.87412205  0.50098885  1
  H+  H237  1  0.07008027  0.16489518  0.68532207  1
  H+  H238  1  0.28079690  0.13585042  1.00360346  1
  H+  H239  1  0.12826630  0.11274960  0.17981970  1
  H+  H240  1  0.26263570  0.61797386  0.35638462  1
  H+  H241  1  0.14298922  0.10929793  0.33364033  1
  H+  H242  1  0.13429756  0.79333544  0.16689795  1
  H+  H243  1  0.88141549  0.01923747  0.17063219  1
  H+  H244  1  0.39456969  0.35761617  0.51399673  1
  H+  H245  1  0.89649255  0.33517504  0.98394210  1
  H+  H246  1  0.73538513  0.35601754  0.66866461  1
  H+  H247  1  0.67854199  0.13942282  -0.01075812  1
  H+  H248  1  0.77989948  0.63824607  0.33785809  1
  H+  H249  1  0.36863857  0.98255513  0.34782887  1
  H+  H250  1  0.86696915  0.39300804  0.17200297  1
  H+  H251  1  0.96789774  0.07097684  0.68055352  1
  H+  H252  1  0.24456947  0.61180316  0.18280070  1
  H+  H253  1  0.40369926  0.52563142  0.82725342  1
  H+  H254  1  0.67701851  0.56381103  0.56198819  1
  H+  H255  1  0.35597303  0.21781284  0.49916141  1
  H+  H256  1  0.20871068  0.62040569  0.00246861  1
  H+  H257  1  0.14147365  0.39818998  1.00016045  1
  H+  H258  1  0.33824495  0.92147881  0.73819967  1
  H+  H259  1  0.86719266  0.39223555  0.47911618  1
  H+  H260  1  0.10384987  -0.03985333  0.67902527  1
  H+  H261  1  0.23115598  0.87044415  0.51078902  1
  H+  H262  1  0.87998480  0.77919988  0.33139849  1
  H+  H263  1  0.43770415  0.42618452  0.36839550  1
  H+  H264  1  0.12801646  0.01960694  0.50391349  1
  H+  H265  1  0.63888414  0.76282144  0.51516420  1
  H+  H266  1  0.38724918  0.51971598  0.52630536  1
  H+  H267  1  0.59386686  0.85229782  0.48368801  1
  H+  H268  1  0.86605726  0.49528532  0.01150941  1
  H+  H269  1  0.73510192  0.85355706  0.67831311  1
  H+  H270  1  0.12270387  0.71223133  0.32654961  1
  H+  H271  1  0.35555417  0.62909752  0.81462783  1
  H+  H272  1  0.50352156  0.86388645  0.32960730  1
  H+  H273  1  0.36600317  0.89595061  0.67612270  1
  H+  H274  1  0.22097738  0.37631774  0.37075534  1
  H+  H275  1  0.77443816  0.13425284  0.82531378  1
  H+  H276  1  0.08353643  0.15402652  0.41424952  1
  H+  H277  1  0.97768018  0.60787981  0.84084208  1
  H+  H278  1  0.06323924  0.12941529  0.10075919  1
  H+  H279  1  0.37899556  0.97864827  0.50193345  1
  H+  H280  1  0.63125512  0.39898808  0.33578631  1
  H+  H281  1  0.96626991  0.11104200  0.16787634  1
  H+  H282  1  0.70758763  0.05930186  0.62625105  1
  H+  H283  1  0.50865617  0.16504485  0.49672700  1
  H+  H284  1  0.66194221  0.84216947  0.14583111  1
  H+  H285  1  0.98894326  0.62474535  0.32518230  1
  H+  H286  1  0.48002221  0.52177483  0.38974783  1
  H+  H287  1  0.39847187  0.11874201  0.66363588  1
  H+  H288  1  0.04985340  0.31587396  0.32577836  1
  H+  H289  1  0.66762968  0.83047430  0.21936076  1
  H+  H290  1  0.33420717  0.66099227  0.44667207  1
  H+  H291  1  0.42793315  0.33663775  0.93519198  1
  H+  H292  1  0.33739118  0.16566658  0.06433001  1
  H+  H293  1  0.36399283  0.41854040  0.75229810  1
  H+  H294  1  0.14089145  0.77186067  -0.01489679  1
  H+  H295  1  0.35088346  0.17023874  0.77949259  1
  H+  H296  1  0.36901150  0.77928620  0.66566076  1
  H+  H297  1  0.59604961  0.41490953  0.73517295  1
  H+  H298  1  0.83742009  0.17623566  0.76789849  1
  H+  H299  1  0.41261468  0.83287054  0.56849020  1
  H+  H300  1  0.84047736  0.42703443  0.11312839  1
  H+  H301  1  0.84892069  0.26089002  0.33333140  1
  H+  H302  1  0.68224937  0.08500979  0.89785635  1
  H+  H303  1  0.57985123  0.91275302  0.76868201  1
  H+  H304  1  0.81365081  0.90328236  0.06291312  1
  H+  H305  1  0.33577831  0.92429511  0.40885461  1
  H+  H306  1  0.75456084  0.40277971  0.84666345  1
  H+  H307  1  0.10719417  0.37889455  0.49220131  1
  H+  H308  1  0.89372697  0.42837408  0.02777800  1
  H+  H309  1  0.82896697  0.88322392  0.44509527  1
  H+  H310  1  0.58185088  0.64398535  0.07702991  1
  H+  H311  1  0.66903683  0.58599507  0.90134176  1
  H+  H312  1  0.12587860  0.01280501  0.18020428  1
  H+  H313  1  0.42705331  0.58334145  0.88753768  1
  H+  H314  1  0.04978848  0.39832286  0.40472271  1
  H+  H315  1  0.33708190  0.92224032  0.10047829  1
  H+  H316  1  0.16353426  0.58444333  0.90682883  1
  H+  H317  1  0.63131860  0.41016549  0.83328349  1
  H+  H318  1  0.29031423  0.21040952  0.71201505  1
  H+  H319  1  0.63455755  0.71426345  0.66265004  1
  H+  H320  1  0.64389330  0.08022369  0.24140739  1
  H+  H321  1  0.58870457  0.41636095  0.10018383  1
  H+  H322  1  0.42345234  0.61456873  0.62289146  1
  H+  H323  1  0.16719345  0.83303577  0.56692727  1
  H+  H324  1  0.17339284  0.34271145  0.56623397  1
  H+  H325  1  0.98050879  0.58136607  0.65242953  1
  H+  H326  1  0.83625854  0.66702735  0.39969361  1
  H+  H327  1  0.69121510  0.16518972  0.56072842  1
  H+  H328  1  0.84024538  0.66440200  0.73338875  1
  H+  H329  1  0.86522325  0.38986266  0.66997312  1
  H+  H330  1  0.29787692  0.78784563  0.29217901  1
  H+  H331  1  0.11847837  0.19640307  0.74693962  1
  H+  H332  1  0.29774127  0.67161816  0.73635930  1
  H+  H333  1  1.02587513  0.13625759  0.50597440  1
  H+  H334  1  0.38539646  0.11897460  0.17557792  1
  H+  H335  1  0.56273830  0.94147145  0.05728391  1
  H+  H336  1  0.52631432  0.87885917  0.83039209  1
  H+  H337  1  0.16150600  0.08345381  0.24585013  1
  H+  H338  1  0.41853983  0.32966486  0.22941947  1
  H+  H339  1  0.79121568  0.38739709  0.44016169  1
  H+  H340  1  0.17789457  0.67344275  0.69695638  1
  H+  H341  1  0.83963576  0.06527992  0.59433907  1
  H+  H342  1  0.08147654  0.91843868  0.39784561  1
  H+  H343  1  0.35621077  0.43495142  0.06021237  1
  H+  H344  1  0.84306690  0.91106244  0.76144561  1
  H+  H345  1  0.60642552  0.14189160  0.16166860  1
  H+  H346  1  0.83421074  0.13819082  0.00012324  1
  H+  H347  1  0.07944188  0.43021535  0.05450367  1
  H+  H348  1  0.32673326  0.15954154  0.44079559  1
  H+  H349  1  0.91974011  0.59798055  0.26480440  1
  H+  H350  1  -0.03038253  0.10964313  0.83137580  1
  H+  H351  1  0.42358071  0.08552478  0.27056540  1
  H+  H352  1  0.85605916  0.62812734  0.49074347  1
  H+  H353  1  0.81728343  0.95552053  0.38359133  1
  H+  H354  1  0.39783699  0.83159107  0.22991334  1
  H+  H355  1  0.40989194  0.58365131  0.22936090  1
  H+  H356  1  0.19197004  0.82408075  0.25898149  1
  H+  H357  1  0.83039297  0.41258459  0.76162747  1
  H+  H358  1  0.90749018  0.57757560  0.92908636  1
  H+  H359  1  0.11325569  0.13086649  0.50252976  1
  H+  H360  1  0.17032225  0.55875260  0.28447241  1
  H+  H361  1  0.92259361  0.33392475  0.89171767  1
  H+  H362  1  0.92198216  0.83255865  0.23700304  1
  H+  H363  1  0.09353528  0.66848759  0.43077456  1
  H+  H364  1  0.91925311  0.82745049  0.60558234  1
  H+  H365  1  0.44529821  0.07893819  0.58058123  1
  H+  H366  1  0.18125190  0.82972617  0.89784241  1
  H+  H367  1  0.41163776  0.81216835  0.90104524  1
  H+  H368  1  0.06586654  0.67495592  0.05447267  1
  H+  H369  1  0.83813043  0.67231463  0.09986544  1
  H+  H370  1  0.74760791  0.12111746  0.34297766  1
  H+  H371  1  0.85298387  0.17852382  0.42417975  1
  H+  H372  1  0.11035352  0.21634783  0.13633161  1
  H+  H373  1  0.11226916  0.88166422  0.49149651  1
  H+  H374  1  0.66597298  0.83043524  0.56942793  1
  H+  H375  1  0.35772236  0.32122332  0.31460219  1
  H+  H376  1  0.67346257  0.58568845  0.26609795  1
  H+  H377  1  0.17600048  0.08287718  0.93149501  1
  H+  H378  1  0.61063463  1.00719527  0.33232931  1
  H+  H379  1  0.35953521  0.42789187  0.45381627  1
  H+  H380  1  0.07302229  0.92958343  0.07223626  1
  H+  H381  1  0.55824828  0.88098619  0.39036287  1
  H+  H382  1  0.58182596  0.16959006  0.06598150  1
  H+  H383  1  0.15440200  0.34675284  0.92277056  1
  O2-  O384  1  0.07782867  0.15227560  0.14283465  1
  O2-  O385  1  0.08453197  0.16626491  0.48867490  1
  O2-  O386  1  0.09443843  0.19168965  0.82448896  1
  O2-  O387  1  0.08797715  0.42245908  0.14214205  1
  O2-  O388  1  0.07320826  0.40550125  0.47806292  1
  O2-  O389  1  0.07414736  0.42390046  0.81206668  1
  O2-  O390  1  0.06776108  0.69029881  0.13671590  1
  O2-  O391  1  0.10317079  0.66697906  0.47446304  1
  O2-  O392  1  0.08068943  0.65969444  0.82103527  1
  O2-  O393  1  0.09153189  0.93610134  0.15887817  1
  O2-  O394  1  0.07962592  0.90897380  0.47524625  1
  O2-  O395  1  0.09596502  0.91813697  0.83127900  1
  O2-  O396  1  0.33299108  0.17120088  0.14481554  1
  O2-  O397  1  0.31962658  0.15765555  0.48522248  1
  O2-  O398  1  0.35324480  0.16450024  0.82442465  1
  O2-  O399  1  0.33937996  0.41878359  0.13722393  1
  O2-  O400  1  0.34353340  0.41463195  0.49719476  1
  O2-  O401  1  0.36295078  0.41985664  0.80000316  1
  O2-  O402  1  0.32852433  0.66606691  0.14767189  1
  O2-  O403  1  0.33200029  0.66217202  0.49169260  1
  O2-  O404  1  0.32367567  0.66002089  0.80812694  1
  O2-  O405  1  0.33060557  0.92454618  0.14544926  1
  O2-  O406  1  0.33863339  0.92149474  0.48437197  1
  O2-  O407  1  0.34226954  0.91603807  0.81746507  1
  O2-  O408  1  0.57895721  0.17244971  0.14169306  1
  O2-  O409  1  0.53931552  0.21267498  0.46689543  1
  O2-  O410  1  0.59243073  0.16149976  0.80983031  1
  O2-  O411  1  0.58952282  0.41774891  0.14560698  1
  O2-  O412  1  0.58382571  0.40256263  0.47968076  1
  O2-  O413  1  0.59287323  0.42705924  0.81221955  1
  O2-  O414  1  0.57337733  0.64647347  0.14457879  1
  O2-  O415  1  0.58613261  0.66161958  0.49297006  1
  O2-  O416  1  0.59167307  0.67027469  0.81537846  1
  O2-  O417  1  0.55711343  0.93103037  0.13601078  1
  O2-  O418  1  0.55110756  0.85650109  0.45838933  1
  O2-  O419  1  0.58595876  0.91218354  0.81399286  1
  O2-  O420  1  0.82055735  0.17276367  0.16056469  1
  O2-  O421  1  0.88845025  0.19546590  0.46221728  1
  O2-  O422  1  0.83629790  0.16804418  0.81276324  1
  O2-  O423  1  0.83827542  0.42493131  0.15837726  1
  O2-  O424  1  0.85043083  0.42588704  0.45247368  1
  O2-  O425  1  0.83269494  0.41416331  0.80717077  1
  O2-  O426  1  0.83849797  0.67152644  0.14553876  1
  O2-  O427  1  0.83063826  0.66458556  0.47383689  1
  O2-  O428  1  0.83783437  0.66466057  0.81327042  1
  O2-  O429  1  0.84544932  0.91594882  0.15080094  1
  O2-  O430  1  0.83044531  0.90509156  0.48584165  1
  O2-  O431  1  0.83655603  0.91011024  0.80672085  1
  O2-  O432  1  0.15905832  0.08256955  0.19730768  1
  O2-  O433  1  0.15438293  0.07915869  0.51944529  1
  O2-  O434  1  0.18629306  0.07426766  0.85369092  1
  O2-  O435  1  0.16303844  0.32047280  0.11260333  1
  O2-  O436  1  0.17169496  0.33593688  0.52125837  1
  O2-  O437  1  0.15140971  0.34627359  0.87585333  1
  O2-  O438  1  0.18638502  0.57316208  0.20443005  1
  O2-  O439  1  0.15562785  0.56068325  0.51629200  1
  O2-  O440  1  0.16780431  0.58377869  0.86105347  1
  O2-  O441  1  0.16980522  0.85034300  0.18663529  1
  O2-  O442  1  0.16933086  0.83601701  0.52180964  1
  O2-  O443  1  0.17927296  0.83030156  0.85149049  1
  O2-  O444  1  0.41518356  0.08756809  0.18891940  1
  O2-  O445  1  0.46354324  0.07125582  0.53905503  1
  O2-  O446  1  0.42427722  0.07430052  0.86711678  1
  O2-  O447  1  0.42124400  0.33502567  0.18420103  1
  O2-  O448  1  0.42338384  0.32389605  0.52382594  1
  O2-  O449  1  0.43235556  0.33449010  0.85765310  1
  O2-  O450  1  0.41058021  0.58171897  0.18392299  1
  O2-  O451  1  0.41449335  0.58187812  0.53664329  1
  O2-  O452  1  0.42787880  0.58576916  0.84246635  1
  O2-  O453  1  0.40486096  0.83652448  0.18484523  1
  O2-  O454  1  0.40965068  0.82887169  0.52324290  1
  O2-  O455  1  0.41792231  0.82159373  0.85629791  1
  O2-  O456  1  0.64951977  0.08767150  0.19620838  1
  O2-  O457  1  0.72301521  0.22696974  0.55403602  1
  O2-  O458  1  0.67394495  0.08000077  0.85277660  1
  O2-  O459  1  0.66779657  0.33377265  0.19029370  1
  O2-  O460  1  0.61125845  0.27783971  0.50236988  1
  O2-  O461  1  0.71243287  0.40764082  0.87532455  1
  O2-  O462  1  0.67379697  0.58272917  0.18664660  1
  O2-  O463  1  0.66148379  0.56807741  0.51927915  1
  O2-  O464  1  0.66788883  0.58941355  0.85611252  1
  O2-  O465  1  0.67323809  0.80995366  0.17634229  1
  O2-  O466  1  0.66963763  0.82623436  0.52542392  1
  O2-  O467  1  0.67101174  0.82615424  0.81031013  1
  O2-  O468  1  0.90616236  0.08118369  0.18257272  1
  O2-  O469  1  0.90773835  0.07814255  0.52753356  1
  O2-  O470  1  0.90944458  0.07184192  0.84267070  1
  O2-  O471  1  0.91033729  0.32488921  0.20152483  1
  O2-  O472  1  0.91874876  0.34915113  0.52706603  1
  O2-  O473  1  0.91085573  0.33184829  0.84677689  1
  O2-  O474  1  0.91617961  0.59315641  0.19261844  1
  O2-  O475  1  0.88815164  0.57090937  0.51523691  1
  O2-  O476  1  0.91511675  0.57575266  0.85301090  1
  O2-  O477  1  0.93144122  0.83539614  0.19195170  1
  O2-  O478  1  0.91757597  0.82285289  0.52773800  1
  O2-  O479  1  0.91954058  0.83228792  0.85807757  1
  O2-  O480  1  0.16935135  0.07909968  0.31173447  1
  O2-  O481  1  0.16313683  0.06374583  0.66353129  1
  O2-  O482  1  0.17775312  0.08578830  0.97684446  1
  O2-  O483  1  0.04985888  0.26690444  0.30426101  1
  O2-  O484  1  0.18586410  0.36297783  0.64675808  1
  O2-  O485  1  0.17508044  0.36392698  0.99222300  1
  O2-  O486  1  0.15638258  0.56020905  0.32794279  1
  O2-  O487  1  0.06486229  0.58683980  0.66932587  1
  O2-  O488  1  0.15085574  0.59010284  0.98126993  1
  O2-  O489  1  0.20563182  0.80144801  0.29607141  1
  O2-  O490  1  0.16585915  0.82994347  0.64878171  1
  O2-  O491  1  0.18141365  0.83018408  0.96948032  1
  O2-  O492  1  0.42401537  0.08450524  0.31572370  1
  O2-  O493  1  0.42724806  0.08627936  0.65458378  1
  O2-  O494  1  0.43056981  0.09229453  0.98088380  1
  O2-  O495  1  0.40658545  0.31263294  0.30818072  1
  O2-  O496  1  0.43531234  0.32668058  0.64190253  1
  O2-  O497  1  0.42795113  0.33898625  0.98076166  1
  O2-  O498  1  0.41585610  0.59052485  0.30863137  1
  O2-  O499  1  0.43905417  0.63993717  0.66375629  1
  O2-  O500  1  0.44635494  0.59300690  0.96986714  1
  O2-  O501  1  0.35825807  0.80655231  0.30443301  1
  O2-  O502  1  0.41006961  0.83702592  0.64886845  1
  O2-  O503  1  0.40326813  0.79912650  0.98278402  1
  O2-  O504  1  0.64288272  0.06899056  0.32039646  1
  O2-  O505  1  0.64842767  0.05107057  0.62493873  1
  O2-  O506  1  0.70311105  0.10465136  0.97496030  1
  O2-  O507  1  0.71370436  0.38765336  0.30632643  1
  O2-  O508  1  0.66963737  0.31811468  0.66053373  1
  O2-  O509  1  0.67843918  0.33256640  0.98567779  1
  O2-  O510  1  0.67445377  0.58628900  0.31159785  1
  O2-  O511  1  0.71821860  0.53937220  0.62837394  1
  O2-  O512  1  0.67468875  0.58307332  0.98156586  1
  O2-  O513  1  0.67020263  0.85666386  0.28472568  1
  O2-  O514  1  0.67040699  0.82218285  0.68228969  1
  O2-  O515  1  0.62467244  0.81499187  0.97875485  1
  O2-  O516  1  0.91661246  0.10908202  0.30083412  1
  O2-  O517  1  0.80482493  0.05375221  0.63180652  1
  O2-  O518  1  1.02485976  0.15451111  0.98029226  1
  O2-  O519  1  0.87107063  0.32270474  0.32227257  1
  O2-  O520  1  0.92856188  0.35308478  0.64732590  1
  O2-  O521  1  0.94259751  0.33086761  0.96447724  1
  O2-  O522  1  0.92464022  0.60051435  0.31121064  1
  O2-  O523  1  0.91853281  0.56798946  0.64065553  1
  O2-  O524  1  0.90692584  0.58282825  0.97463526  1
  O2-  O525  1  0.90892899  0.83802060  0.31328345  1
  O2-  O526  1  0.91779526  0.82870115  0.65085949  1
  O2-  O527  1  0.90265999  0.82874983  0.98067214  1
  O2-  O528  1  0.03685300  0.09767362  0.02227989  1
  O2-  O529  1  0.08465121  0.14898035  0.36830556  1
  O2-  O530  1  0.12795770  0.19895948  0.70215674  1
  O2-  O531  1  0.08408857  0.43134006  0.01005860  1
  O2-  O532  1  0.04078053  0.39732363  0.35932463  1
  O2-  O533  1  0.09155357  0.45229582  0.68706754  1
  O2-  O534  1  0.06714702  0.66741379  0.01017145  1
  O2-  O535  1  0.07815055  0.65516791  0.34323901  1
  O2-  O536  1  0.12036004  0.66872244  0.70108261  1
  O2-  O537  1  0.05958251  0.92328235  0.02872561  1
  O2-  O538  1  0.08166210  0.92476858  0.35254294  1
  O2-  O539  1  0.06849529  0.89756524  0.68805290  1
  O2-  O540  1  0.34168045  0.16434907  0.01906362  1
  O2-  O541  1  0.33719788  0.16018149  0.35486093  1
  O2-  O542  1  0.33213238  0.19200665  0.70412391  1
  O2-  O543  1  0.35795690  0.43875281  0.01469814  1
  O2-  O544  1  0.42327086  0.46740181  0.38572293  1
  O2-  O545  1  0.35868143  0.41534401  0.68444675  1
  O2-  O546  1  0.30427029  0.65912216  0.03423166  1
  O2-  O547  1  0.32524918  0.65585252  0.36453219  1
  O2-  O548  1  0.28229099  0.68212884  0.69457511  1
  O2-  O549  1  0.34676829  0.90427881  0.02511444  1
  O2-  O550  1  0.33562787  0.92245639  0.36314160  1
  O2-  O551  1  0.33594800  0.92587757  0.69295399  1
  O2-  O552  1  0.58077060  0.16738844  0.01990392  1
  O2-  O553  1  0.58411209  0.17042949  0.36333633  1
  O2-  O554  1  0.59907156  0.16098149  0.69164484  1
  O2-  O555  1  0.59421336  0.41856927  0.02086093  1
  O2-  O556  1  0.59106113  0.41884251  0.35034332  1
  O2-  O557  1  0.59804564  0.40466075  0.69052753  1
  O2-  O558  1  0.59154787  0.64682158  0.03019733  1
  O2-  O559  1  0.56406539  0.62271706  0.37241756  1
  O2-  O560  1  0.60722433  0.65128469  0.65682769  1
  O2-  O561  1  0.57447538  0.94796476  0.01267998  1
  O2-  O562  1  0.56202038  0.89656157  0.34507132  1
  O2-  O563  1  0.57449271  0.90255896  0.68993491  1
  O2-  O564  1  0.89424292  0.17389751  0.01242364  1
  O2-  O565  1  0.81038156  0.15689252  0.35274420  1
  O2-  O566  1  0.83877300  0.20062186  0.69225362  1
  O2-  O567  1  0.84549759  0.43807590  0.03366619  1
  O2-  O568  1  0.72555911  0.32716011  0.34422458  1
  O2-  O569  1  0.82808324  0.41383493  0.68450986  1
  O2-  O570  1  0.83419298  0.67112905  0.02163182  1
  O2-  O571  1  0.84047323  0.67073836  0.35341662  1
  O2-  O572  1  0.84526144  0.66449993  0.68832332  1
  O2-  O573  1  0.79748397  0.88946992  0.02007222  1
  O2-  O574  1  0.83496615  0.94553913  0.34389978  1
  O2-  O575  1  0.83834287  0.90417378  0.68525438  1
