# generated using pymatgen
data_H2O
_symmetry_space_group_name_H-M   'P 1'
_cell_length_a   17.98844289
_cell_length_b   17.99072465
_cell_length_c   22.00938060
_cell_angle_alpha   90.00046073
_cell_angle_beta   90.01286132
_cell_angle_gamma   119.98666482
_symmetry_Int_Tables_number   1
_chemical_formula_structural   H2O
_chemical_formula_sum   'H384 O192'
_cell_volume   6169.34429377
_cell_formula_units_Z   192
loop_
 _symmetry_equiv_pos_site_id
 _symmetry_equiv_pos_as_xyz
  1  'x, y, z'
loop_
 _atom_type_symbol
 _atom_type_oxidation_number
  H+  1.0
  O2-  -2.0
loop_
 _atom_site_type_symbol
 _atom_site_label
 _atom_site_symmetry_multiplicity
 _atom_site_fract_x
 _atom_site_fract_y
 _atom_site_fract_z
 _atom_site_occupancy
  H+  H0  1  0.31623764  0.90547248  0.75418294  1
  H+  H1  1  0.51682741  0.63390420  0.83704493  1
  H+  H2  1  0.63258790  0.27226510  0.17496016  1
  H+  H3  1  0.15428967  0.89556963  0.98136127  1
  H+  H4  1  0.40206776  0.33449295  0.58759402  1
  H+  H5  1  0.51778857  0.63326297  0.65963620  1
  H+  H6  1  0.87759029  0.38256417  1.01088852  1
  H+  H7  1  0.37400239  0.48324249  0.33539968  1
  H+  H8  1  1.01376630  0.39040875  0.34732609  1
  H+  H9  1  0.26165914  0.88078820  0.81873173  1
  H+  H10  1  0.36863005  0.99637757  0.82476771  1
  H+  H11  1  0.10514942  0.88111001  0.15484206  1
  H+  H12  1  0.47021211  0.09043140  0.83845964  1
  H+  H13  1  0.33194789  0.67636772  0.29183918  1
  H+  H14  1  0.86953812  0.12426136  0.83137670  1
  H+  H15  1  0.49056129  0.35219110  0.81354722  1
  H+  H16  1  0.12157679  0.76476508  0.16659407  1
  H+  H17  1  0.63719146  0.52437624  0.82883105  1
  H+  H18  1  0.36930332  0.97700063  0.49323306  1
  H+  H19  1  0.37727019  0.00419756  0.65457287  1
  H+  H20  1  0.12527422  0.88869090  0.33063648  1
  H+  H21  1  0.20162000  0.84494254  0.58181270  1
  H+  H22  1  0.87680279  0.10768203  0.16813800  1
  H+  H23  1  0.03652547  0.16430816  0.48514145  1
  H+  H24  1  0.85096766  0.62601636  0.50902260  1
  H+  H25  1  0.88022484  0.77170316  0.14409951  1
  H+  H26  1  0.91987719  0.83502771  0.46401083  1
  H+  H27  1  0.77951763  0.63569976  0.14937981  1
  H+  H28  1  0.72455460  0.10601100  0.32604256  1
  H+  H29  1  0.27105180  0.63246595  0.67068436  1
  H+  H30  1  0.90924241  0.32077812  0.89823138  1
  H+  H31  1  0.35818308  0.72252906  0.67400112  1
  H+  H32  1  0.60014253  0.47307068  0.48378488  1
  H+  H33  1  0.74432881  0.61330068  0.65359219  1
  H+  H34  1  0.35434144  0.47930206  0.66741431  1
  H+  H35  1  0.72839857  0.35352246  0.50831331  1
  H+  H36  1  0.36623704  0.36612129  0.64525335  1
  H+  H37  1  0.48479956  0.10981491  0.50522263  1
  H+  H38  1  0.66226098  0.57421436  0.89310749  1
  H+  H39  1  0.39026931  0.37238746  0.31886267  1
  H+  H40  1  0.83702031  0.15947710  0.39946786  1
  H+  H41  1  0.64602833  0.98833874  0.15464640  1
  H+  H42  1  0.69450958  0.88200280  0.15696374  1
  H+  H43  1  0.80060990  0.40518496  0.66799893  1
  H+  H44  1  0.13461515  0.27308404  0.66289578  1
  H+  H45  1  0.12380419  0.97804640  0.33400106  1
  H+  H46  1  0.28532745  0.39158918  0.32997483  1
  H+  H47  1  0.60013713  0.11264396  0.83542957  1
  H+  H48  1  0.78034843  0.13543301  0.49306371  1
  H+  H49  1  0.38534575  0.87044645  0.83655330  1
  H+  H50  1  0.09541179  0.37645475  1.00903457  1
  H+  H51  1  0.87689693  0.86342618  0.83486571  1
  H+  H52  1  0.51558157  0.88911025  0.82782583  1
  H+  H53  1  0.90356492  0.83085852  0.20084852  1
  H+  H54  1  0.35960885  0.97108985  0.16290852  1
  H+  H55  1  0.59955895  0.72120392  0.50357352  1
  H+  H56  1  0.13421839  0.52265246  0.66076069  1
  H+  H57  1  0.88249093  0.39364537  0.67291751  1
  H+  H58  1  0.60315145  0.71740223  -0.00128579  1
  H+  H59  1  0.88420780  0.02173011  0.66425591  1
  H+  H60  1  0.10324958  0.46846577  0.82632179  1
  H+  H61  1  0.87319844  0.35234340  0.17791708  1
  H+  H62  1  0.86807327  0.71573930  0.36744749  1
  H+  H63  1  0.39778406  0.62103101  0.17425705  1
  H+  H64  1  1.01150118  0.12602636  1.00227928  1
  H+  H65  1  0.68418940  0.85972866  0.31566608  1
  H+  H66  1  0.39736245  0.03178530  0.99913848  1
  H+  H67  1  0.61173890  0.89317652  0.50041394  1
  H+  H68  1  0.61494149  0.21962189  0.34086298  1
  H+  H69  1  0.84052960  0.41861272  0.40338789  1
  H+  H70  1  0.11396942  0.75287984  0.50172558  1
  H+  H71  1  0.03119700  0.13271729  0.67227082  1
  H+  H72  1  0.49772108  0.12752889  1.00239623  1
  H+  H73  1  0.60421864  0.64957510  0.34718361  1
  H+  H74  1  0.10534733  0.47686428  0.34850373  1
  H+  H75  1  0.57710904  0.65886956  0.05859595  1
  H+  H76  1  0.27210113  0.88916466  0.33719885  1
  H+  H77  1  0.61102365  0.97275390  0.82229967  1
  H+  H78  1  0.07245526  0.92752013  0.06654197  1
  H+  H79  1  0.56270547  0.90330329  0.74273087  1
  H+  H80  1  0.85391129  0.12589455  1.00166027  1
  H+  H81  1  0.47390682  0.35727115  0.49632801  1
  H+  H82  1  0.60933989  0.36276778  0.64942939  1
  H+  H83  1  0.22926294  0.61331973  0.33261136  1
  H+  H84  1  0.37519210  0.85047022  0.51196949  1
  H+  H85  1  0.72910705  0.10262643  0.83913865  1
  H+  H86  1  0.76064763  0.62289721  0.49735862  1
  H+  H87  1  0.64839377  0.33711465  0.38263301  1
  H+  H88  1  0.51955387  0.39662034  0.32305147  1
  H+  H89  1  0.36288035  0.23703215  0.15770736  1
  H+  H90  1  0.87310486  0.13852289  0.67474268  1
  H+  H91  1  0.86677759  0.38588648  0.49799835  1
  H+  H92  1  0.11067422  0.75513844  0.02479218  1
  H+  H93  1  0.26270808  0.39001858  0.67102553  1
  H+  H94  1  0.21124133  0.36191556  0.01109202  1
  H+  H95  1  0.84366443  0.87560451  0.00064910  1
  H+  H96  1  0.13931214  0.61242677  0.32861160  1
  H+  H97  1  0.85251359  0.46536364  0.82505346  1
  H+  H98  1  0.86956795  0.74045867  0.66449294  1
  H+  H99  1  0.38383803  0.61312042  0.65627731  1
  H+  H100  1  0.16140275  0.28779470  0.32761737  1
  H+  H101  1  0.62669798  0.35301003  -0.00620756  1
  H+  H102  1  0.65388425  0.11939514  0.50462923  1
  H+  H103  1  0.48321875  0.85905248  0.17801852  1
  H+  H104  1  0.14490766  0.29749337  0.51081318  1
  H+  H105  1  0.13649411  0.02218514  0.17023556  1
  H+  H106  1  0.35222262  0.71809051  0.15039723  1
  H+  H107  1  1.00689604  0.86846090  0.37541873  1
  H+  H108  1  0.36759277  0.14346638  0.33576336  1
  H+  H109  1  0.07923550  1.00297943  0.52507504  1
  H+  H110  1  0.64324664  0.41796972  0.77353920  1
  H+  H111  1  0.14625522  0.10423305  0.67023463  1
  H+  H112  1  0.86475511  0.13126152  0.33884801  1
  H+  H113  1  0.61674244  0.64382833  0.15444015  1
  H+  H114  1  0.37065528  0.85359188  0.66292989  1
  H+  H115  1  0.62627790  0.28425785  0.65576177  1
  H+  H116  1  0.36244648  0.39578570  0.16546253  1
  H+  H117  1  0.85612176  0.97401324  0.82844708  1
  H+  H118  1  0.36878761  0.37955787  0.81233090  1
  H+  H119  1  0.88103442  0.77575426  0.83433856  1
  H+  H120  1  0.18952043  0.67986682  0.96336251  1
  H+  H121  1  0.88565635  0.26892682  0.50869341  1
  H+  H122  1  0.02659797  0.86516399  0.51838826  1
  H+  H123  1  0.07581356  0.88539531  0.67956001  1
  H+  H124  1  0.11360466  0.38720848  0.67441141  1
  H+  H125  1  1.00188569  0.59109811  1.01463642  1
  H+  H126  1  0.49591812  0.86903031  0.67724734  1
  H+  H127  1  0.64069844  0.11402589  0.17290132  1
  H+  H128  1  0.13184999  0.64836625  0.67561755  1
  H+  H129  1  0.13839171  0.11935784  0.83746892  1
  H+  H130  1  0.14512084  -0.01017477  0.68452328  1
  H+  H131  1  0.57087522  0.47518051  0.66230121  1
  H+  H132  1  0.62617224  0.61017008  0.50569912  1
  H+  H133  1  0.01880785  0.88756460  0.14927022  1
  H+  H134  1  0.61366334  0.22817121  0.00451965  1
  H+  H135  1  0.87535663  0.25955387  -0.01051975  1
  H+  H136  1  0.19829323  0.89201425  0.68162584  1
  H+  H137  1  0.88332867  0.65936193  0.67284084  1
  H+  H138  1  0.39828701  0.12609666  0.99985383  1
  H+  H139  1  0.86664067  0.21192693  0.83125851  1
  H+  H140  1  0.35444087  0.39501157  0.02288416  1
  H+  H141  1  0.60421567  0.87946782  -0.00571713  1
  H+  H142  1  0.26555772  0.62606937  0.48603707  1
  H+  H143  1  0.59197439  0.86908218  0.67858774  1
  H+  H144  1  0.86744458  0.47521848  0.50068256  1
  H+  H145  1  0.14759694  0.03634763  0.98850081  1
  H+  H146  1  0.62711220  0.85761166  0.83691511  1
  H+  H147  1  0.62789460  0.60569844  0.98688222  1
  H+  H148  1  0.01498258  0.39099287  0.49939314  1
  H+  H149  1  0.98407555  0.36290567  0.66135287  1
  H+  H150  1  0.37205068  0.76027981  0.51119488  1
  H+  H151  1  0.87815433  0.34708588  0.83812314  1
  H+  H152  1  0.88023788  0.51359037  0.98645659  1
  H+  H153  1  0.88107995  0.26796183  0.32763328  1
  H+  H154  1  0.97339075  0.62148078  0.51624773  1
  H+  H155  1  0.51564276  0.89917808  0.35625906  1
  H+  H156  1  0.77673213  0.64416534  0.34158323  1
  H+  H157  1  0.60852969  0.63833038  0.65545942  1
  H+  H158  1  0.33609407  0.17036176  0.06367448  1
  H+  H159  1  1.04223161  0.15815159  0.33288896  1
  H+  H160  1  0.13559793  0.61179992  0.50561303  1
  H+  H161  1  0.09166092  -0.07788715  0.77451687  1
  H+  H162  1  0.37786584  0.27237200  0.99768006  1
  H+  H163  1  0.23860043  0.10629560  0.67019778  1
  H+  H164  1  0.60188972  0.77036061  0.32683622  1
  H+  H165  1  0.83135743  0.87726561  0.14721098  1
  H+  H166  1  0.71686616  0.60406484  0.98665115  1
  H+  H167  1  0.47357699  0.02320897  0.21084356  1
  H+  H168  1  0.12980483  0.37681783  0.51580488  1
  H+  H169  1  1.01771775  0.63301838  0.82324558  1
  H+  H170  1  0.93794443  0.47189455  0.04152304  1
  H+  H171  1  0.34035690  0.87759000  0.15020280  1
  H+  H172  1  0.53117843  0.13714382  0.16007327  1
  H+  H173  1  0.59481772  0.88709275  0.34164950  1
  H+  H174  1  0.73613719  0.12859183  0.66200579  1
  H+  H175  1  0.12450277  0.89191359  0.52363790  1
  H+  H176  1  0.86277830  0.22425510  0.15892363  1
  H+  H177  1  0.62739025  0.76787609  0.84081781  1
  H+  H178  1  0.37602700  0.60032180  0.50071710  1
  H+  H179  1  0.38130091  0.77281909  0.33998448  1
  H+  H180  1  0.39307597  0.53131154  0.18092236  1
  H+  H181  1  0.47214840  0.86154815  0.99323423  1
  H+  H182  1  0.62322856  0.76868437  0.66294477  1
  H+  H183  1  0.02262417  0.63547487  0.33802093  1
  H+  H184  1  0.85165641  0.71401312  -0.00625397  1
  H+  H185  1  0.65476259  1.03085686  0.50724402  1
  H+  H186  1  0.88716935  0.60940863  0.32641937  1
  H+  H187  1  0.51052978  0.64046350  0.34795536  1
  H+  H188  1  0.69201510  0.51578264  0.63699571  1
  H+  H189  1  0.82871806  0.65663181  0.05344458  1
  H+  H190  1  0.11679453  0.23079560  0.82140960  1
  H+  H191  1  0.12555813  0.27129285  0.00642491  1
  H+  H192  1  0.70997287  0.85468265  0.98762436  1
  H+  H193  1  0.22231699  0.11454519  0.16845339  1
  H+  H194  1  0.47717176  0.11062644  0.32974617  1
  H+  H195  1  0.83743955  0.41425178  0.10535928  1
  H+  H196  1  0.56722939  0.42027708  0.74037602  1
  H+  H197  1  0.61261836  0.40421139  0.32827008  1
  H+  H198  1  0.35476125  0.48277426  0.01263263  1
  H+  H199  1  0.37635404  0.09479065  0.83476931  1
  H+  H200  1  0.91922973  0.86766155  0.37070081  1
  H+  H201  1  0.10616456  0.13527667  1.00200004  1
  H+  H202  1  0.51803289  0.38776917  1.00699694  1
  H+  H203  1  0.70687262  0.85477217  0.51477651  1
  H+  H204  1  0.08582319  0.58312737  0.01813782  1
  H+  H205  1  0.59598424  0.19934882  0.83734791  1
  H+  H206  1  0.46920290  0.60751377  0.98936790  1
  H+  H207  1  0.91958621  0.07628140  0.60340135  1
  H+  H208  1  0.22675332  0.35865855  0.82476399  1
  H+  H209  1  0.62900939  0.01996332  0.98981731  1
  H+  H210  1  0.24291632  0.87131656  0.51533496  1
  H+  H211  1  0.36387665  0.72470717  0.00231713  1
  H+  H212  1  0.62684715  0.33948885  0.84075327  1
  H+  H213  1  0.58812106  0.17110739  0.09924802  1
  H+  H214  1  0.96235953  0.04445914  0.86744180  1
  H+  H215  1  0.70861102  0.86323049  0.66858229  1
  H+  H216  1  0.00343445  0.63928116  0.66986560  1
  H+  H217  1  0.96699354  0.34904500  0.99033243  1
  H+  H218  1  0.64600940  0.51316059  0.17436203  1
  H+  H219  1  0.60828838  0.47397992  0.00304670  1
  H+  H220  1  0.80148187  0.86539046  0.33516147  1
  H+  H221  1  0.61442079  0.13022089  0.33629184  1
  H+  H222  1  0.15471235  0.76000830  1.02331767  1
  H+  H223  1  0.86044710  0.38231623  0.34180092  1
  H+  H224  1  0.91613545  0.54822221  0.67345167  1
  H+  H225  1  0.36464189  0.11865819  0.67220941  1
  H+  H226  1  0.95686034  0.85242529  0.98744395  1
  H+  H227  1  0.03066002  0.97186895  0.03058222  1
  H+  H228  1  0.96495379  0.89531580  0.63120199  1
  H+  H229  1  0.12570586  0.51789072  0.50554721  1
  H+  H230  1  0.52803592  0.14228343  0.66700919  1
  H+  H231  1  0.87737685  0.51945989  0.17535178  1
  H+  H232  1  0.13857460  0.77034777  0.32110236  1
  H+  H233  1  0.84367979  0.88519352  0.67109509  1
  H+  H234  1  0.28700582  0.92019980  0.99430079  1
  H+  H235  1  0.71925285  0.34744499  0.83705783  1
  H+  H236  1  0.38413410  0.51294294  0.83891035  1
  H+  H237  1  0.38993494  0.28136555  0.32121511  1
  H+  H238  1  0.27216835  0.12834109  0.83011642  1
  H+  H239  1  0.88891027  0.52082599  0.32826279  1
  H+  H240  1  0.23535137  0.58432324  0.18082267  1
  H+  H241  1  0.97675126  0.05075212  0.53020621  1
  H+  H242  1  0.77167578  0.63804544  0.82191127  1
  H+  H243  1  0.38347034  0.35492797  0.49366190  1
  H+  H244  1  0.23300193  0.62988043  0.98897396  1
  H+  H245  1  0.10517837  0.48122641  0.16293874  1
  H+  H246  1  0.36065350  0.63281128  0.99919427  1
  H+  H247  1  0.86039895  0.75265282  0.50208275  1
  H+  H248  1  0.88069107  0.60773026  0.83176836  1
  H+  H249  1  0.10131940  0.10020703  0.51521293  1
  H+  H250  1  0.03789108  0.49220976  0.12363234  1
  H+  H251  1  0.61899785  0.22069306  0.49614875  1
  H+  H252  1  0.83385146  0.87015325  0.48904618  1
  H+  H253  1  0.89414652  0.27349111  0.66597259  1
  H+  H254  1  0.83141537  0.96432565  0.33144988  1
  H+  H255  1  0.96568410  0.36654839  0.17290445  1
  H+  H256  1  0.71927380  0.10778732  -0.00695586  1
  H+  H257  1  0.23265463  0.12047072  0.32401457  1
  H+  H258  1  0.13356097  0.26808496  0.17330058  1
  H+  H259  1  0.12787637  0.60593049  0.83667953  1
  H+  H260  1  0.47894533  0.38139521  0.65799787  1
  H+  H261  1  0.12887470  0.77097636  0.84106696  1
  H+  H262  1  0.09991229  0.12583403  0.15966107  1
  H+  H263  1  0.60743611  0.63791102  0.83271947  1
  H+  H264  1  0.87085711  0.13680874  0.49383873  1
  H+  H265  1  0.37283160  0.23203956  0.48950156  1
  H+  H266  1  0.62219808  0.15722244  0.66585370  1
  H+  H267  1  0.61206000  0.13465835  0.00390065  1
  H+  H268  1  0.13792384  0.35951050  0.82681888  1
  H+  H269  1  0.76752179  0.38442679  0.16045451  1
  H+  H270  1  0.42165239  0.59375232  0.27377018  1
  H+  H271  1  0.01655837  0.37699132  0.82509637  1
  H+  H272  1  0.36741739  0.21142810  0.82462479  1
  H+  H273  1  0.26356247  0.61570479  0.82309018  1
  H+  H274  1  0.95536820  0.04086342  0.30116543  1
  H+  H275  1  0.63196859  0.01945897  0.32833850  1
  H+  H276  1  0.63152869  0.54005537  0.32761770  1
  H+  H277  1  0.88062672  0.00966033  0.50827270  1
  H+  H278  1  0.36087168  0.88943289  0.34452291  1
  H+  H279  1  0.73274494  0.36790288  0.34491669  1
  H+  H280  1  0.28036798  0.13907934  0.00153399  1
  H+  H281  1  0.47259712  0.36529479  0.16866768  1
  H+  H282  1  0.01285999  0.63520461  0.16671392  1
  H+  H283  1  0.87631429  1.01901144  -0.01139167  1
  H+  H284  1  0.02573405  0.14060847  0.82411326  1
  H+  H285  1  0.52593245  0.63722185  0.15786521  1
  H+  H286  1  1.01860000  0.89042977  0.82745309  1
  H+  H287  1  0.84036160  0.96958839  0.15167547  1
  H+  H288  1  0.90160308  0.82642788  0.92643301  1
  H+  H289  1  0.54606914  0.85337218  0.22286277  1
  H+  H290  1  0.37615480  0.33662871  0.94866480  1
  H+  H291  1  0.38319601  0.62070860  0.33074937  1
  H+  H292  1  0.90303565  0.77094950  0.26536808  1
  H+  H293  1  0.33668887  0.41526131  0.75754655  1
  H+  H294  1  0.17934691  0.55700257  0.24229263  1
  H+  H295  1  0.45249867  0.33399831  0.87857745  1
  H+  H296  1  0.40368839  0.82362678  0.60383882  1
  H+  H297  1  0.41435845  0.06792950  0.59699778  1
  H+  H298  1  0.39788793  0.11426192  0.50220692  1
  H+  H299  1  0.09966304  0.18899589  0.42989570  1
  H+  H300  1  0.66773265  0.07542235  0.89759849  1
  H+  H301  1  0.40606205  0.57288674  0.93111865  1
  H+  H302  1  0.66611767  0.60602615  0.27411402  1
  H+  H303  1  0.90796254  0.58018273  0.23460927  1
  H+  H304  1  0.43236508  0.84303650  0.28867714  1
  H+  H305  1  0.13430983  0.02759549  0.84151310  1
  H+  H306  1  0.15816039  0.33707562  0.60437250  1
  H+  H307  1  0.90877282  0.57480690  0.89037022  1
  H+  H308  1  0.66192392  0.32851489  0.56295916  1
  H+  H309  1  0.90917468  0.32737695  0.26840506  1
  H+  H310  1  0.16363649  0.58133669  0.60061021  1
  H+  H311  1  0.08878626  0.67142640  0.76977336  1
  H+  H312  1  0.07185960  0.42177424  0.43731170  1
  H+  H313  1  0.32628246  0.66007211  0.42790998  1
  H+  H314  1  0.59360977  0.93127574  0.44003458  1
  H+  H315  1  0.06868077  0.15329127  0.09995129  1
  H+  H316  1  0.16484984  0.82722036  0.26024651  1
  H+  H317  1  0.77351614  0.13587802  0.15995279  1
  H+  H318  1  0.91066886  0.07574246  0.92706066  1
  H+  H319  1  0.18873601  0.87705098  0.92033698  1
  H+  H320  1  0.65957073  0.32229000  0.93664871  1
  H+  H321  1  0.87731075  0.60123060  0.98415661  1
  H+  H322  1  0.65237800  0.82554252  0.92743602  1
  H+  H323  1  0.66052789  0.57519211  0.56018739  1
  H+  H324  1  0.90025823  0.83900582  0.58082360  1
  H+  H325  1  0.82702054  0.15693044  0.06244393  1
  H+  H326  1  0.83154180  0.40842375  0.76614463  1
  H+  H327  1  0.17952463  0.33745294  0.26498688  1
  H+  H328  1  0.17685468  0.09473944  0.92881890  1
  H+  H329  1  0.76364556  0.88419550  0.82630153  1
  H+  H330  1  0.33749084  0.14530782  0.73375819  1
  H+  H331  1  0.32711003  0.64796265  0.76661650  1
  H+  H332  1  0.08832761  0.16544335  0.73193923  1
  H+  H333  1  0.80057865  0.90818540  0.43640737  1
  H+  H334  1  0.37516939  0.59755292  0.83910674  1
  H+  H335  1  0.92930939  0.81790886  0.27374883  1
  H+  H336  1  0.03700592  0.73646164  0.46053596  1
  H+  H337  1  0.33431321  0.66075188  0.09143880  1
  H+  H338  1  0.36144961  0.46211946  0.48730466  1
  H+  H339  1  0.33158508  0.43193059  0.11073091  1
  H+  H340  1  0.96338911  0.10110690  0.16644011  1
  H+  H341  1  0.64876157  0.82887921  0.57505276  1
  H+  H342  1  0.40716627  0.57828307  0.59550481  1
  H+  H343  1  0.08218597  0.67512658  0.39651438  1
  H+  H344  1  0.34453377  0.41336874  0.42390080  1
  H+  H345  1  0.72282178  0.54830029  0.22029882  1
  H+  H346  1  0.66617912  0.08067889  0.23363389  1
  H+  H347  1  0.36269963  0.14841615  0.15958434  1
  H+  H348  1  0.41358415  0.33410902  0.22873341  1
  H+  H349  1  0.05995655  0.41357765  0.06072035  1
  H+  H350  1  0.17162920  0.08817222  0.26483833  1
  H+  H351  1  0.82141625  0.91438381  0.73494038  1
  H+  H352  1  0.57361581  0.66895268  0.44068829  1
  H+  H353  1  0.08075568  0.41748706  0.73233919  1
  H+  H354  1  0.56930099  0.42382891  0.42123378  1
  H+  H355  1  0.92653292  0.59031591  0.57989878  1
  H+  H356  1  0.20974411  0.85703384  0.16423908  1
  H+  H357  1  0.28773748  0.13916088  0.49032460  1
  H+  H358  1  0.68254028  0.10108276  0.60135461  1
  H+  H359  1  0.65854392  0.33116369  0.23418798  1
  H+  H360  1  0.81180690  0.90840020  0.05808879  1
  H+  H361  1  0.91291203  0.32565086  0.57040358  1
  H+  H362  1  0.12226473  0.14079535  0.33470011  1
  H+  H363  1  0.84325121  0.16253589  0.73639978  1
  H+  H364  1  0.60598452  0.38333976  0.15820040  1
  H+  H365  1  0.21998909  0.35898209  0.17399964  1
  H+  H366  1  0.90523787  0.06335559  0.25190561  1
  H+  H367  1  0.58130733  0.41815789  0.09833551  1
  H+  H368  1  0.15289301  0.74589319  0.68358126  1
  H+  H369  1  0.41587717  0.84451486  0.89784064  1
  H+  H370  1  0.58742860  0.16034268  0.43618809  1
  H+  H371  1  0.06813123  0.64283734  0.10951485  1
  H+  H372  1  0.59034757  0.91662031  0.05549115  1
  H+  H373  1  0.83364925  0.67437922  0.76353013  1
  H+  H374  1  0.38430847  0.02331097  0.33059228  1
  H+  H375  1  0.86807802  0.63864514  0.15184938  1
  H+  H376  1  0.46639029  0.60425317  0.50623809  1
  H+  H377  1  0.16101783  0.58090033  0.89544554  1
  H+  H378  1  0.33282882  0.92993468  0.05974055  1
  H+  H379  1  0.42889426  0.06744945  0.24427030  1
  H+  H380  1  0.12768060  0.86060315  0.83806712  1
  H+  H381  1  0.38502238  0.86504348  -0.00588379  1
  H+  H382  1  0.33984159  0.17357553  0.39526326  1
  H+  H383  1  0.33051642  0.91636714  0.43492007  1
  O2-  O384  1  0.06585905  0.15224373  0.14545076  1
  O2-  O385  1  0.09776907  0.19343687  0.47486460  1
  O2-  O386  1  0.08606291  0.16685881  0.80929643  1
  O2-  O387  1  0.05069585  0.44811964  0.13701172  1
  O2-  O388  1  0.07518640  0.42505848  0.48421150  1
  O2-  O389  1  0.07597893  0.40959432  0.80829207  1
  O2-  O390  1  0.07293229  0.66509786  0.15135528  1
  O2-  O391  1  0.06617371  0.70704304  0.47629883  1
  O2-  O392  1  0.08080095  0.66640649  0.81486847  1
  O2-  O393  1  0.08137799  0.91831889  0.13984484  1
  O2-  O394  1  0.08457564  0.91125185  0.50917900  1
  O2-  O395  1  0.08177667  0.92078043  0.81954620  1
  O2-  O396  1  0.33236959  0.17519523  0.14148770  1
  O2-  O397  1  0.34521647  0.16938026  0.47296700  1
  O2-  O398  1  0.33286924  0.14876013  0.81708387  1
  O2-  O399  1  0.33406870  0.42971630  0.15619076  1
  O2-  O400  1  0.34132984  0.40509655  0.46876479  1
  O2-  O401  1  0.33928878  0.41177521  0.80329657  1
  O2-  O402  1  0.33604202  0.66034626  0.13740584  1
  O2-  O403  1  0.32658681  0.65611055  0.47242949  1
  O2-  O404  1  0.32460037  0.64118926  0.81143623  1
  O2-  O405  1  0.32080990  0.91756565  0.13923460  1
  O2-  O406  1  0.33413870  0.91542514  0.48009161  1
  O2-  O407  1  0.32120915  0.91073934  0.80157964  1
  O2-  O408  1  0.59059733  0.17326653  0.14484309  1
  O2-  O409  1  0.58800133  0.15865476  0.48110143  1
  O2-  O410  1  0.56132501  0.13693657  0.83009676  1
  O2-  O411  1  0.58027229  0.41824899  0.14409384  1
  O2-  O412  1  0.56867734  0.41488031  0.46546509  1
  O2-  O413  1  0.59268711  0.42195283  0.78427341  1
  O2-  O414  1  0.58169437  0.66424978  0.13517154  1
  O2-  O415  1  0.57315840  0.66185484  0.48599476  1
  O2-  O416  1  0.57768459  0.67025317  0.82418875  1
  O2-  O417  1  0.63764434  0.94092896  0.12629995  1
  O2-  O418  1  0.59901823  0.93726924  0.48491261  1
  O2-  O419  1  0.57503906  0.91184880  0.80805652  1
  O2-  O420  1  0.83300065  0.16368823  0.14322433  1
  O2-  O421  1  0.84227681  0.16585583  0.47591925  1
  O2-  O422  1  0.83685461  0.15127339  0.81615116  1
  O2-  O423  1  0.82957451  0.41400254  0.15070167  1
  O2-  O424  1  0.83928145  0.41801015  0.48079077  1
  O2-  O425  1  0.82192564  0.40425661  0.81099693  1
  O2-  O426  1  0.83829499  0.66700651  0.13162892  1
  O2-  O427  1  0.82390321  0.65651942  0.49009394  1
  O2-  O428  1  0.83334142  0.67000571  0.80862043  1
  O2-  O429  1  0.80238527  0.90984711  0.13614516  1
  O2-  O430  1  0.80753763  0.90695127  0.48092729  1
  O2-  O431  1  0.82378273  0.91321163  0.80993619  1
  O2-  O432  1  0.16365917  0.08229456  0.18587613  1
  O2-  O433  1  0.06475324  0.04715638  0.53809410  1
  O2-  O434  1  0.16874410  0.08915870  0.85429568  1
  O2-  O435  1  0.16145327  0.32597373  0.19114600  1
  O2-  O436  1  0.16081413  0.34994731  0.53463717  1
  O2-  O437  1  0.16633207  0.32645346  0.83843669  1
  O2-  O438  1  0.18681110  0.53673795  0.20189327  1
  O2-  O439  1  0.16324333  0.58061603  0.52046677  1
  O2-  O440  1  0.15492845  0.57213615  0.85080282  1
  O2-  O441  1  0.15078263  0.82732937  0.18081003  1
  O2-  O442  1  0.18637198  0.84204331  0.53827605  1
  O2-  O443  1  0.16222675  0.83364334  0.85123544  1
  O2-  O444  1  0.44123133  0.05220788  0.20145013  1
  O2-  O445  1  0.42271283  0.07946772  0.51781126  1
  O2-  O446  1  0.40273832  0.05773890  0.84606822  1
  O2-  O447  1  0.41167503  0.33287108  0.18255337  1
  O2-  O448  1  0.41287529  0.32351080  0.51195299  1
  O2-  O449  1  0.43509166  0.32362950  0.83605771  1
  O2-  O450  1  0.42796081  0.59343565  0.19325631  1
  O2-  O451  1  0.40493840  0.57082151  0.51930118  1
  O2-  O452  1  0.40849438  0.57086733  0.85765434  1
  O2-  O453  1  0.49367652  0.85780785  0.22120059  1
  O2-  O454  1  0.39511392  0.81522191  0.53338751  1
  O2-  O455  1  0.42538678  0.85324686  0.85355163  1
  O2-  O456  1  0.66872721  0.08198477  0.18785774  1
  O2-  O457  1  0.68920303  0.09435708  0.51951299  1
  O2-  O458  1  0.66757082  0.07293721  0.85227351  1
  O2-  O459  1  0.65933890  0.33328817  0.18978823  1
  O2-  O460  1  0.66742024  0.31680217  0.51946499  1
  O2-  O461  1  0.66016826  0.31400564  0.85564539  1
  O2-  O462  1  0.69068560  0.56748431  0.19535978  1
  O2-  O463  1  0.65555514  0.57653908  0.51546053  1
  O2-  O464  1  0.66810016  0.58176278  0.84793793  1
  O2-  O465  1  0.63627520  0.87405419  0.16476790  1
  O2-  O466  1  0.64657990  0.82327591  0.52982690  1
  O2-  O467  1  0.66010897  0.83120577  0.85335863  1
  O2-  O468  1  0.90206531  0.07112311  0.18158100  1
  O2-  O469  1  0.92837736  0.06408866  0.52518442  1
  O2-  O470  1  0.92167812  0.06434224  0.85981571  1
  O2-  O471  1  0.90751263  0.32500348  0.19010667  1
  O2-  O472  1  0.91133352  0.32854720  0.52493624  1
  O2-  O473  1  0.91064386  0.31923615  0.85237068  1
  O2-  O474  1  0.90429866  0.58067078  0.18899445  1
  O2-  O475  1  0.91722378  0.58195542  0.53507999  1
  O2-  O476  1  0.90912537  0.57478228  0.84478036  1
  O2-  O477  1  0.90542421  0.83397210  0.15638246  1
  O2-  O478  1  0.89017273  0.81872630  0.50462981  1
  O2-  O479  1  0.91018433  0.83579201  0.85048417  1
  O2-  O480  1  0.17129826  0.08920189  0.31020128  1
  O2-  O481  1  0.17468261  0.07060293  0.66020564  1
  O2-  O482  1  0.18153701  0.09663216  0.97476358  1
  O2-  O483  1  0.19280785  0.34544587  0.30969628  1
  O2-  O484  1  0.16041933  0.33463980  0.65089270  1
  O2-  O485  1  0.15263605  0.33205169  0.99421289  1
  O2-  O486  1  0.16716644  0.57848385  0.31843036  1
  O2-  O487  1  0.16509392  0.58370492  0.64590089  1
  O2-  O488  1  0.17746076  0.62155441  0.97125348  1
  O2-  O489  1  0.17124281  0.83055764  0.30531032  1
  O2-  O490  1  0.22278386  0.85690986  0.66436412  1
  O2-  O491  1  0.20663827  0.91264802  0.95843011  1
  O2-  O492  1  0.41745828  0.08299587  0.31236822  1
  O2-  O493  1  0.41332850  0.06558040  0.64222385  1
  O2-  O494  1  0.43123326  0.09618561  0.98716739  1
  O2-  O495  1  0.41946087  0.33946689  0.30220904  1
  O2-  O496  1  0.39930344  0.33754742  0.63284226  1
  O2-  O497  1  0.40437894  0.33482212  0.98597956  1
  O2-  O498  1  0.41681259  0.58996521  0.31894086  1
  O2-  O499  1  0.41263488  0.58121762  0.64103282  1
  O2-  O500  1  0.40720732  0.57800831  0.97720346  1
  O2-  O501  1  0.41261271  0.83850392  0.33116847  1
  O2-  O502  1  0.40651656  0.82726730  0.65045267  1
  O2-  O503  1  0.41038424  0.83035287  0.97984947  1
  O2-  O504  1  0.66509637  0.07932538  0.30957533  1
  O2-  O505  1  0.67734610  0.10525661  0.64590719  1
  O2-  O506  1  0.65876057  0.08172902  0.97711985  1
  O2-  O507  1  0.66723628  0.33753826  0.34085169  1
  O2-  O508  1  0.65341875  0.34646785  0.64197308  1
  O2-  O509  1  0.65448581  0.31958149  0.98156574  1
  O2-  O510  1  0.66377392  0.60338876  0.31873212  1
  O2-  O511  1  0.68736876  0.56758762  0.63748277  1
  O2-  O512  1  0.65602917  0.57272293  0.97202174  1
  O2-  O513  1  0.62279952  0.82672133  0.30557828  1
  O2-  O514  1  0.64794358  0.83229433  0.65365494  1
  O2-  O515  1  0.64898503  0.82305490  0.97342629  1
  O2-  O516  1  0.91090573  0.05663735  0.29803562  1
  O2-  O517  1  0.92088994  0.08133724  0.64861288  1
  O2-  O518  1  0.90918259  0.07966694  0.97479964  1
  O2-  O519  1  0.90669959  0.32844004  0.31386459  1
  O2-  O520  1  0.92203227  0.33280906  0.64791648  1
  O2-  O521  1  0.90502079  0.31959085  0.97377359  1
  O2-  O522  1  0.91921263  0.58028323  0.31128168  1
  O2-  O523  1  0.94127459  0.60788550  0.65794820  1
  O2-  O524  1  0.90867330  0.57229981  0.96845416  1
  O2-  O525  1  0.94400683  0.83704188  0.39087067  1
  O2-  O526  1  0.90742391  0.84622589  0.62597900  1
  O2-  O527  1  0.89737441  0.82005290  0.97212093  1
  O2-  O528  1  0.06962714  0.15429851  0.02243786  1
  O2-  O529  1  0.09717688  0.17540394  0.35233104  1
  O2-  O530  1  0.09181673  0.16505408  0.68646299  1
  O2-  O531  1  0.05848692  0.40323964  0.01653771  1
  O2-  O532  1  0.06976356  0.41992565  0.36825967  1
  O2-  O533  1  0.08362012  0.41990522  0.68663473  1
  O2-  O534  1  0.03596719  0.57605121  0.04250281  1
  O2-  O535  1  0.08392522  0.66898603  0.35209392  1
  O2-  O536  1  0.10926466  0.68523790  0.69269287  1
  O2-  O537  1  0.05903685  0.93836284  0.02375484  1
  O2-  O538  1  0.09565113  0.91788217  0.34829878  1
  O2-  O539  1  0.12599696  0.92592611  0.70261548  1
  O2-  O540  1  0.34112060  0.17010941  0.01830070  1
  O2-  O541  1  0.33789825  0.17456938  0.34964605  1
  O2-  O542  1  0.33498450  0.14834391  0.68923839  1
  O2-  O543  1  0.32485328  0.42625900  0.03488726  1
  O2-  O544  1  0.34802178  0.42099314  0.34559593  1
  O2-  O545  1  0.32502799  0.41895562  0.68329134  1
  O2-  O546  1  0.33106457  0.66353441  0.01636349  1
  O2-  O547  1  0.33420752  0.67269827  0.33603326  1
  O2-  O548  1  0.33135176  0.66074426  0.68599425  1
  O2-  O549  1  0.34387585  0.93692824  0.01523481  1
  O2-  O550  1  0.33088696  0.92269671  0.35514941  1
  O2-  O551  1  0.31408035  0.90099628  0.68571835  1
  O2-  O552  1  0.58239672  0.16555389  0.02116156  1
  O2-  O553  1  0.58167228  0.15814997  0.35201578  1
  O2-  O554  1  0.58780659  0.18481944  0.67749450  1
  O2-  O555  1  0.57818188  0.41437882  0.02104953  1
  O2-  O556  1  0.58060088  0.43390323  0.33790237  1
  O2-  O557  1  0.54406712  0.41592526  0.67676053  1
  O2-  O558  1  0.57540278  0.65636161  0.01289727  1
  O2-  O559  1  0.57165092  0.67621805  0.36390194  1
  O2-  O560  1  0.57983637  0.66750268  0.67180016  1
  O2-  O561  1  0.57720769  0.91288399  0.01131245  1
  O2-  O562  1  0.57939578  0.92843840  0.36170325  1
  O2-  O563  1  0.55790259  0.89687441  0.69482591  1
  O2-  O564  1  0.82168425  0.15449254  0.01731858  1
  O2-  O565  1  0.83270149  0.15838451  0.35371446  1
  O2-  O566  1  0.84609741  0.17108512  0.69149491  1
  O2-  O567  1  0.87624446  0.43055757  0.03404273  1
  O2-  O568  1  0.83398777  0.41631212  0.35788258  1
  O2-  O569  1  0.85701685  0.42966243  0.68761992  1
  O2-  O570  1  0.82347766  0.65313335  0.00824411  1
  O2-  O571  1  0.83798489  0.66121241  0.34510168  1
  O2-  O572  1  0.84415923  0.68234216  0.68252624  1
  O2-  O573  1  0.81536183  0.90871880  0.01275105  1
  O2-  O574  1  0.79164648  0.90937207  0.35290381  1
  O2-  O575  1  0.81665537  0.91612704  0.68910084  1
