# generated using pymatgen
data_H2O
_symmetry_space_group_name_H-M   'P 1'
_cell_length_a   17.98975235
_cell_length_b   17.99032266
_cell_length_c   22.01398249
_cell_angle_alpha   90.00696305
_cell_angle_beta   89.99944235
_cell_angle_gamma   119.99251474
_symmetry_Int_Tables_number   1
_chemical_formula_structural   H2O
_chemical_formula_sum   'H384 O192'
_cell_volume   6170.58208783
_cell_formula_units_Z   192
loop_
 _symmetry_equiv_pos_site_id
 _symmetry_equiv_pos_as_xyz
  1  'x, y, z'
loop_
 _atom_type_symbol
 _atom_type_oxidation_number
  H+  1.0
  O2-  -2.0
loop_
 _atom_site_type_symbol
 _atom_site_label
 _atom_site_symmetry_multiplicity
 _atom_site_fract_x
 _atom_site_fract_y
 _atom_site_fract_z
 _atom_site_occupancy
  H+  H0  1  0.42054517  0.31031361  0.80761404  1
  H+  H1  1  0.64948033  0.38000852  0.99154958  1
  H+  H2  1  0.14708562  0.77546741  0.66964938  1
  H+  H3  1  0.19712194  0.84042825  0.61599912  1
  H+  H4  1  0.13101637  0.41514879  0.83052238  1
  H+  H5  1  0.86637826  0.72748821  0.33866033  1
  H+  H6  1  0.89932429  0.13067012  0.52355517  1
  H+  H7  1  0.11703955  0.39543272  0.15702308  1
  H+  H8  1  0.88491947  0.01412651  0.66373121  1
  H+  H9  1  0.87161009  -0.01278464  0.49164270  1
  H+  H10  1  0.80354809  0.30440514  0.02765727  1
  H+  H11  1  0.64032732  0.77936550  0.66633007  1
  H+  H12  1  0.23623097  0.36745631  0.97893515  1
  H+  H13  1  0.78203433  0.91914635  0.34149218  1
  H+  H14  1  0.62985589  0.09531302  1.00500643  1
  H+  H15  1  0.35881295  0.89268669  0.15832889  1
  H+  H16  1  1.02500172  0.64120474  0.15265154  1
  H+  H17  1  0.36066851  0.72364369  0.49360660  1
  H+  H18  1  0.07266535  0.66990723  0.36204222  1
  H+  H19  1  0.22572735  0.11124816  0.66005727  1
  H+  H20  1  0.36507901  0.44791089  0.85125850  1
  H+  H21  1  0.86124610  -0.02534891  0.99982680  1
  H+  H22  1  0.47809732  0.87105923  0.82635503  1
  H+  H23  1  0.47403704  0.63248610  0.82956925  1
  H+  H24  1  0.62284489  0.61435215  0.15533135  1
  H+  H25  1  0.13654800  0.60663453  0.65295601  1
  H+  H26  1  0.11592627  0.12425922  0.67379104  1
  H+  H27  1  0.86964420  0.63709268  0.00312747  1
  H+  H28  1  0.69715828  0.61702052  0.87220803  1
  H+  H29  1  0.31440548  0.13833150  0.73207445  1
  H+  H30  1  0.11628003  0.23222761  0.99353305  1
  H+  H31  1  0.55576825  0.92944845  0.45002102  1
  H+  H32  1  0.86412944  0.37638205  0.66812749  1
  H+  H33  1  0.37438299  -0.00390276  0.80837231  1
  H+  H34  1  0.83695152  0.41217024  0.72518393  1
  H+  H35  1  0.63934989  0.12423376  0.19392765  1
  H+  H36  1  0.70999064  0.61100633  0.15562828  1
  H+  H37  1  0.02889659  0.39831171  0.15561136  1
  H+  H38  1  0.34329925  0.13917132  1.00792978  1
  H+  H39  1  0.40691761  0.84479383  0.24530316  1
  H+  H40  1  0.47225072  0.35466800  0.18064487  1
  H+  H41  1  0.32574770  0.90634170  0.09321170  1
  H+  H42  1  0.46477781  0.36418728  0.33397171  1
  H+  H43  1  0.88030686  0.49215419  0.33212314  1
  H+  H44  1  0.10383064  0.47410674  0.67126828  1
  H+  H45  1  0.35770557  0.72355343  0.67102987  1
  H+  H46  1  0.40314016  1.03453363  0.13072572  1
  H+  H47  1  0.23879657  0.13575342  0.31526167  1
  H+  H48  1  0.12321097  0.15630787  0.49227262  1
  H+  H49  1  0.61147443  0.73468925  0.82544219  1
  H+  H50  1  0.22490075  0.86535919  0.16779236  1
  H+  H51  1  0.87184152  0.63064739  0.65582942  1
  H+  H52  1  0.89638860  0.53720455  0.49876034  1
  H+  H53  1  0.77539304  0.90313312  0.14441307  1
  H+  H54  1  0.13870449  0.53054700  0.16320414  1
  H+  H55  1  0.37316064  0.72924170  -0.00156742  1
  H+  H56  1  0.36026485  0.15380635  0.34195402  1
  H+  H57  1  0.63367159  0.10784788  0.84759781  1
  H+  H58  1  1.01892345  0.37861446  0.67586191  1
  H+  H59  1  0.38371564  0.61656489  -0.01573529  1
  H+  H60  1  0.89721510  0.79223555  0.16260141  1
  H+  H61  1  0.22461685  0.60558926  0.65753199  1
  H+  H62  1  0.36168044  0.21710687  0.68840899  1
  H+  H63  1  0.60763012  0.62039242  0.33081156  1
  H+  H64  1  0.37987354  0.01460552  0.67258497  1
  H+  H65  1  0.02358968  0.88702783  0.00933022  1
  H+  H66  1  0.24247579  0.63249734  0.17338527  1
  H+  H67  1  0.38383319  0.61378114  0.66019579  1
  H+  H68  1  0.38117632  0.22609535  0.16749093  1
  H+  H69  1  1.08812372  0.43470466  0.76387530  1
  H+  H70  1  0.87964759  0.25533367  0.51974234  1
  H+  H71  1  0.98799708  0.62456576  0.50643443  1
  H+  H72  1  0.25156167  0.14927105  0.50363679  1
  H+  H73  1  0.35504609  0.74575864  0.81807761  1
  H+  H74  1  0.15000109  0.39182015  0.65566546  1
  H+  H75  1  0.72084630  0.35878339  0.18162995  1
  H+  H76  1  0.40456300  0.83379518  0.61294550  1
  H+  H77  1  0.88737689  0.27992738  0.30818431  1
  H+  H78  1  0.76816666  0.12340412  0.68098557  1
  H+  H79  1  0.20756186  0.08142600  0.83489021  1
  H+  H80  1  0.37845770  0.54342478  0.16472458  1
  H+  H81  1  0.15004532  0.37225450  0.99098084  1
  H+  H82  1  0.68302006  0.62614440  0.24497133  1
  H+  H83  1  0.61484085  0.82197460  0.38916153  1
  H+  H84  1  0.73922582  0.64106270  0.30664666  1
  H+  H85  1  0.41204879  0.08624133  1.04698051  1
  H+  H86  1  0.16234904  0.35819021  0.89723358  1
  H+  H87  1  0.15207609  0.53504973  -0.00728507  1
  H+  H88  1  0.35483673  0.13114248  0.48066783  1
  H+  H89  1  0.10747360  0.13853773  0.99705647  1
  H+  H90  1  0.60985043  0.99384990  0.17511172  1
  H+  H91  1  0.86699681  0.64289399  0.49185150  1
  H+  H92  1  0.14902880  0.62186838  0.99103141  1
  H+  H93  1  0.10560690  0.08975505  0.83031931  1
  H+  H94  1  0.86293023  0.88164721  0.67441403  1
  H+  H95  1  0.41563024  0.58846508  0.22989616  1
  H+  H96  1  1.02904112  0.63265757  0.66857399  1
  H+  H97  1  0.62537891  0.78188381  0.12942848  1
  H+  H98  1  0.11964542  0.98984940  0.83311381  1
  H+  H99  1  0.88836921  0.12419295  0.98959284  1
  H+  H100  1  0.99229373  0.59166272  0.83966230  1
  H+  H101  1  0.41168592  0.01364306  0.32596564  1
  H+  H102  1  0.17648381  0.10865501  0.21761999  1
  H+  H103  1  0.92418558  0.08281851  0.57057169  1
  H+  H104  1  0.11988203  0.88549665  0.66886911  1
  H+  H105  1  0.21560314  0.86110384  0.97648229  1
  H+  H106  1  0.61291406  0.21332435  0.03532570  1
  H+  H107  1  0.85703769  0.12131716  0.67967498  1
  H+  H108  1  0.73655979  0.60587383  0.64017810  1
  H+  H109  1  0.51099366  0.37998794  0.49896372  1
  H+  H110  1  0.81822155  0.67300999  0.20832702  1
  H+  H111  1  0.22911464  0.36816352  0.31745819  1
  H+  H112  1  0.86048713  0.97716686  0.82559871  1
  H+  H113  1  0.14690915  0.51874299  0.33166597  1
  H+  H114  1  0.33195695  0.18379808  0.82496773  1
  H+  H115  1  0.39596153  0.35771367  0.69987680  1
  H+  H116  1  0.17222266  0.57323556  0.56296978  1
  H+  H117  1  0.88299400  0.25609293  0.67698540  1
  H+  H118  1  0.12446012  0.85627697  0.49585074  1
  H+  H119  1  0.02942808  0.15126524  0.33103441  1
  H+  H120  1  0.73210782  0.35894226  0.65591876  1
  H+  H121  1  0.13187703  0.71119708  0.82168444  1
  H+  H122  1  0.03373131  0.89907850  0.16007518  1
  H+  H123  1  0.11842149  0.50947104  0.81859527  1
  H+  H124  1  0.48282204  0.35594555  0.69400149  1
  H+  H125  1  0.57183274  0.42228293  0.40778742  1
  H+  H126  1  0.61397392  0.97579619  0.82628663  1
  H+  H127  1  0.90939236  0.28643577  0.98032174  1
  H+  H128  1  0.39928566  0.88066882  0.33875686  1
  H+  H129  1  0.37412904  0.09881914  0.66036717  1
  H+  H130  1  0.16821388  0.74252022  0.34421566  1
  H+  H131  1  0.47441383  0.91074336  0.97264733  1
  H+  H132  1  0.86330534  0.14431805  0.30181195  1
  H+  H133  1  0.69382683  0.81601128  0.41129986  1
  H+  H134  1  0.14387945  0.52070211  0.49912322  1
  H+  H135  1  0.65054381  0.77535946  0.51927697  1
  H+  H136  1  0.79432689  0.16774513  0.53423572  1
  H+  H137  1  0.27224051  0.85076536  0.53079246  1
  H+  H138  1  0.38493945  0.26825373  0.49508024  1
  H+  H139  1  0.38687527  0.86062190  0.67917448  1
  H+  H140  1  0.37513117  0.26882695  0.33532012  1
  H+  H141  1  0.62346876  0.38825797  0.66646994  1
  H+  H142  1  0.52116500  0.87827098  0.35888255  1
  H+  H143  1  0.51366539  0.34178005  1.00613157  1
  H+  H144  1  0.37119859  0.63399877  0.33782183  1
  H+  H145  1  0.12320614  0.63520502  0.50494686  1
  H+  H146  1  0.73818146  0.86505286  0.51390853  1
  H+  H147  1  -0.02613930  0.10235856  0.66639403  1
  H+  H148  1  0.77023989  0.12261110  0.83436279  1
  H+  H149  1  0.88570152  0.10433199  0.83869083  1
  H+  H150  1  0.61649254  0.88580974  0.67315030  1
  H+  H151  1  0.63131627  0.27229974  0.19712243  1
  H+  H152  1  0.12671211  1.01760036  -0.00449416  1
  H+  H153  1  0.58106647  0.56380604  -0.02209275  1
  H+  H154  1  0.64304766  0.28399861  0.50235671  1
  H+  H155  1  0.62310108  0.51158870  0.50307094  1
  H+  H156  1  0.64382598  0.51468302  0.64668414  1
  H+  H157  1  0.51720618  0.64639646  0.14914142  1
  H+  H158  1  0.87636263  -0.09974436  0.48722581  1
  H+  H159  1  0.89248456  0.51888404  0.65232271  1
  H+  H160  1  0.44250774  0.12779415  0.28755185  1
  H+  H161  1  0.87413483  0.40000790  0.33311498  1
  H+  H162  1  0.89840726  0.50747881  0.83529828  1
  H+  H163  1  0.35702090  0.38051399  0.33338076  1
  H+  H164  1  0.86177599  0.63550327  0.16625861  1
  H+  H165  1  0.86854159  0.88964104  0.00246627  1
  H+  H166  1  0.15003870  0.13256616  0.31151373  1
  H+  H167  1  0.85807596  0.85951510  0.31528821  1
  H+  H168  1  0.64649395  0.01555814  1.00338248  1
  H+  H169  1  0.51339519  0.12311996  0.82091704  1
  H+  H170  1  0.60926013  0.64499445  0.82096298  1
  H+  H171  1  0.63288283  0.27372510  0.84229407  1
  H+  H172  1  0.23013869  0.85012665  0.81973759  1
  H+  H173  1  0.15730511  0.61967597  0.34259702  1
  H+  H174  1  0.87696870  0.26175910  0.83164005  1
  H+  H175  1  0.98571259  0.85623337  0.84513841  1
  H+  H176  1  0.11373104  0.38775571  0.48170677  1
  H+  H177  1  0.60628462  0.38697021  0.49749590  1
  H+  H178  1  1.03021911  0.39986334  0.47869044  1
  H+  H179  1  0.54404199  0.86085971  1.01817170  1
  H+  H180  1  0.40817171  0.13028017  0.13214324  1
  H+  H181  1  0.26894289  0.87100232  0.31757165  1
  H+  H182  1  0.57549998  0.15855841  0.59869580  1
  H+  H183  1  0.86929181  0.15136796  0.15486852  1
  H+  H184  1  0.38369934  0.35654176  0.49686641  1
  H+  H185  1  0.11193415  0.88774170  0.99981195  1
  H+  H186  1  0.60489048  0.47066145  0.15393080  1
  H+  H187  1  0.89418624  0.77842871  0.99747184  1
  H+  H188  1  0.38151668  0.55974473  0.80950688  1
  H+  H189  1  0.89811510  0.51653448  0.99464845  1
  H+  H190  1  0.63154371  0.39836160  0.82314730  1
  H+  H191  1  0.62896331  0.86846833  0.15201415  1
  H+  H192  1  0.46267817  0.85406931  0.52666170  1
  H+  H193  1  0.14140553  0.04300383  0.16290908  1
  H+  H194  1  0.39042379  0.61332365  0.50426000  1
  H+  H195  1  0.15071283  0.06728710  0.93249320  1
  H+  H196  1  0.62990748  0.24550276  0.35216434  1
  H+  H197  1  0.90241873  0.76847444  0.85763044  1
  H+  H198  1  0.67750702  0.83777746  0.89202118  1
  H+  H199  1  0.52392059  0.88200028  0.67486912  1
  H+  H200  1  0.89294678  0.77608563  0.64816968  1
  H+  H201  1  0.86245586  0.38795138  0.16300844  1
  H+  H202  1  0.33837217  0.35474352  0.83063930  1
  H+  H203  1  0.58301560  0.47935933  -0.01182312  1
  H+  H204  1  0.63819059  0.27331868  0.64839370  1
  H+  H205  1  0.05584076  0.83049154  0.39197936  1
  H+  H206  1  0.02672397  0.14190891  0.49323792  1
  H+  H207  1  0.24893431  0.61462214  0.33637505  1
  H+  H208  1  0.61369032  0.95954730  0.36429253  1
  H+  H209  1  0.52629626  0.65118874  0.67067049  1
  H+  H210  1  0.25577143  0.13999048  0.00341538  1
  H+  H211  1  0.12274855  0.39207852  0.32642656  1
  H+  H212  1  0.88432046  0.62530989  0.84545327  1
  H+  H213  1  0.17117836  0.34058795  0.22247072  1
  H+  H214  1  0.77231219  0.36850905  1.00324497  1
  H+  H215  1  0.63248974  0.01632578  0.66463744  1
  H+  H216  1  0.73467386  0.38577850  0.33371860  1
  H+  H217  1  0.33958285  0.09805346  0.81912712  1
  H+  H218  1  0.77581302  0.13977886  0.32028884  1
  H+  H219  1  0.03360763  0.85144524  0.49260253  1
  H+  H220  1  0.34843545  0.88062012  -0.00989972  1
  H+  H221  1  0.11613671  -0.02684951  0.66498509  1
  H+  H222  1  0.62311018  0.15212562  0.49975774  1
  H+  H223  1  0.63015084  0.60819990  0.50423050  1
  H+  H224  1  0.77650826  0.40054644  0.48490800  1
  H+  H225  1  0.34888130  -0.03079968  0.99942718  1
  H+  H226  1  0.13893121  0.28165441  0.16194563  1
  H+  H227  1  0.35106954  0.73716136  0.18127127  1
  H+  H228  1  0.76062095  0.88563266  0.82252823  1
  H+  H229  1  0.86039388  0.90165280  0.16327237  1
  H+  H230  1  0.74240570  0.85913904  -0.02041980  1
  H+  H231  1  0.27212983  0.38916830  0.48561230  1
  H+  H232  1  0.88238420  0.52045920  0.16374896  1
  H+  H233  1  0.11569932  0.14795282  0.15124661  1
  H+  H234  1  0.09063384  0.65243934  0.72666256  1
  H+  H235  1  0.85964439  0.37412219  0.81646371  1
  H+  H236  1  0.63885015  0.04605735  0.51238301  1
  H+  H237  1  0.78075971  0.15209262  0.16123471  1
  H+  H238  1  0.65296956  0.85618124  0.98019576  1
  H+  H239  1  0.27659248  0.63245381  0.49021927  1
  H+  H240  1  0.77234094  0.15147156  0.00765164  1
  H+  H241  1  0.83393276  0.18974368  0.06593801  1
  H+  H242  1  0.46468947  0.87276091  0.18629536  1
  H+  H243  1  0.61123901  0.38577754  0.16578328  1
  H+  H244  1  0.37193083  0.47978695  -0.01476630  1
  H+  H245  1  0.60941465  0.41018267  0.34622048  1
  H+  H246  1  0.22049276  0.38222874  0.83769778  1
  H+  H247  1  0.77506167  0.38383611  0.81773250  1
  H+  H248  1  0.89503274  0.39420255  0.49392663  1
  H+  H249  1  0.13101448  0.27477876  0.49870946  1
  H+  H250  1  1.04620783  0.87489424  0.33484398  1
  H+  H251  1  0.04388964  0.39549824  -0.00096418  1
  H+  H252  1  0.13792410  0.28125113  0.31759198  1
  H+  H253  1  0.34680886  0.65456571  0.82491744  1
  H+  H254  1  0.98072907  0.86495374  0.65410752  1
  H+  H255  1  0.27466805  0.88252320  0.70431670  1
  H+  H256  1  0.28746391  0.39850562  0.67774641  1
  H+  H257  1  0.89961864  0.04082667  0.31503296  1
  H+  H258  1  0.88875034  0.62481147  0.32060422  1
  H+  H259  1  0.37798564  0.26436301  0.98030901  1
  H+  H260  1  0.89390584  0.28562560  0.16881045  1
  H+  H261  1  0.53710640  0.13605231  0.23941871  1
  H+  H262  1  0.11110158  0.21012355  0.68513220  1
  H+  H263  1  0.63498768  0.11703371  0.34398006  1
  H+  H264  1  0.88922381  0.03840166  0.16850130  1
  H+  H265  1  0.64115383  0.87020478  0.83443935  1
  H+  H266  1  0.52548171  0.63652832  0.49830672  1
  H+  H267  1  0.92303312  0.33425233  0.88139154  1
  H+  H268  1  0.01261730  0.10634073  0.83034372  1
  H+  H269  1  0.21212996  0.64643857  0.82157822  1
  H+  H270  1  0.13525347  0.62126653  0.16261982  1
  H+  H271  1  0.55530678  0.41819802  0.82578883  1
  H+  H272  1  0.36290780  0.47571784  0.48843537  1
  H+  H273  1  0.88769824  0.78112330  0.50049151  1
  H+  H274  1  0.37505238  0.51375499  0.31896998  1
  H+  H275  1  0.65685769  0.54568019  0.82273936  1
  H+  H276  1  0.49388370  -0.04572752  0.48523998  1
  H+  H277  1  0.61285468  0.71288403  0.99114195  1
  H+  H278  1  0.11398110  0.73185646  0.15725304  1
  H+  H279  1  0.11701608  0.86964471  0.81367527  1
  H+  H280  1  0.08929445  0.67749560  1.05885231  1
  H+  H281  1  0.63058449  0.10503234  0.65901567  1
  H+  H282  1  0.46971123  0.58683964  0.32315040  1
  H+  H283  1  0.39402158  0.53023051  0.66412219  1
  H+  H284  1  0.36524806  0.97055497  0.38976113  1
  H+  H285  1  0.98164485  0.64973043  0.29981220  1
  H+  H286  1  0.77416682  0.63484616  0.48944285  1
  H+  H287  1  0.34114636  0.42136826  0.04305353  1
  H+  H288  1  0.25907107  0.41099312  0.14085249  1
  H+  H289  1  0.92137760  0.84153530  0.55871396  1
  H+  H290  1  0.56818783  0.93787248  0.11642913  1
  H+  H291  1  0.67715565  0.34550172  0.55993658  1
  H+  H292  1  0.94839652  0.39871179  0.55209888  1
  H+  H293  1  0.38937199  0.87452306  0.81877318  1
  H+  H294  1  0.55562950  0.52703035  0.35483915  1
  H+  H295  1  0.32743408  0.41532802  0.39065448  1
  H+  H296  1  0.40954021  0.58970336  0.92147497  1
  H+  H297  1  0.39962513  0.06166050  0.54845028  1
  H+  H298  1  0.59060100  0.17862827  0.43977399  1
  H+  H299  1  0.92428969  0.56678834  0.93161375  1
  H+  H300  1  0.17125743  0.82319502  0.88163850  1
  H+  H301  1  0.83718490  0.66667110  0.39681436  1
  H+  H302  1  0.13747730  0.86529796  0.17543578  1
  H+  H303  1  0.91459060  0.07650788  0.89917338  1
  H+  H304  1  0.28241885  0.64373333  -0.00009343  1
  H+  H305  1  0.54042621  0.13276226  0.06847603  1
  H+  H306  1  0.38659022  0.78420529  0.33675187  1
  H+  H307  1  0.82131344  0.40078107  0.10374316  1
  H+  H308  1  0.45861540  0.11340611  0.98487957  1
  H+  H309  1  0.28172263  0.48597695  0.09518724  1
  H+  H310  1  0.92996841  0.09800517  0.25355438  1
  H+  H311  1  0.08512765  0.17856283  0.09171376  1
  H+  H312  1  0.09440602  0.42360861  0.06284387  1
  H+  H313  1  0.98003030  0.36634694  0.31920541  1
  H+  H314  1  0.81257026  0.20187425  0.41745147  1
  H+  H315  1  0.34238894  0.66431373  0.39902086  1
  H+  H316  1  0.92907570  0.83877950  0.93878893  1
  H+  H317  1  0.58794889  0.91853797  0.76438739  1
  H+  H318  1  0.56898838  0.66173001  0.08566957  1
  H+  H319  1  0.11385495  0.68813296  0.45219281  1
  H+  H320  1  0.66652695  0.57375022  0.57466523  1
  H+  H321  1  0.40665456  0.30455055  0.88310012  1
  H+  H322  1  0.62118303  0.87616309  0.06372312  1
  H+  H323  1  0.58765019  0.16362126  0.77230215  1
  H+  H324  1  0.07593773  0.13596110  0.76936288  1
  H+  H325  1  0.56852533  0.37806866  0.06965940  1
  H+  H326  1  0.67284613  0.09231648  0.57511255  1
  H+  H327  1  0.82591627  0.14735989  0.77286889  1
  H+  H328  1  0.23025244  0.45013823  0.61644498  1
  H+  H329  1  0.09257933  0.92016618  0.10165308  1
  H+  H330  1  0.19866427  0.82589011  0.26470298  1
  H+  H331  1  0.85431930  0.20160607  0.41796033  1
  H+  H332  1  0.68818517  0.09614128  0.23927339  1
  H+  H333  1  0.39867724  0.04557225  0.87404387  1
  H+  H334  1  0.32305263  0.66711127  0.72987224  1
  H+  H335  1  0.84501601  0.93699984  0.39722755  1
  H+  H336  1  0.77137261  0.88156165  0.67547483  1
  H+  H337  1  0.40447964  0.36190388  0.97211602  1
  H+  H338  1  0.67806188  0.84077774  0.60714214  1
  H+  H339  1  0.67588995  0.34755057  0.89431986  1
  H+  H340  1  0.73315038  0.45514207  0.96009081  1
  H+  H341  1  0.58479242  0.03678139  0.30401121  1
  H+  H342  1  0.09113500  0.41907451  0.38783243  1
  H+  H343  1  0.91343264  0.37366426  0.97849897  1
  H+  H344  1  0.83680624  0.66360891  0.70945313  1
  H+  H345  1  0.52755172  0.13878527  0.16810311  1
  H+  H346  1  0.17381639  0.77522078  0.52996099  1
  H+  H347  1  0.08662796  0.17807608  0.39164716  1
  H+  H348  1  0.12891324  0.77279969  0.97770522  1
  H+  H349  1  0.23721469  0.21105810  0.54621858  1
  H+  H350  1  0.42578960  0.84847208  0.91805926  1
  H+  H351  1  0.51489678  0.63551061  -0.00830733  1
  H+  H352  1  0.97719613  0.12399639  0.98889357  1
  H+  H353  1  0.90993771  0.84354860  0.22260856  1
  H+  H354  1  0.91433032  0.58181510  0.22210857  1
  H+  H355  1  0.16568363  0.34222160  0.55556534  1
  H+  H356  1  0.08434865  0.90470571  0.75794238  1
  H+  H357  1  0.50685709  0.12524133  0.64977186  1
  H+  H358  1  0.32762130  0.17083520  0.41957917  1
  H+  H359  1  0.54490223  0.15193011  0.33867903  1
  H+  H360  1  0.92548818  0.34728195  0.22741719  1
  H+  H361  1  0.32929342  0.17133926  0.10914169  1
  H+  H362  1  0.41658126  0.58225185  0.56456258  1
  H+  H363  1  0.66918192  0.35066108  0.27905484  1
  H+  H364  1  0.92483753  0.58215501  0.59369820  1
  H+  H365  1  0.57936130  0.67819544  0.73214328  1
  H+  H366  1  0.98160619  0.12754410  0.16068837  1
  H+  H367  1  0.89957408  0.28206992  0.61068422  1
  H+  H368  1  0.33521224  0.42125140  0.74176056  1
  H+  H369  1  0.69162736  0.88681399  0.25756496  1
  H+  H370  1  0.47122609  0.11135717  0.49964039  1
  H+  H371  1  0.79867961  0.76811224  0.28489965  1
  H+  H372  1  0.80478798  0.63441025  0.82157292  1
  H+  H373  1  0.83072740  0.91571882  0.76019639  1
  H+  H374  1  0.60783838  0.43086034  0.72549952  1
  H+  H375  1  0.17443164  0.09868552  0.59883145  1
  H+  H376  1  0.67997666  0.86295914  0.28737930  1
  H+  H377  1  0.66166438  0.07432887  0.90600064  1
  H+  H378  1  0.41209248  0.32286150  0.23945632  1
  H+  H379  1  0.35664503  0.64806041  0.17642581  1
  H+  H380  1  0.83472461  0.66203284  0.06013687  1
  H+  H381  1  0.83825217  0.43247109  0.42501782  1
  H+  H382  1  1.02862435  0.63834652  1.00119847  1
  H+  H383  1  0.59402710  0.68715764  0.44594057  1
  O2-  O384  1  0.08469407  0.18029991  0.13679244  1
  O2-  O385  1  0.08483739  0.17595464  0.47436177  1
  O2-  O386  1  0.07359719  0.12810265  0.81498087  1
  O2-  O387  1  0.09002922  0.42910602  0.14114360  1
  O2-  O388  1  0.09036294  0.42348441  0.46388043  1
  O2-  O389  1  0.09761981  0.44700985  0.80906672  1
  O2-  O390  1  0.08618554  0.67198353  0.13954861  1
  O2-  O391  1  0.09823186  0.67267910  0.49526906  1
  O2-  O392  1  0.10280483  0.64910575  0.80619294  1
  O2-  O393  1  0.09451767  0.92327569  0.14689956  1
  O2-  O394  1  0.07393742  0.83946438  0.47031120  1
  O2-  O395  1  0.08683721  0.90199376  0.80339922  1
  O2-  O396  1  0.35965775  0.16874425  0.14540606  1
  O2-  O397  1  0.32777076  0.16570528  0.46916729  1
  O2-  O398  1  0.30268527  0.12392589  0.80858714  1
  O2-  O399  1  0.30815157  0.45780537  0.11688932  1
  O2-  O400  1  0.33228030  0.41678093  0.47078487  1
  O2-  O401  1  0.32624876  0.40313230  0.82327964  1
  O2-  O402  1  0.32076099  0.67562059  0.16726454  1
  O2-  O403  1  0.33744652  0.66541736  0.47534921  1
  O2-  O404  1  0.31787153  0.68352695  0.80619740  1
  O2-  O405  1  0.33210712  0.92241790  0.13681348  1
  O2-  O406  1  0.37062024  0.87493671  0.50792293  1
  O2-  O407  1  0.33057989  0.91099599  0.78654205  1
  O2-  O408  1  0.57308465  0.16059609  0.19991857  1
  O2-  O409  1  0.58863074  0.17859175  0.48590911  1
  O2-  O410  1  0.57758055  0.16052749  0.81603711  1
  O2-  O411  1  0.57844403  0.40874474  0.14373419  1
  O2-  O412  1  0.57429752  0.41691611  0.48596209  1
  O2-  O413  1  0.60996544  0.43617708  0.80570226  1
  O2-  O414  1  0.57569579  0.67192059  0.13088244  1
  O2-  O415  1  0.58830504  0.66643483  0.48829673  1
  O2-  O416  1  0.57503607  0.67370879  0.81231541  1
  O2-  O417  1  0.57033591  0.93336520  0.16060672  1
  O2-  O418  1  0.54610387  0.94965162  0.49022704  1
  O2-  O419  1  0.58559955  0.91580010  0.81023596  1
  O2-  O420  1  0.83845845  0.18279072  0.14181153  1
  O2-  O421  1  0.85709571  0.20101406  0.54263821  1
  O2-  O422  1  0.83009197  0.14978886  0.81856458  1
  O2-  O423  1  0.82612688  0.41258354  0.14799263  1
  O2-  O424  1  0.83779795  0.43325496  0.47071204  1
  O2-  O425  1  0.83457746  0.41125652  0.80182925  1
  O2-  O426  1  0.83084995  0.66949908  0.16555530  1
  O2-  O427  1  0.83404844  0.66948496  0.47500288  1
  O2-  O428  1  0.85706943  0.66153353  0.84603300  1
  O2-  O429  1  0.82882032  0.93324121  0.16801162  1
  O2-  O430  1  0.84353630  0.92880086  0.47311366  1
  O2-  O431  1  0.82539564  0.91721573  0.80723004  1
  O2-  O432  1  0.16598281  0.10441283  0.17239953  1
  O2-  O433  1  0.20466093  0.15197905  0.53156320  1
  O2-  O434  1  0.14544754  0.05190126  0.84934093  1
  O2-  O435  1  0.16846083  0.34298898  0.17705724  1
  O2-  O436  1  0.16281006  0.33768675  0.51079277  1
  O2-  O437  1  0.16217858  0.36715856  0.85171345  1
  O2-  O438  1  0.16637623  0.59150089  0.17911879  1
  O2-  O439  1  0.17509230  0.57940540  0.51770048  1
  O2-  O440  1  0.15026353  0.61101931  0.83518038  1
  O2-  O441  1  0.16693173  0.83193328  0.18646005  1
  O2-  O442  1  0.21183355  0.83509321  0.54388926  1
  O2-  O443  1  0.17025536  0.81463861  0.83641299  1
  O2-  O444  1  0.44065423  0.09566573  0.11803285  1
  O2-  O445  1  0.40838918  0.07607973  0.50515328  1
  O2-  O446  1  0.40556607  0.05897044  0.83071855  1
  O2-  O447  1  0.41246877  0.31760205  0.19422368  1
  O2-  O448  1  0.41300856  0.32699087  0.51393570  1
  O2-  O449  1  0.37907088  0.29020563  0.84131670  1
  O2-  O450  1  0.41406089  0.59989317  0.18527227  1
  O2-  O451  1  0.41888595  0.58128423  0.51920706  1
  O2-  O452  1  0.41061498  0.60413482  0.84011387  1
  O2-  O453  1  0.40360905  0.84137390  0.19988328  1
  O2-  O454  1  0.40026260  0.82024292  0.53661638  1
  O2-  O455  1  0.41764725  0.84567537  0.84136444  1
  O2-  O456  1  0.67675180  0.09654858  0.19551169  1
  O2-  O457  1  0.67824788  0.10366774  0.53034410  1
  O2-  O458  1  0.66303517  0.07619183  0.86071250  1
  O2-  O459  1  0.66315064  0.33643728  0.20029942  1
  O2-  O460  1  0.67466791  0.34637214  0.51471271  1
  O2-  O461  1  0.66779280  0.33648094  0.84964999  1
  O2-  O462  1  0.65134013  0.58307353  0.17256113  1
  O2-  O463  1  0.65974796  0.57488555  0.51739893  1
  O2-  O464  1  0.68200455  0.60841451  0.82915591  1
  O2-  O465  1  0.65349076  0.84553973  0.12230971  1
  O2-  O466  1  0.68113936  0.83566787  0.53352923  1
  O2-  O467  1  0.67484694  0.84102633  0.84546749  1
  O2-  O468  1  0.92199015  0.10180867  0.17799452  1
  O2-  O469  1  0.92423341  0.09215956  0.52583154  1
  O2-  O470  1  0.91507698  0.07183741  0.85334309  1
  O2-  O471  1  0.92492605  0.34749627  0.18173688  1
  O2-  O472  1  0.93339937  0.37288932  0.51178376  1
  O2-  O473  1  0.90585408  0.32472348  0.83815005  1
  O2-  O474  1  0.91438901  0.58229019  0.17677537  1
  O2-  O475  1  0.92574387  0.59522064  0.51820547  1
  O2-  O476  1  0.93323710  0.56451225  0.85603675  1
  O2-  O477  1  0.92494466  0.85141073  0.17835539  1
  O2-  O478  1  0.92221880  0.84204274  0.51346767  1
  O2-  O479  1  0.92986663  0.83120529  0.86603412  1
  O2-  O480  1  0.18251064  0.10782056  0.29288080  1
  O2-  O481  1  0.16543856  0.08284898  0.64319850  1
  O2-  O482  1  0.15272427  0.07683223  0.97678230  1
  O2-  O483  1  0.16852120  0.34166198  0.30086102  1
  O2-  O484  1  0.19777945  0.39153174  0.63207462  1
  O2-  O485  1  0.17381127  0.33990982  0.96845601  1
  O2-  O486  1  0.18324478  0.58530437  0.32419071  1
  O2-  O487  1  0.16447451  0.57233060  0.64087930  1
  O2-  O488  1  0.18281389  0.59500949  0.97789965  1
  O2-  O489  1  0.22331017  0.81521514  0.30174528  1
  O2-  O490  1  0.18173627  0.83794917  0.66087446  1
  O2-  O491  1  0.15675053  0.83131895  0.95862721  1
  O2-  O492  1  0.47595053  0.09986697  0.29549253  1
  O2-  O493  1  0.40346379  0.06685171  0.64708588  1
  O2-  O494  1  0.40033630  0.08157505  1.00144272  1
  O2-  O495  1  0.40591648  0.33242939  0.31679070  1
  O2-  O496  1  0.42400025  0.32420977  0.71139958  1
  O2-  O497  1  0.42133635  0.31938694  0.95939556  1
  O2-  O498  1  0.41264430  0.57616905  0.30730919  1
  O2-  O499  1  0.41660398  0.58670488  0.64380152  1
  O2-  O500  1  0.41211633  0.58429808  0.96597467  1
  O2-  O501  1  0.42362353  0.84433849  0.32354055  1
  O2-  O502  1  0.41375288  0.83137765  0.65777771  1
  O2-  O503  1  0.42899588  0.85243538  0.96385844  1
  O2-  O504  1  0.63992473  0.06820627  0.32500021  1
  O2-  O505  1  0.66674780  0.07849100  0.65207143  1
  O2-  O506  1  0.66548643  0.07325275  0.98635018  1
  O2-  O507  1  0.67235406  0.35489856  0.32431697  1
  O2-  O508  1  0.67228320  0.33595497  0.63984647  1
  O2-  O509  1  0.70355375  0.39312948  0.96653817  1
  O2-  O510  1  0.70797243  0.66262968  0.28202200  1
  O2-  O511  1  0.67474373  0.57385146  0.62684885  1
  O2-  O512  1  0.58067029  0.51563436  0.95607337  1
  O2-  O513  1  0.64028174  0.78426017  0.38890093  1
  O2-  O514  1  0.67594499  0.84228820  0.65315444  1
  O2-  O515  1  0.68075751  0.82623099  0.96183138  1
  O2-  O516  1  0.92870342  0.10050733  0.29934849  1
  O2-  O517  1  0.91471345  0.07546612  0.64990291  1
  O2-  O518  1  0.91581076  0.09240548  0.97410437  1
  O2-  O519  1  0.92059302  0.34443654  0.30419211  1
  O2-  O520  1  0.91183720  0.30946573  0.65130253  1
  O2-  O521  1  0.94429604  0.34516203  0.96302607  1
  O2-  O522  1  0.92345255  0.60074589  0.30028026  1
  O2-  O523  1  0.92328017  0.58047347  0.63955361  1
  O2-  O524  1  0.92107581  0.57343845  0.97685376  1
  O2-  O525  1  0.85956437  0.81251607  0.29242694  1
  O2-  O526  1  0.91977849  0.83832418  0.63961280  1
  O2-  O527  1  0.92550350  0.83998956  0.98494456  1
  O2-  O528  1  0.08041841  0.17293266  0.00990356  1
  O2-  O529  1  0.08954580  0.18322524  0.34677528  1
  O2-  O530  1  0.08211733  0.14922561  0.69524764  1
  O2-  O531  1  0.10218645  0.42437814  0.01780745  1
  O2-  O532  1  0.09323334  0.42445780  0.34229794  1
  O2-  O533  1  0.07907344  0.41559910  0.69071131  1
  O2-  O534  1  0.08951695  0.67550781  0.01359954  1
  O2-  O535  1  0.13231384  0.68644845  0.36936896  1
  O2-  O536  1  0.09019932  0.66062786  0.68200609  1
  O2-  O537  1  0.08655357  0.91842481  0.02140519  1
  O2-  O538  1  0.03695833  0.81949151  0.34880007  1
  O2-  O539  1  0.08500200  0.91300106  0.68040933  1
  O2-  O540  1  0.31678161  0.17465420  0.01726908  1
  O2-  O541  1  0.33044394  0.18221519  0.35748931  1
  O2-  O542  1  0.32420121  0.15320426  0.68783671  1
  O2-  O543  1  0.34563754  0.41814026  -0.00151813  1
  O2-  O544  1  0.32577583  0.41335179  0.34540675  1
  O2-  O545  1  0.34457793  0.42300959  0.69727424  1
  O2-  O546  1  0.34473830  0.66973589  0.01232833  1
  O2-  O547  1  0.33959595  0.66357668  0.35331782  1
  O2-  O548  1  0.32624414  0.66203253  0.68472080  1
  O2-  O549  1  0.31680263  0.90662358  0.00900549  1
  O2-  O550  1  0.37031220  0.95607991  0.34786215  1
  O2-  O551  1  0.33633750  0.91390150  0.71850414  1
  O2-  O552  1  0.57828116  0.15105277  0.03234206  1
  O2-  O553  1  0.60083902  0.18459193  0.36586920  1
  O2-  O554  1  0.57169057  0.15950834  0.64300059  1
  O2-  O555  1  0.56919010  0.35935057  0.02678580  1
  O2-  O556  1  0.57109220  0.42990428  0.36293441  1
  O2-  O557  1  0.59699777  0.42292743  0.68096727  1
  O2-  O558  1  0.57326429  0.65653276  0.00982098  1
  O2-  O559  1  0.55508221  0.58165942  0.35359769  1
  O2-  O560  1  0.58530995  0.68295068  0.68729110  1
  O2-  O561  1  0.60278039  0.90278076  0.02998588  1
  O2-  O562  1  0.57660489  0.90209530  0.38192004  1
  O2-  O563  1  0.58486305  0.91526433  0.68876103  1
  O2-  O564  1  0.83110429  0.19568687  0.02054620  1
  O2-  O565  1  0.82862016  0.17360440  0.29722268  1
  O2-  O566  1  0.82767328  0.15063529  0.69820751  1
  O2-  O567  1  0.81908203  0.36512823  0.02574399  1
  O2-  O568  1  0.84772252  0.43367378  0.34933820  1
  O2-  O569  1  0.83724813  0.41118218  0.67932684  1
  O2-  O570  1  0.84105209  0.66907374  0.01627566  1
  O2-  O571  1  0.83824900  0.66638235  0.35128995  1
  O2-  O572  1  0.83823347  0.66121736  0.66522735  1
  O2-  O573  1  0.82983265  0.91346270  0.01104579  1
  O2-  O574  1  0.84173284  0.93751109  0.35135527  1
  O2-  O575  1  0.83332811  0.91159701  0.69178619  1
