# generated using pymatgen
data_H2O
_symmetry_space_group_name_H-M   'P 1'
_cell_length_a   17.97804682
_cell_length_b   17.98335679
_cell_length_c   21.98848061
_cell_angle_alpha   89.99159197
_cell_angle_beta   89.97470483
_cell_angle_gamma   120.00315394
_symmetry_Int_Tables_number   1
_chemical_formula_structural   H2O
_chemical_formula_sum   'H384 O192'
_cell_volume   6156.37740790
_cell_formula_units_Z   192
loop_
 _symmetry_equiv_pos_site_id
 _symmetry_equiv_pos_as_xyz
  1  'x, y, z'
loop_
 _atom_type_symbol
 _atom_type_oxidation_number
  H+  1.0
  O2-  -2.0
loop_
 _atom_site_type_symbol
 _atom_site_label
 _atom_site_symmetry_multiplicity
 _atom_site_fract_x
 _atom_site_fract_y
 _atom_site_fract_z
 _atom_site_occupancy
  H+  H0  1  0.11358742  0.13019467  0.67522568  1
  H+  H1  1  0.35603497  0.12488071  0.34248906  1
  H+  H2  1  0.02254939  0.88844133  -0.00855152  1
  H+  H3  1  0.62993075  0.00095064  0.67342007  1
  H+  H4  1  0.02185756  0.12413360  0.67103105  1
  H+  H5  1  0.47893280  0.57519627  0.49903902  1
  H+  H6  1  0.03724753  0.94949678  0.83934520  1
  H+  H7  1  0.15168829  0.87184204  0.17043355  1
  H+  H8  1  0.64037051  0.28017531  0.99322692  1
  H+  H9  1  0.61663870  0.47914898  0.00387064  1
  H+  H10  1  0.16010472  0.37135552  0.85972135  1
  H+  H11  1  0.61952080  0.98827926  0.15609244  1
  H+  H12  1  0.38723749  0.26603099  0.50652898  1
  H+  H13  1  0.39239849  0.51897863  0.65760000  1
  H+  H14  1  0.62259530  -0.01657749  1.00283933  1
  H+  H15  1  0.54450675  0.40655281  0.16129893  1
  H+  H16  1  0.12104034  0.97243436  0.34556500  1
  H+  H17  1  1.02928232  0.13237709  0.48940408  1
  H+  H18  1  0.85011276  0.12246892  0.50008459  1
  H+  H19  1  0.11468713  0.62902118  0.81985136  1
  H+  H20  1  1.01752861  0.13047889  0.17441990  1
  H+  H21  1  0.64346430  0.37548890  0.65823729  1
  H+  H22  1  0.79101830  0.65073101  0.32988680  1
  H+  H23  1  0.33481989  0.40786054  0.73319362  1
  H+  H24  1  0.60076822  0.44940247  0.34975180  1
  H+  H25  1  0.10082894  0.42357252  0.91718975  1
  H+  H26  1  0.64694207  0.87581721  0.65103371  1
  H+  H27  1  0.81686019  0.12585551  0.41112818  1
  H+  H28  1  0.38328601  0.02771584  0.50373332  1
  H+  H29  1  0.87327956  0.10936991  0.68413240  1
  H+  H30  1  0.96518106  0.60445419  1.00201508  1
  H+  H31  1  0.62558472  0.90262990  0.15728304  1
  H+  H32  1  0.85768574  0.46955152  1.01669264  1
  H+  H33  1  -0.03230767  0.35289960  0.39139163  1
  H+  H34  1  0.17333687  0.53971580  0.33726726  1
  H+  H35  1  0.38295481  0.35437255  0.66079415  1
  H+  H36  1  0.21861557  0.09878115  0.66731006  1
  H+  H37  1  0.87902668  0.00629488  0.51008658  1
  H+  H38  1  0.63947299  0.36883066  0.99049768  1
  H+  H39  1  0.39962701  0.78195725  0.17300945  1
  H+  H40  1  0.60620992  0.47721736  0.67553375  1
  H+  H41  1  0.74310530  0.59952444  0.51131614  1
  H+  H42  1  0.11081888  0.72847475  1.00379023  1
  H+  H43  1  0.48611293  0.14516810  1.00265966  1
  H+  H44  1  0.36025201  0.13257444  0.67451417  1
  H+  H45  1  -0.02242591  0.35616370  0.64578135  1
  H+  H46  1  0.59623508  0.18578990  0.07263170  1
  H+  H47  1  0.40831436  0.87090618  -0.00696558  1
  H+  H48  1  0.82378039  0.89412241  0.72991879  1
  H+  H49  1  0.37716740  0.59967108  0.83477859  1
  H+  H50  1  0.22636402  0.10695221  0.32671881  1
  H+  H51  1  0.35712881  0.36796927  0.49055873  1
  H+  H52  1  0.61139716  0.97412090  0.33599351  1
  H+  H53  1  0.89212524  0.79037435  0.98644329  1
  H+  H54  1  0.10405621  0.11556578  0.84675196  1
  H+  H55  1  0.34245513  0.89970333  0.49733293  1
  H+  H56  1  0.32898450  0.98467361  0.65909644  1
  H+  H57  1  0.89985084  0.86502296  0.33120465  1
  H+  H58  1  0.08590686  0.67674083  0.48874986  1
  H+  H59  1  0.38487668  0.77318530  0.49878476  1
  H+  H60  1  0.88120211  0.39586198  0.83750446  1
  H+  H61  1  0.77236239  0.64232918  1.00182022  1
  H+  H62  1  0.60444365  0.36650491  0.15173079  1
  H+  H63  1  0.13005883  0.26640856  0.65921811  1
  H+  H64  1  0.40443326  0.05512395  0.99821188  1
  H+  H65  1  0.23926248  0.36598796  0.32977340  1
  H+  H66  1  0.14884911  0.62355018  0.98497878  1
  H+  H67  1  0.10856261  0.90732854  -0.03961814  1
  H+  H68  1  0.11239229  0.97734539  0.16222343  1
  H+  H69  1  0.78220470  0.88733167  0.33984051  1
  H+  H70  1  0.88792832  -0.00070772  0.66500194  1
  H+  H71  1  0.46593116  0.34838550  0.33513322  1
  H+  H72  1  0.47951062  0.37275039  1.00034420  1
  H+  H73  1  0.48229308  0.60179849  0.17199220  1
  H+  H74  1  0.36212496  0.15495193  1.01660092  1
  H+  H75  1  0.38325868  0.63807280  0.66385932  1
  H+  H76  1  0.37891900  0.37993814  0.82875105  1
  H+  H77  1  0.06440246  0.43740355  0.09180013  1
  H+  H78  1  0.27237079  0.38250018  0.67516739  1
  H+  H79  1  0.29230988  0.63903732  0.16457187  1
  H+  H80  1  0.18965281  0.86033579  0.81454269  1
  H+  H81  1  0.43380629  0.59440418  0.24334875  1
  H+  H82  1  0.51772677  0.63779803  -0.00897029  1
  H+  H83  1  0.39131486  0.11925434  0.50484678  1
  H+  H84  1  0.64445205  0.77795085  0.32453381  1
  H+  H85  1  0.40827044  0.40343041  0.17771801  1
  H+  H86  1  0.72484141  0.11265629  0.99447058  1
  H+  H87  1  1.02826640  0.63387675  0.83008149  1
  H+  H88  1  0.65002182  0.12998814  0.17391739  1
  H+  H89  1  0.71368173  0.56485749  0.15305492  1
  H+  H90  1  0.60798952  0.60375674  0.13742050  1
  H+  H91  1  0.48456439  0.90307582  0.51959593  1
  H+  H92  1  0.40711934  0.05689227  0.78483415  1
  H+  H93  1  0.09509766  0.85604456  0.67084300  1
  H+  H94  1  0.09697151  0.76285115  0.66572669  1
  H+  H95  1  0.13869753  0.11023679  0.32620821  1
  H+  H96  1  0.18912672  0.86469685  0.65631856  1
  H+  H97  1  0.02598278  0.19569483  0.80582256  1
  H+  H98  1  0.62859180  0.77191598  0.98351160  1
  H+  H99  1  0.63740833  0.27354497  0.50606757  1
  H+  H100  1  0.14941121  0.53932111  0.17563960  1
  H+  H101  1  0.39712259  0.52571421  0.32797914  1
  H+  H102  1  0.42560313  0.87319552  0.57895420  1
  H+  H103  1  0.95194983  0.36475096  0.17009884  1
  H+  H104  1  -0.03160544  0.64715766  0.48876342  1
  H+  H105  1  0.14772913  0.86216990  0.32176378  1
  H+  H106  1  0.09974668  0.12554652  0.00993963  1
  H+  H107  1  0.15171749  0.28232199  0.83949242  1
  H+  H108  1  0.60411877  0.12518577  0.33590111  1
  H+  H109  1  0.15100318  0.76449015  0.79310376  1
  H+  H110  1  0.99620890  0.87414724  0.67888075  1
  H+  H111  1  0.37698695  0.71958344  0.82249781  1
  H+  H112  1  0.89570934  0.11887106  0.17135888  1
  H+  H113  1  0.13686267  0.46953303  0.52199590  1
  H+  H114  1  0.27440198  0.13310700  0.50084948  1
  H+  H115  1  0.08998800  0.20865237  0.00899924  1
  H+  H116  1  0.65300790  0.29289191  0.66045563  1
  H+  H117  1  0.76310263  0.61801073  0.83986959  1
  H+  H118  1  0.67439997  0.61609522  0.83676966  1
  H+  H119  1  0.18336265  0.84565418  0.23218242  1
  H+  H120  1  0.37169366  0.88922809  0.34303448  1
  H+  H121  1  0.88602585  0.60243005  0.32155794  1
  H+  H122  1  0.62885673  0.68746183  0.88277888  1
  H+  H123  1  0.22288692  0.11308591  0.17691228  1
  H+  H124  1  0.53361549  0.16165489  0.83178145  1
  H+  H125  1  0.30085028  0.96317594  0.89838331  1
  H+  H126  1  0.27749797  0.63980565  0.32914748  1
  H+  H127  1  0.31256973  0.67900273  0.49456200  1
  H+  H128  1  0.38238141  0.52301891  0.99074919  1
  H+  H129  1  0.65963895  0.79226855  0.16685266  1
  H+  H130  1  0.23678221  0.62129049  -0.00297372  1
  H+  H131  1  0.37407099  0.73174519  0.00917772  1
  H+  H132  1  0.47645982  0.11857584  0.65762240  1
  H+  H133  1  0.23486703  0.86102519  0.32045109  1
  H+  H134  1  0.86623410  0.50480394  0.31705908  1
  H+  H135  1  0.49033898  0.88693569  0.67051773  1
  H+  H136  1  0.67511063  0.55421598  0.28528730  1
  H+  H137  1  0.60872653  0.33189588  0.31483260  1
  H+  H138  1  0.36767545  0.38817122  0.34082014  1
  H+  H139  1  0.76827669  0.03331455  0.38307793  1
  H+  H140  1  0.88107762  0.75874865  0.65724707  1
  H+  H141  1  0.87955816  0.34917074  -0.00288886  1
  H+  H142  1  0.11440361  0.12682772  0.17697659  1
  H+  H143  1  0.38018502  0.94794556  0.07696213  1
  H+  H144  1  0.48475773  0.86487096  0.32811546  1
  H+  H145  1  0.40651792  0.84489473  0.82108667  1
  H+  H146  1  0.41061972  0.57934484  0.92889297  1
  H+  H147  1  0.65022648  0.51350547  0.50890147  1
  H+  H148  1  0.38275761  0.26541492  0.66285395  1
  H+  H149  1  0.59506278  0.65227987  0.86355222  1
  H+  H150  1  0.48569917  0.45745633  0.22282153  1
  H+  H151  1  0.87650790  0.90051497  0.15441696  1
  H+  H152  1  0.13804037  0.35072913  0.18338964  1
  H+  H153  1  0.67030611  0.08391791  0.26514739  1
  H+  H154  1  0.39769553  0.03998401  0.17332704  1
  H+  H155  1  0.76854962  0.87668355  0.66754816  1
  H+  H156  1  0.63410308  0.91767056  0.49761759  1
  H+  H157  1  0.70063157  0.62811917  0.23970523  1
  H+  H158  1  0.62480872  0.64443285  0.32776902  1
  H+  H159  1  0.63754866  0.87002385  -0.01121410  1
  H+  H160  1  0.65046455  0.88400836  0.83889022  1
  H+  H161  1  0.71824802  0.09774353  0.32951294  1
  H+  H162  1  0.52353834  0.38020244  0.49850714  1
  H+  H163  1  0.12597387  0.85289080  1.03494330  1
  H+  H164  1  0.61443537  0.73588097  0.65077428  1
  H+  H165  1  0.91844995  0.86007764  0.50089187  1
  H+  H166  1  0.46928728  0.99314680  0.04435733  1
  H+  H167  1  0.29732468  0.84330442  0.77165477  1
  H+  H168  1  0.14716246  0.27709581  0.33173534  1
  H+  H169  1  0.74558666  0.36598038  0.32624712  1
  H+  H170  1  0.09403329  0.60670052  0.34960629  1
  H+  H171  1  0.89727278  0.02976264  0.17150741  1
  H+  H172  1  0.86324758  0.87054492  0.82343219  1
  H+  H173  1  0.26761650  0.38228560  0.00922457  1
  H+  H174  1  0.27808103  0.37973019  0.16225259  1
  H+  H175  1  -0.01292928  0.35484644  0.85684339  1
  H+  H176  1  0.30413971  0.65248808  0.66000069  1
  H+  H177  1  0.62305315  0.98995148  0.82862049  1
  H+  H178  1  0.63674811  0.48060172  0.82396429  1
  H+  H179  1  0.25400383  0.90275336  0.48391382  1
  H+  H180  1  0.36924583  0.64058383  0.00655200  1
  H+  H181  1  0.06721244  0.50039798  0.63375476  1
  H+  H182  1  0.11653091  0.22188028  0.49222173  1
  H+  H183  1  0.67182323  0.83243155  0.49787952  1
  H+  H184  1  0.90453355  0.61792033  0.84966954  1
  H+  H185  1  0.53039910  0.16333405  0.16864328  1
  H+  H186  1  0.88509927  0.09668847  0.33117460  1
  H+  H187  1  0.14151673  0.74588127  0.16743144  1
  H+  H188  1  0.60722867  0.68915668  0.49615782  1
  H+  H189  1  0.87826411  0.78140457  0.17455626  1
  H+  H190  1  0.48958921  0.61508615  0.32839651  1
  H+  H191  1  0.84325334  0.14994773  0.78060317  1
  H+  H192  1  0.54088707  0.89354033  0.82407278  1
  H+  H193  1  0.02856415  0.49112894  0.12303245  1
  H+  H194  1  0.15585206  0.41157558  0.35573103  1
  H+  H195  1  0.98010886  0.39448508  0.37545348  1
  H+  H196  1  0.63068609  0.61607403  0.48926185  1
  H+  H197  1  0.30473866  0.21043271  0.82182144  1
  H+  H198  1  0.38962988  0.12497673  0.17478142  1
  H+  H199  1  0.28704218  0.90064641  0.16141286  1
  H+  H200  1  0.97546040  0.86080242  0.17194412  1
  H+  H201  1  0.38193107  0.01544629  0.32660295  1
  H+  H202  1  0.17286251  0.33023443  0.24472057  1
  H+  H203  1  0.79793762  0.88871042  0.49753327  1
  H+  H204  1  -0.03505465  0.07770869  0.85468487  1
  H+  H205  1  -0.01280254  0.62496436  0.17539553  1
  H+  H206  1  0.61832404  0.14649686  1.01348293  1
  H+  H207  1  0.12425630  0.35157741  0.65025551  1
  H+  H208  1  0.63430192  0.61860124  0.65792128  1
  H+  H209  1  0.35615931  0.21415406  0.33998285  1
  H+  H210  1  0.04733277  0.63081498  0.66211663  1
  H+  H211  1  0.62773318  0.23845613  0.82759303  1
  H+  H212  1  0.67231760  0.33782496  0.56401452  1
  H+  H213  1  0.03150852  0.14101244  0.33703819  1
  H+  H214  1  0.40146206  0.62878061  0.17597650  1
  H+  H215  1  0.22914641  0.34920490  0.50294708  1
  H+  H216  1  0.48621256  0.87243830  0.17177365  1
  H+  H217  1  0.39249061  0.51845300  0.83647652  1
  H+  H218  1  1.03451033  0.88241901  0.34489239  1
  H+  H219  1  0.74556600  0.88129000  0.16717294  1
  H+  H220  1  0.14838805  0.60238000  0.48468247  1
  H+  H221  1  0.83419482  0.35238544  0.15612002  1
  H+  H222  1  0.14250305  0.59219653  0.64964505  1
  H+  H223  1  0.87421304  0.84396581  0.65326619  1
  H+  H224  1  0.12906862  0.34964736  0.99594198  1
  H+  H225  1  0.35938632  0.45760867  0.49148267  1
  H+  H226  1  0.86192083  0.11918043  0.84382556  1
  H+  H227  1  0.60417193  0.94142842  0.73216837  1
  H+  H228  1  0.50019909  0.37141301  0.84584957  1
  H+  H229  1  0.97581210  0.09326400  0.00483978  1
  H+  H230  1  0.88843790  0.73592138  0.82677090  1
  H+  H231  1  0.79252937  0.43690673  0.63567376  1
  H+  H232  1  0.58742617  0.75344845  0.80392690  1
  H+  H233  1  0.65403438  0.36947304  0.83579958  1
  H+  H234  1  0.50241274  0.66402990  0.80320235  1
  H+  H235  1  0.64304940  0.04048733  0.50430338  1
  H+  H236  1  0.22299497  0.12360308  -0.00073631  1
  H+  H237  1  0.14449789  0.10774988  0.51171002  1
  H+  H238  1  0.88893986  0.28198622  0.31750329  1
  H+  H239  1  0.52215626  0.13669950  0.49079548  1
  H+  H240  1  0.37868233  0.64234654  0.33123552  1
  H+  H241  1  0.73318784  0.11870258  0.16912067  1
  H+  H242  1  0.85687539  0.94401422  0.09613479  1
  H+  H243  1  0.87879246  0.23634328  0.65088833  1
  H+  H244  1  0.44043161  0.27583727  0.86491667  1
  H+  H245  1  0.77434653  0.14361574  0.49361159  1
  H+  H246  1  0.02022214  0.39155210  -0.00157822  1
  H+  H247  1  0.35794142  0.23111709  0.16845776  1
  H+  H248  1  0.33325971  0.91976887  0.39858255  1
  H+  H249  1  0.41052932  0.79242199  0.66554239  1
  H+  H250  1  0.75186916  0.19030463  0.63542429  1
  H+  H251  1  0.76761899  0.38258820  0.00592616  1
  H+  H252  1  0.29004294  0.37989575  0.83316913  1
  H+  H253  1  0.13884873  0.02937993  0.99459163  1
  H+  H254  1  0.07663174  0.68096912  -0.05970000  1
  H+  H255  1  0.51214615  0.12207926  0.33784161  1
  H+  H256  1  0.05063336  0.87388622  0.49666121  1
  H+  H257  1  0.83486615  0.32967521  0.30996855  1
  H+  H258  1  0.89858886  0.27001785  0.49495954  1
  H+  H259  1  0.79488582  0.39863881  0.83371865  1
  H+  H260  1  0.76776579  0.63811407  0.68240597  1
  H+  H261  1  0.59645115  0.92300752  0.06243804  1
  H+  H262  1  0.72746815  0.85975204  0.83968920  1
  H+  H263  1  0.52013792  0.38416450  0.67500127  1
  H+  H264  1  0.21136827  0.85098612  1.04599821  1
  H+  H265  1  0.86308038  0.21945839  0.15380223  1
  H+  H266  1  0.23608095  0.61690501  0.83306524  1
  H+  H267  1  0.11310927  0.48408457  -0.00086461  1
  H+  H268  1  0.11668592  0.22332902  0.17959410  1
  H+  H269  1  0.99463796  0.58021026  0.34337817  1
  H+  H270  1  0.48124756  0.60951066  0.64826469  1
  H+  H271  1  0.77240879  0.37569119  0.48154708  1
  H+  H272  1  0.38064889  0.14704640  0.84934223  1
  H+  H273  1  0.10623477  0.90039066  0.43070694  1
  H+  H274  1  0.78882679  0.11779463  0.68554258  1
  H+  H275  1  0.27338918  -0.02668173  0.87806913  1
  H+  H276  1  0.62222451  0.15460060  0.67032266  1
  H+  H277  1  0.61351265  0.37902361  0.49653115  1
  H+  H278  1  0.86465333  0.21017707  0.00457403  1
  H+  H279  1  0.37591139  0.89995829  0.16605519  1
  H+  H280  1  0.85807482  0.64034506  0.01480197  1
  H+  H281  1  0.13577639  0.08427610  0.90466596  1
  H+  H282  1  0.41457402  0.02152357  0.77402897  1
  H+  H283  1  0.85471384  0.95394928  0.82777507  1
  H+  H284  1  0.61319655  0.24566657  0.31726259  1
  H+  H285  1  0.64415899  0.12483981  0.84273989  1
  H+  H286  1  0.12445000  0.01337840  0.67100393  1
  H+  H287  1  0.88733141  0.29002426  0.58798087  1
  H+  H288  1  0.52053556  0.53787087  0.10670404  1
  H+  H289  1  0.57816279  0.66233185  0.04863389  1
  H+  H290  1  0.12695302  0.60634040  0.55397214  1
  H+  H291  1  0.61646942  0.88749679  0.33886508  1
  H+  H292  1  0.16550437  0.31755115  0.94178060  1
  H+  H293  1  0.16518782  0.07681571  0.23822625  1
  H+  H294  1  0.64254733  0.12994492  0.50274717  1
  H+  H295  1  0.91167437  0.32147561  0.93738651  1
  H+  H296  1  0.04054609  0.89551564  0.74513531  1
  H+  H297  1  0.88332640  0.72908155  0.33474842  1
  H+  H298  1  0.10989019  0.68351877  0.11124193  1
  H+  H299  1  0.34430265  0.66506748  0.76110879  1
  H+  H300  1  0.90242855  0.52696407  0.85264512  1
  H+  H301  1  0.90611056  0.57398703  0.94563474  1
  H+  H302  1  0.90620565  0.05014232  0.91365591  1
  H+  H303  1  0.67016036  0.58180724  0.60637208  1
  H+  H304  1  0.92913768  0.84212727  0.26923103  1
  H+  H305  1  0.17003576  0.31977037  0.56431429  1
  H+  H306  1  0.33712733  0.41642474  0.40021766  1
  H+  H307  1  0.17014171  0.07870767  0.57264305  1
  H+  H308  1  -0.01646366  0.36028447  0.50980866  1
  H+  H309  1  0.49047757  0.86265588  0.98952082  1
  H+  H310  1  0.88171766  0.31207605  0.22564717  1
  H+  H311  1  0.73251544  0.12073320  0.84654335  1
  H+  H312  1  0.67756776  0.84029635  0.26636891  1
  H+  H313  1  0.09728520  0.84150014  0.89062982  1
  H+  H314  1  0.86976509  0.57776010  0.57297442  1
  H+  H315  1  0.80632403  0.38913502  0.09128231  1
  H+  H316  1  0.32694484  0.16100442  0.43736813  1
  H+  H317  1  0.07778189  0.17313671  0.75795372  1
  H+  H318  1  0.42040145  0.56077783  0.55728201  1
  H+  H319  1  0.35036504  0.66859971  0.10340728  1
  H+  H320  1  0.93785594  0.82717497  0.56221250  1
  H+  H321  1  0.36079786  0.39081044  0.00660223  1
  H+  H322  1  0.85789922  0.11684356  0.00720421  1
  H+  H323  1  0.62949661  0.28262550  0.22176364  1
  H+  H324  1  0.09083470  0.16722979  0.39615776  1
  H+  H325  1  0.18556165  0.59993428  0.89637793  1
  H+  H326  1  0.29094225  0.92678745  0.71767599  1
  H+  H327  1  0.22573940  0.11746990  0.82817215  1
  H+  H328  1  0.38043496  0.73724330  0.33281603  1
  H+  H329  1  0.36061018  0.24246152  0.01449437  1
  H+  H330  1  0.41178176  0.08256382  0.26953753  1
  H+  H331  1  0.43003975  0.15037200  0.91022155  1
  H+  H332  1  0.91416762  0.57818487  0.22184408  1
  H+  H333  1  0.08470337  0.92235993  0.10189805  1
  H+  H334  1  0.04123370  0.64422929  0.42443368  1
  H+  H335  1  0.42074279  0.09320260  0.59626007  1
  H+  H336  1  0.59191366  0.41973409  0.06413113  1
  H+  H337  1  0.57239309  0.39370775  0.40929809  1
  H+  H338  1  0.79689738  0.67441259  0.09409517  1
  H+  H339  1  0.12917939  0.48191568  0.85872400  1
  H+  H340  1  0.85934222  0.37310754  0.47865586  1
  H+  H341  1  0.58885621  0.92931586  0.43816998  1
  H+  H342  1  0.89418517  0.93950504  -0.00414845  1
  H+  H343  1  0.87392624  0.97365644  0.33956061  1
  H+  H344  1  0.90325266  0.05710126  0.60616516  1
  H+  H345  1  0.18703112  0.59061155  0.27133196  1
  H+  H346  1  0.67802016  0.58150977  0.92987333  1
  H+  H347  1  0.13471382  0.44780654  0.41657851  1
  H+  H348  1  0.59762508  0.65997109  0.39407492  1
  H+  H349  1  0.66413239  0.08986410  0.93628032  1
  H+  H350  1  0.89833030  0.26498774  0.84614440  1
  H+  H351  1  0.84979466  0.90654804  0.43532093  1
  H+  H352  1  0.42466542  0.83832451  0.26829291  1
  H+  H353  1  0.84403973  0.62385351  0.66809818  1
  H+  H354  1  0.66496485  0.83959143  0.91995732  1
  H+  H355  1  0.06062818  0.66448079  0.73034469  1
  H+  H356  1  0.92755163  0.84398808  0.92361597  1
  H+  H357  1  0.12617051  0.82645406  0.90432486  1
  H+  H358  1  0.73309429  0.33785700  0.15062254  1
  H+  H359  1  0.83540811  0.15407981  0.09727772  1
  H+  H360  1  0.89134335  0.71860924  0.49638537  1
  H+  H361  1  0.42526364  0.34229345  0.93965282  1
  H+  H362  1  0.58728279  0.17538206  0.73099954  1
  H+  H363  1  0.41463902  0.32516105  0.56631453  1
  H+  H364  1  0.33110414  0.41236657  0.09981801  1
  H+  H365  1  0.41841690  0.33802169  0.27245118  1
  H+  H366  1  0.59238727  0.41839990  0.76637742  1
  H+  H367  1  0.68724451  0.11504917  0.59346707  1
  H+  H368  1  0.67891905  0.33941835  0.89705457  1
  H+  H369  1  0.68371314  0.85936532  0.58704942  1
  H+  H370  1  0.79647644  -0.00646585  0.53705650  1
  H+  H371  1  0.37731960  0.86367563  0.72630560  1
  H+  H372  1  0.16607487  0.63357612  0.18052133  1
  H+  H373  1  0.81120424  0.39110551  0.38356903  1
  H+  H374  1  0.03848995  0.40250144  0.70039930  1
  H+  H375  1  0.92338265  0.08518026  0.26782525  1
  H+  H376  1  0.43036650  0.83072027  0.89067054  1
  H+  H377  1  0.85403943  0.67013272  0.76935978  1
  H+  H378  1  0.31808012  0.15272180  0.73334415  1
  H+  H379  1  0.58041086  0.16602410  0.43054554  1
  H+  H380  1  0.57161958  0.68812130  0.71199775  1
  H+  H381  1  0.33097405  0.18036331  0.10541445  1
  H+  H382  1  0.63643257  0.61345732  0.98109409  1
  H+  H383  1  0.12553473  0.37976207  0.50440075  1
  O2-  O384  1  0.08422442  0.16111003  0.16484024  1
  O2-  O385  1  0.08809686  0.16189261  0.47432318  1
  O2-  O386  1  0.07275479  0.18309301  0.80349046  1
  O2-  O387  1  0.05118970  0.45297276  0.13227722  1
  O2-  O388  1  0.10198270  0.41965420  0.49650416  1
  O2-  O389  1  0.10171762  0.42016248  0.87255212  1
  O2-  O390  1  0.11584866  0.68333267  0.15526073  1
  O2-  O391  1  0.04285016  0.67900998  0.46176997  1
  O2-  O392  1  0.08259266  0.65767931  0.80566273  1
  O2-  O393  1  0.08366525  0.91710762  0.14614012  1
  O2-  O394  1  0.11150697  0.90419177  0.47789680  1
  O2-  O395  1  0.01854547  0.89039189  0.82580503  1
  O2-  O396  1  0.32921811  0.17329696  0.15141548  1
  O2-  O397  1  0.33431970  0.16557802  0.48227673  1
  O2-  O398  1  0.28632488  0.15056833  0.81272051  1
  O2-  O399  1  0.33650120  0.41259500  0.14511623  1
  O2-  O400  1  0.32481542  0.39616203  0.47471994  1
  O2-  O401  1  0.34755610  0.40801501  0.81288128  1
  O2-  O402  1  0.35336901  0.66852261  0.14931031  1
  O2-  O403  1  0.36927347  0.71842959  0.47834304  1
  O2-  O404  1  0.33742561  0.66044946  0.80615840  1
  O2-  O405  1  0.34978073  0.93310893  0.14896846  1
  O2-  O406  1  0.31841747  0.92950338  0.47355823  1
  O2-  O407  1  0.36070435  0.86968357  0.76849713  1
  O2-  O408  1  0.59328498  0.19243764  0.15561542  1
  O2-  O409  1  0.58325757  0.16949146  0.47586904  1
  O2-  O410  1  0.59043572  0.17633558  0.81524480  1
  O2-  O411  1  0.59801113  0.41628038  0.14093322  1
  O2-  O412  1  0.58288945  0.40958756  0.48051308  1
  O2-  O413  1  0.59892531  0.41950476  0.81194659  1
  O2-  O414  1  0.55107785  0.59567815  0.12399860  1
  O2-  O415  1  0.59421368  0.63935375  0.47123497  1
  O2-  O416  1  0.54138670  0.71265285  0.77701331  1
  O2-  O417  1  0.59148050  0.92769716  0.14073700  1
  O2-  O418  1  0.59524454  0.93969952  0.48267616  1
  O2-  O419  1  0.60184749  0.93199429  0.80998239  1
  O2-  O420  1  0.83682000  0.15734465  0.14301372  1
  O2-  O421  1  0.83413228  0.16126900  0.47825537  1
  O2-  O422  1  0.84131475  0.15640809  0.82571011  1
  O2-  O423  1  0.79544953  0.37527102  0.13858949  1
  O2-  O424  1  0.82417688  0.39219971  0.45652498  1
  O2-  O425  1  0.85760025  0.43276776  0.82552000  1
  O2-  O426  1  0.78574622  0.68929921  0.13666023  1
  O2-  O427  1  0.85550993  0.65582092  0.48768741  1
  O2-  O428  1  0.85921466  0.67291913  0.81481151  1
  O2-  O429  1  0.84864115  0.93422641  0.14082675  1
  O2-  O430  1  0.85692836  0.90709486  0.48030569  1
  O2-  O431  1  0.82556976  0.89526660  0.81001686  1
  O2-  O432  1  0.16232192  0.07957766  0.19184090  1
  O2-  O433  1  0.17883908  0.08359227  0.52801619  1
  O2-  O434  1  0.12296360  0.07529120  0.86024682  1
  O2-  O435  1  0.16830975  0.32193606  0.19809366  1
  O2-  O436  1  0.16759521  0.31943649  0.51888557  1
  O2-  O437  1  0.18791613  0.33507907  0.86344259  1
  O2-  O438  1  0.19079665  0.59599291  0.19287989  1
  O2-  O439  1  0.15665238  0.64183686  0.51770086  1
  O2-  O440  1  0.17711362  0.58914835  0.85179141  1
  O2-  O441  1  0.18714669  0.84755113  0.18511603  1
  O2-  O442  1  0.15455544  0.85775333  0.49948643  1
  O2-  O443  1  0.19322714  0.82526383  0.78223863  1
  O2-  O444  1  0.42564498  0.10046236  0.18870348  1
  O2-  O445  1  0.42119648  0.08789024  0.51920327  1
  O2-  O446  1  0.43786657  0.17540935  0.86879300  1
  O2-  O447  1  0.45705442  0.40238825  0.20166264  1
  O2-  O448  1  0.41753205  0.32762497  0.52091841  1
  O2-  O449  1  0.44169576  0.33207381  0.86345675  1
  O2-  O450  1  0.43247886  0.59827142  0.19576063  1
  O2-  O451  1  0.41910607  0.55102131  0.51272590  1
  O2-  O452  1  0.41375947  0.57746502  0.85245060  1
  O2-  O453  1  0.42641318  0.84179211  0.18831615  1
  O2-  O454  1  0.42477936  0.87935483  0.53404786  1
  O2-  O455  1  0.43951005  0.82411145  0.84703324  1
  O2-  O456  1  0.67304452  0.09218109  0.18533644  1
  O2-  O457  1  0.67561374  0.10224145  0.51871746  1
  O2-  O458  1  0.67113642  0.09209592  0.85971288  1
  O2-  O459  1  0.63179325  0.28281129  0.17498407  1
  O2-  O460  1  0.66891984  0.33514338  0.51852359  1
  O2-  O461  1  0.68372247  0.33896990  0.85191545  1
  O2-  O462  1  0.70588779  0.61506056  0.15931209  1
  O2-  O463  1  0.68153862  0.57452643  0.52305357  1
  O2-  O464  1  0.70029447  0.58409726  0.85358045  1
  O2-  O465  1  0.68527321  0.85002433  0.18380484  1
  O2-  O466  1  0.70346140  0.88480942  0.52158661  1
  O2-  O467  1  0.66918687  0.84395590  0.85672749  1
  O2-  O468  1  0.92722999  0.09008393  0.18870613  1
  O2-  O469  1  0.85782807  0.03968691  0.53386437  1
  O2-  O470  1  0.90516026  0.05325315  0.86756864  1
  O2-  O471  1  0.89166914  0.32096193  0.17901225  1
  O2-  O472  1  0.92071159  0.32583402  0.51654522  1
  O2-  O473  1  0.92389656  0.32460873  0.86256090  1
  O2-  O474  1  0.92495725  0.58653521  0.17747974  1
  O2-  O475  1  0.90604483  0.62094976  0.51457979  1
  O2-  O476  1  0.93245305  0.58825213  0.86976490  1
  O2-  O477  1  0.91667912  0.84107136  0.18822633  1
  O2-  O478  1  0.94974934  0.83154226  0.51750126  1
  O2-  O479  1  0.92821663  0.83804330  0.84959936  1
  O2-  O480  1  0.16536722  0.07645951  0.31089601  1
  O2-  O481  1  0.15723819  0.07229645  0.65389165  1
  O2-  O482  1  0.16326162  0.09066046  0.98281587  1
  O2-  O483  1  0.17800044  0.33735251  0.31527583  1
  O2-  O484  1  0.16136283  0.32649397  0.64299377  1
  O2-  O485  1  0.15766458  0.31599203  0.98687559  1
  O2-  O486  1  0.19494758  0.59836428  0.31634401  1
  O2-  O487  1  0.08990327  0.56290107  0.62578766  1
  O2-  O488  1  0.17860551  0.59009440  0.97758984  1
  O2-  O489  1  0.17725877  0.83514469  0.30113036  1
  O2-  O490  1  0.12402272  0.82658455  0.64892306  1
  O2-  O491  1  0.14907309  0.81512481  1.04749273  1
  O2-  O492  1  0.41071214  0.07838299  0.31464820  1
  O2-  O493  1  0.41660218  0.09132982  0.64191803  1
  O2-  O494  1  0.42547367  0.11606813  0.98791134  1
  O2-  O495  1  0.40750597  0.32353225  0.31622379  1
  O2-  O496  1  0.41474129  0.32527620  0.64658103  1
  O2-  O497  1  0.41888322  0.34391606  0.98485832  1
  O2-  O498  1  0.42937894  0.58626214  0.31092362  1
  O2-  O499  1  0.41852154  0.57605540  0.63728813  1
  O2-  O500  1  0.41399941  0.58322433  0.97474542  1
  O2-  O501  1  0.42321097  0.83362379  0.31355200  1
  O2-  O502  1  0.42788964  0.85365451  0.66049422  1
  O2-  O503  1  0.42915362  0.83344080  0.97631982  1
  O2-  O504  1  0.66132310  0.07756815  0.31003089  1
  O2-  O505  1  0.70162976  0.13152461  0.63774491  1
  O2-  O506  1  0.66329389  0.08696432  0.98211834  1
  O2-  O507  1  0.63691492  0.30291699  0.29516942  1
  O2-  O508  1  0.67815217  0.35070306  0.64173360  1
  O2-  O509  1  0.67185401  0.33981886  0.97652504  1
  O2-  O510  1  0.68586313  0.61285891  0.28328848  1
  O2-  O511  1  0.66306195  0.58380842  0.65106250  1
  O2-  O512  1  0.66854734  0.58242307  0.97472062  1
  O2-  O513  1  0.67508228  0.83931116  0.31154085  1
  O2-  O514  1  0.67404334  0.84436439  0.63377663  1
  O2-  O515  1  0.66149655  0.83428661  0.96933841  1
  O2-  O516  1  0.92652715  0.08130936  0.31290641  1
  O2-  O517  1  0.91858776  0.06099270  0.65018263  1
  O2-  O518  1  0.90928878  0.05625438  0.98833218  1
  O2-  O519  1  0.84882157  0.28649390  0.29016715  1
  O2-  O520  1  0.87485196  0.28463377  0.63283693  1
  O2-  O521  1  0.91362526  0.32264980  0.98337100  1
  O2-  O522  1  0.90804496  0.56487162  0.30535681  1
  O2-  O523  1  0.83714238  0.55411371  0.61382311  1
  O2-  O524  1  0.90352027  0.57250524  0.99150828  1
  O2-  O525  1  0.93418443  0.84023966  0.31416975  1
  O2-  O526  1  0.90994124  0.81858550  0.63969025  1
  O2-  O527  1  0.92704670  0.84938877  0.97018122  1
  O2-  O528  1  0.06091908  0.14769686  0.02281777  1
  O2-  O529  1  0.09287015  0.17109439  0.35070151  1
  O2-  O530  1  0.08178447  0.16134970  0.68689565  1
  O2-  O531  1  0.08308675  0.42120592  0.00920161  1
  O2-  O532  1  0.15863961  0.46254612  0.37501573  1
  O2-  O533  1  0.04020601  0.39651005  0.65640949  1
  O2-  O534  1  0.08507280  0.67099788  -0.01721340  1
  O2-  O535  1  0.04068432  0.58660292  0.37243308  1
  O2-  O536  1  0.04830640  0.67577011  0.68816783  1
  O2-  O537  1  0.08760688  0.91549214  -0.00037252  1
  O2-  O538  1  0.09515162  0.91211317  0.36050390  1
  O2-  O539  1  0.05367750  0.90462278  0.70078460  1
  O2-  O540  1  0.32843993  0.18221182  0.03095989  1
  O2-  O541  1  0.32410113  0.15458439  0.35615051  1
  O2-  O542  1  0.32442021  0.15808674  0.68855388  1
  O2-  O543  1  0.32868605  0.41936870  0.02193482  1
  O2-  O544  1  0.34218622  0.42379847  0.35440005  1
  O2-  O545  1  0.33339951  0.41078657  0.68790008  1
  O2-  O546  1  0.34257050  0.67197863  0.02619234  1
  O2-  O547  1  0.34701601  0.67278028  0.34264864  1
  O2-  O548  1  0.35902020  0.67426987  0.68065565  1
  O2-  O549  1  0.40790037  0.96158897  0.03525003  1
  O2-  O550  1  0.33883905  0.91857353  0.35304071  1
  O2-  O551  1  0.28220598  0.92854973  0.67402070  1
  O2-  O552  1  0.59117597  0.18035708  0.02766807  1
  O2-  O553  1  0.57403060  0.15548217  0.35123624  1
  O2-  O554  1  0.58656852  0.17846409  0.68586135  1
  O2-  O555  1  0.58612651  0.41838047  0.01865328  1
  O2-  O556  1  0.56748343  0.38973488  0.36262936  1
  O2-  O557  1  0.58071585  0.41657246  0.69006918  1
  O2-  O558  1  0.58014472  0.67171314  0.00435009  1
  O2-  O559  1  0.59242931  0.66789086  0.34941992  1
  O2-  O560  1  0.58328036  0.67689917  0.66909879  1
  O2-  O561  1  0.59672364  0.92176174  0.01677133  1
  O2-  O562  1  0.58425321  0.91532668  0.35455039  1
  O2-  O563  1  0.60038728  0.94098618  0.68664308  1
  O2-  O564  1  0.83004428  0.15034415  0.02030452  1
  O2-  O565  1  0.80016064  0.09349076  0.37063490  1
  O2-  O566  1  0.84747266  0.14329172  0.70199722  1
  O2-  O567  1  0.82517963  0.40646988  0.02730173  1
  O2-  O568  1  0.80703547  0.39309681  0.33754863  1
  O2-  O569  1  0.85292988  0.48492766  0.63211910  1
  O2-  O570  1  0.82947573  0.67469543  0.02242981  1
  O2-  O571  1  0.84832336  0.66732875  0.34513444  1
  O2-  O572  1  0.83004331  0.66267190  0.69228923  1
  O2-  O573  1  0.86785118  0.96984012  0.01667143  1
  O2-  O574  1  0.84194622  0.91398797  0.35599284  1
  O2-  O575  1  0.82816953  0.89870649  0.68464949  1
