# generated using pymatgen
data_H2O
_symmetry_space_group_name_H-M   'P 1'
_cell_length_a   17.99267773
_cell_length_b   17.99890619
_cell_length_c   21.99998615
_cell_angle_alpha   90.00904408
_cell_angle_beta   89.99532250
_cell_angle_gamma   119.99460298
_symmetry_Int_Tables_number   1
_chemical_formula_structural   H2O
_chemical_formula_sum   'H384 O192'
_cell_volume   6170.47453754
_cell_formula_units_Z   192
loop_
 _symmetry_equiv_pos_site_id
 _symmetry_equiv_pos_as_xyz
  1  'x, y, z'
loop_
 _atom_type_symbol
 _atom_type_oxidation_number
  H+  1.0
  O2-  -2.0
loop_
 _atom_site_type_symbol
 _atom_site_label
 _atom_site_symmetry_multiplicity
 _atom_site_fract_x
 _atom_site_fract_y
 _atom_site_fract_z
 _atom_site_occupancy
  H+  H0  1  0.03032110  0.88862660  0.33797268  1
  H+  H1  1  0.88872595  0.86299754  0.32217231  1
  H+  H2  1  0.89283412  0.86647252  0.98911706  1
  H+  H3  1  0.45552595  0.59604307  0.16715073  1
  H+  H4  1  0.26414987  0.12587170  -0.00746978  1
  H+  H5  1  0.52133709  0.38672610  0.63748211  1
  H+  H6  1  0.64632180  0.87537233  0.84086790  1
  H+  H7  1  0.35972606  0.19419151  0.49010315  1
  H+  H8  1  0.00286322  0.63132298  0.17348329  1
  H+  H9  1  0.17702369  0.81541572  0.65854530  1
  H+  H10  1  0.77999532  0.14625303  0.33308156  1
  H+  H11  1  0.23211320  0.36003490  0.85542893  1
  H+  H12  1  0.36196770  0.40541771  0.84061417  1
  H+  H13  1  0.38811048  0.39742054  0.49297800  1
  H+  H14  1  0.76243496  0.38373368  0.31413433  1
  H+  H15  1  0.59829249  0.71713226  0.67952582  1
  H+  H16  1  0.97128018  0.56146015  0.70111150  1
  H+  H17  1  0.37223523  0.54015798  0.49228842  1
  H+  H18  1  0.40097220  0.04069237  0.84526708  1
  H+  H19  1  0.97664789  0.10853310  0.66150321  1
  H+  H20  1  0.88987286  0.61103691  0.83492397  1
  H+  H21  1  0.60640200  0.14273740  0.32935440  1
  H+  H22  1  0.61362398  0.87670870  0.17219698  1
  H+  H23  1  0.55749177  0.94011367  0.35306131  1
  H+  H24  1  0.28671485  0.38870132  0.05739948  1
  H+  H25  1  0.37139722  0.25504170  0.66776029  1
  H+  H26  1  0.71896591  0.62566833  0.15906853  1
  H+  H27  1  0.74258043  0.84762162  0.17857263  1
  H+  H28  1  0.61754586  0.98157416  0.67838185  1
  H+  H29  1  0.12904157  0.10562799  0.16970931  1
  H+  H30  1  0.61320667  0.63428461  0.33232776  1
  H+  H31  1  0.37141703  0.60418302  0.99684304  1
  H+  H32  1  0.59127142  0.67726406  0.42623699  1
  H+  H33  1  -0.04603312  0.58945765  0.71206523  1
  H+  H34  1  0.36066163  0.12743062  0.17493423  1
  H+  H35  1  0.88668109  0.11249571  0.32594972  1
  H+  H36  1  0.48305080  0.31424506  0.51289192  1
  H+  H37  1  0.85762840  -0.03238239  0.15705521  1
  H+  H38  1  0.61083958  0.96864136  0.49666445  1
  H+  H39  1  0.31889473  0.66487662  0.41996454  1
  H+  H40  1  0.87175207  1.01496183  0.83065909  1
  H+  H41  1  0.90225516  0.78779425  0.50917127  1
  H+  H42  1  0.11144687  0.14688584  0.67918906  1
  H+  H43  1  0.61190394  0.53047845  0.49207494  1
  H+  H44  1  0.34143203  0.18906042  -0.04629183  1
  H+  H45  1  0.18180186  0.90297353  0.34258320  1
  H+  H46  1  0.38097885  0.75883186  -0.00793594  1
  H+  H47  1  0.23430437  0.37436122  0.67402550  1
  H+  H48  1  0.75383606  0.88862262  0.33661853  1
  H+  H49  1  0.47372961  0.84998723  0.17022116  1
  H+  H50  1  0.09074553  0.20682130  0.49976974  1
  H+  H51  1  0.62330373  0.35533624  0.31934513  1
  H+  H52  1  0.64572280  0.78281777  0.50095468  1
  H+  H53  1  0.02181865  0.88227608  0.15664579  1
  H+  H54  1  0.79399726  0.88438549  0.67862126  1
  H+  H55  1  0.88077009  0.85161291  0.16625111  1
  H+  H56  1  0.38474628  0.77677451  0.51595177  1
  H+  H57  1  0.76244961  0.37821160  1.00739795  1
  H+  H58  1  0.91706031  0.63816993  0.17315614  1
  H+  H59  1  0.23360541  0.87128566  0.83468989  1
  H+  H60  1  0.47713193  0.86060312  0.51349905  1
  H+  H61  1  0.11108205  0.61875094  0.33125082  1
  H+  H62  1  0.46597806  0.83332215  0.31647983  1
  H+  H63  1  0.66598209  0.59387168  0.22126821  1
  H+  H64  1  0.61360967  0.88121200  0.49803499  1
  H+  H65  1  0.35995176  0.95628574  0.16001522  1
  H+  H66  1  0.49697987  0.38217816  0.33466372  1
  H+  H67  1  0.37235667  0.49196896  0.68422123  1
  H+  H68  1  0.60939969  0.85919454  0.66098793  1
  H+  H69  1  1.03814723  0.38814981  0.82841896  1
  H+  H70  1  0.77561318  0.90582010  0.82756729  1
  H+  H71  1  0.27523874  0.13457475  0.17169633  1
  H+  H72  1  0.20800690  0.31980657  0.51149290  1
  H+  H73  1  0.60404894  0.42933619  0.48978015  1
  H+  H74  1  0.01868801  0.62755092  0.33410912  1
  H+  H75  1  0.90552979  0.87644787  0.66440002  1
  H+  H76  1  0.37176343  0.40208530  0.69263120  1
  H+  H77  1  0.21771415  0.61725796  0.50140347  1
  H+  H78  1  0.24324932  0.41732913  0.51047423  1
  H+  H79  1  0.27544549  0.88664024  0.49463296  1
  H+  H80  1  0.88562646  0.48929544  0.15729534  1
  H+  H81  1  0.35456804  0.13064616  0.83548719  1
  H+  H82  1  0.82267775  0.64728846  0.72886652  1
  H+  H83  1  0.12574480  0.26464924  0.32821751  1
  H+  H84  1  0.19499949  0.33657946  0.95145632  1
  H+  H85  1  1.03133884  0.89666900  0.49552648  1
  H+  H86  1  0.53810620  0.66260886  0.48895161  1
  H+  H87  1  0.11009928  0.12931155  0.49865617  1
  H+  H88  1  0.79418596  0.67745974  0.50214563  1
  H+  H89  1  0.75662137  0.36282566  0.67696282  1
  H+  H90  1  0.67462308  0.43574975  0.89343362  1
  H+  H91  1  0.88206301  0.25355068  0.50150885  1
  H+  H92  1  0.12756572  0.77084439  0.19740979  1
  H+  H93  1  0.62605977  0.35333846  0.64685545  1
  H+  H94  1  0.15889974  0.32174690  0.22995275  1
  H+  H95  1  0.63600466  0.89478148  0.01905658  1
  H+  H96  1  0.07729617  0.17485139  0.77317206  1
  H+  H97  1  0.62051818  0.36118365  0.00827187  1
  H+  H98  1  0.30376005  0.58913920  0.46198761  1
  H+  H99  1  0.36725884  0.10329850  0.67883623  1
  H+  H100  1  0.02791109  0.64366276  0.82696043  1
  H+  H101  1  0.63240039  0.09494418  0.50159574  1
  H+  H102  1  0.14392505  0.78260740  0.83952455  1
  H+  H103  1  0.64928638  0.78697512  0.83779049  1
  H+  H104  1  0.39202446  0.26800879  0.16763110  1
  H+  H105  1  0.82361485  0.11270451  0.00258064  1
  H+  H106  1  0.39229149  0.54616914  0.84299308  1
  H+  H107  1  0.88229936  0.36096722  0.30927027  1
  H+  H108  1  0.38835571  0.27329783  1.02182986  1
  H+  H109  1  0.40488142  0.66019944  0.51320263  1
  H+  H110  1  0.82334960  0.60144560  0.66601410  1
  H+  H111  1  0.24291590  0.62810379  0.66201561  1
  H+  H112  1  0.85623099  0.21853250  0.15329337  1
  H+  H113  1  0.48975148  0.11207238  1.00071485  1
  H+  H114  1  0.37736573  0.09262649  0.48900376  1
  H+  H115  1  0.86242594  0.97346604  0.49228984  1
  H+  H116  1  0.36552650  0.88466121  0.50179945  1
  H+  H117  1  0.89551713  0.77948371  0.99109491  1
  H+  H118  1  0.64560901  0.87677103  0.33060903  1
  H+  H119  1  0.38180067  0.53808300  0.32873748  1
  H+  H120  1  0.83477502  0.48310393  0.64103841  1
  H+  H121  1  0.60898452  0.47427435  0.63031986  1
  H+  H122  1  0.12618627  0.51521403  0.32243252  1
  H+  H123  1  0.36073480  0.32211054  0.62473677  1
  H+  H124  1  0.41758383  0.33647119  0.24255385  1
  H+  H125  1  0.34413951  0.28770703  0.29147726  1
  H+  H126  1  0.50811227  0.63162328  0.99832160  1
  H+  H127  1  0.86279591  0.72785166  0.33600039  1
  H+  H128  1  0.35622910  0.71591730  0.16147623  1
  H+  H129  1  0.10101337  0.73223806  0.00937059  1
  H+  H130  1  0.73288438  0.61414362  0.31893532  1
  H+  H131  1  0.54930701  0.77979732  0.62145929  1
  H+  H132  1  0.88858041  0.36260196  0.16178377  1
  H+  H133  1  0.11566985  0.39466200  0.49291429  1
  H+  H134  1  0.64459571  0.62314735  0.84269491  1
  H+  H135  1  0.12207783  0.47640979  0.82743188  1
  H+  H136  1  0.65348983  0.54183744  0.86860354  1
  H+  H137  1  0.88064511  0.34151003  0.51628158  1
  H+  H138  1  0.11366074  0.97801413  0.82230683  1
  H+  H139  1  0.10024086  0.13364352  0.82955419  1
  H+  H140  1  0.77435301  0.38551977  0.48608115  1
  H+  H141  1  0.10198252  0.21514992  0.15855848  1
  H+  H142  1  0.23491933  0.62768131  0.83858485  1
  H+  H143  1  0.62653489  0.29119713  0.84470078  1
  H+  H144  1  0.77652767  0.37201725  0.83010873  1
  H+  H145  1  0.14075935  0.52151814  -0.00824731  1
  H+  H146  1  0.86738689  0.48367683  0.48184486  1
  H+  H147  1  1.01943526  0.37892227  0.15576523  1
  H+  H148  1  -0.01663903  0.85654962  0.83299425  1
  H+  H149  1  0.69948212  0.75809208  0.21225737  1
  H+  H150  1  1.01259175  0.12595569  0.15751879  1
  H+  H151  1  0.00481940  0.88246121  0.66121561  1
  H+  H152  1  0.22541589  0.12289198  0.66563378  1
  H+  H153  1  0.11471864  0.22791525  1.01234022  1
  H+  H154  1  0.35714855  0.88646579  0.78767530  1
  H+  H155  1  0.88870752  0.52846592  0.31382800  1
  H+  H156  1  0.36494815  0.39961614  0.33281061  1
  H+  H157  1  0.21332912  0.35406963  0.32848657  1
  H+  H158  1  0.85040438  0.37079427  0.67351211  1
  H+  H159  1  0.13523584  1.03492232  0.66432726  1
  H+  H160  1  0.52517704  0.89556807  0.68667294  1
  H+  H161  1  0.59919948  0.20537044  0.67844422  1
  H+  H162  1  0.28307986  0.28517613  0.89187574  1
  H+  H163  1  0.64483896  0.52511379  0.31273948  1
  H+  H164  1  0.51231082  0.62636481  0.67817499  1
  H+  H165  1  0.40760022  0.06061100  0.23384991  1
  H+  H166  1  0.29525550  0.95314019  0.66246884  1
  H+  H167  1  0.65720848  0.53749554  0.49110483  1
  H+  H168  1  0.33703804  0.24730192  0.86134825  1
  H+  H169  1  0.90511027  0.55604246  0.49871574  1
  H+  H170  1  0.96662476  0.10038875  0.50460779  1
  H+  H171  1  0.35382209  0.37124618  0.14769577  1
  H+  H172  1  0.67619417  0.67814890  0.51503261  1
  H+  H173  1  0.78192759  0.63918355  0.82622602  1
  H+  H174  1  0.87060731  0.23046035  0.33459131  1
  H+  H175  1  0.59118725  0.92797450  0.77610380  1
  H+  H176  1  0.71715988  0.33212802  0.51633852  1
  H+  H177  1  0.89142062  0.52274836  0.83723046  1
  H+  H178  1  0.60684563  0.48352846  0.14305538  1
  H+  H179  1  0.11251515  0.13350202  0.33808807  1
  H+  H180  1  0.42534294  0.83354794  0.91096261  1
  H+  H181  1  0.62029360  0.26491300  0.32247355  1
  H+  H182  1  0.97272884  0.36424589  0.31818425  1
  H+  H183  1  0.65481489  0.04878473  0.32574283  1
  H+  H184  1  0.37301225  0.97116942  0.00579298  1
  H+  H185  1  0.62616890  0.60909377  0.66192933  1
  H+  H186  1  0.37557424  -0.00799670  0.49320898  1
  H+  H187  1  0.50886936  0.12960179  0.33363573  1
  H+  H188  1  0.12710732  0.90354436  0.66806590  1
  H+  H189  1  0.47959953  0.36230472  0.15664663  1
  H+  H190  1  0.13062128  0.51459948  0.17225651  1
  H+  H191  1  0.63020062  0.14110996  0.01806593  1
  H+  H192  1  0.12779513  0.02052193  0.99328370  1
  H+  H193  1  0.65257876  0.99058681  0.02993252  1
  H+  H194  1  0.80450326  0.58891320  0.13699371  1
  H+  H195  1  -0.02397303  0.36619536  0.65589943  1
  H+  H196  1  0.86839151  0.38766507  0.48278811  1
  H+  H197  1  0.88587163  0.36946356  0.98885795  1
  H+  H198  1  0.39730614  0.77617061  0.67038812  1
  H+  H199  1  0.34675580  0.45581558  0.15307658  1
  H+  H200  1  0.59464135  0.63455969  0.15121682  1
  H+  H201  1  0.52682032  0.63911381  0.33340185  1
  H+  H202  1  0.86978591  0.23545332  0.83740622  1
  H+  H203  1  0.53169359  0.65362881  0.83532434  1
  H+  H204  1  0.71565653  0.60876886  0.66166972  1
  H+  H205  1  0.14538342  0.87630607  0.50068290  1
  H+  H206  1  0.58842533  0.71797811  0.15528911  1
  H+  H207  1  0.64620191  0.64225148  -0.00577470  1
  H+  H208  1  0.87989754  0.97976919  0.67243503  1
  H+  H209  1  0.21200814  0.10656414  0.83987341  1
  H+  H210  1  0.34903451  0.62256331  0.16133341  1
  H+  H211  1  0.77896448  0.14481422  0.84153686  1
  H+  H212  1  0.17003012  0.09206846  0.57142426  1
  H+  H213  1  0.41707069  0.89348299  0.86101505  1
  H+  H214  1  0.62965629  0.10099962  0.65532848  1
  H+  H215  1  0.38105449  0.62431037  0.32072324  1
  H+  H216  1  0.86194787  0.64021933  0.00106927  1
  H+  H217  1  0.62546412  0.32305821  0.50405377  1
  H+  H218  1  0.96216971  0.11573197  0.99480564  1
  H+  H219  1  0.63154561  0.77240144  -0.01123541  1
  H+  H220  1  0.02740355  0.88864653  0.00364122  1
  H+  H221  1  0.14491702  0.87122915  0.99215847  1
  H+  H222  1  0.88139552  0.76307134  0.16788635  1
  H+  H223  1  0.81335698  0.14927036  0.09956085  1
  H+  H224  1  0.87654995  0.10332939  0.16911258  1
  H+  H225  1  0.38558588  0.85029771  0.99355672  1
  H+  H226  1  0.10857137  0.37857723  0.15931727  1
  H+  H227  1  0.77632689  0.88327469  0.49376340  1
  H+  H228  1  1.10386899  0.38113288  0.33732470  1
  H+  H229  1  0.12898975  0.53149850  0.51027858  1
  H+  H230  1  0.19852372  0.85980331  0.28814592  1
  H+  H231  1  0.11841999  0.63731204  0.15730985  1
  H+  H232  1  -0.02671709  0.36685693  -0.00875911  1
  H+  H233  1  0.89969924  0.64357144  0.50087492  1
  H+  H234  1  0.35332026  0.72710458  0.32705071  1
  H+  H235  1  0.21753031  0.34685376  0.16959330  1
  H+  H236  1  0.88121605  0.12585490  0.84051848  1
  H+  H237  1  0.11085694  0.23500279  0.67958405  1
  H+  H238  1  0.76907379  0.12799458  0.48944160  1
  H+  H239  1  0.46388586  0.35670884  0.80958712  1
  H+  H240  1  0.38409552  0.85187272  0.16664079  1
  H+  H241  1  0.26752873  0.62642202  0.00572162  1
  H+  H242  1  0.61367078  0.43666462  0.94330355  1
  H+  H243  1  0.49390102  0.36754846  0.83610840  1
  H+  H244  1  0.93228179  0.60008760  0.26244172  1
  H+  H245  1  0.40127577  0.56906323  0.22836757  1
  H+  H246  1  0.12226340  0.85456320  0.19633471  1
  H+  H247  1  0.77984986  0.65680245  0.00399776  1
  H+  H248  1  0.22507864  0.11049842  0.50818125  1
  H+  H249  1  0.92494037  0.82882726  0.89184875  1
  H+  H250  1  0.32745312  0.95967254  0.33629023  1
  H+  H251  1  0.00921681  0.64569648  0.01155912  1
  H+  H252  1  0.37399562  0.65826385  0.83031033  1
  H+  H253  1  0.62542683  0.22908879  0.01563069  1
  H+  H254  1  0.51417098  0.11510180  0.68016897  1
  H+  H255  1  0.89517302  0.87236933  0.50950319  1
  H+  H256  1  1.03618132  0.66048966  0.48313196  1
  H+  H257  1  0.59764652  0.11889983  0.16344201  1
  H+  H258  1  0.11502362  0.39991495  0.65887613  1
  H+  H259  1  0.60283018  0.19336802  0.48580106  1
  H+  H260  1  0.85151707  0.22288990  0.68275876  1
  H+  H261  1  0.97312013  0.12180467  0.83939084  1
  H+  H262  1  0.07230309  0.68582621  0.67330266  1
  H+  H263  1  0.36324612  0.11360660  0.33548869  1
  H+  H264  1  0.36930374  0.20521695  0.33231578  1
  H+  H265  1  0.91517983  0.82943733  0.26326359  1
  H+  H266  1  0.39818881  0.10884973  0.99701081  1
  H+  H267  1  0.15354998  0.67479126  0.67529645  1
  H+  H268  1  0.35124735  0.35714418  0.47963239  1
  H+  H269  1  0.87286142  0.51982671  0.99053344  1
  H+  H270  1  0.28015467  0.88595235  0.00348169  1
  H+  H271  1  0.53435901  0.89688018  0.83768805  1
  H+  H272  1  1.02285556  0.38278357  0.49306514  1
  H+  H273  1  0.86584087  0.98278452  0.34194799  1
  H+  H274  1  0.14808632  0.26527206  0.85722055  1
  H+  H275  1  0.11904147  0.64946303  0.48749571  1
  H+  H276  1  0.89246620  0.36130787  0.83944644  1
  H+  H277  1  0.47157911  0.09494687  0.48817859  1
  H+  H278  1  0.26305004  0.63488127  0.32972741  1
  H+  H279  1  0.87947813  0.10429804  0.50427987  1
  H+  H280  1  0.10946672  0.97180175  0.15883501  1
  H+  H281  1  0.13345653  0.02422669  0.32605649  1
  H+  H282  1  0.65310249  0.39185720  0.16519689  1
  H+  H283  1  0.37125768  0.63362572  0.67478964  1
  H+  H284  1  0.11360590  0.48716836  0.65706677  1
  H+  H285  1  0.32913875  0.15368153  0.62900249  1
  H+  H286  1  0.22046184  0.60440681  0.17453103  1
  H+  H287  1  0.72418239  0.10506376  0.17340224  1
  H+  H288  1  0.42951800  0.28633811  0.57411141  1
  H+  H289  1  0.85794101  0.97341603  0.00601976  1
  H+  H290  1  0.43509003  0.54390840  0.61546131  1
  H+  H291  1  0.12458615  0.89400729  0.82140157  1
  H+  H292  1  0.53900567  0.46177443  0.37767714  1
  H+  H293  1  0.58360554  0.67180442  0.77330065  1
  H+  H294  1  0.77269381  0.88157118  1.00456701  1
  H+  H295  1  0.07710406  0.41489436  0.39621622  1
  H+  H296  1  0.86648789  0.64139927  0.33803618  1
  H+  H297  1  0.08794297  0.66401341  0.39469408  1
  H+  H298  1  0.90723589  0.07435376  0.22860109  1
  H+  H299  1  0.09672721  0.68366467  0.77186182  1
  H+  H300  1  0.57329515  0.14554048  0.42166481  1
  H+  H301  1  0.37271308  0.74580502  0.82616897  1
  H+  H302  1  0.90876147  0.31413893  0.60611328  1
  H+  H303  1  0.43106304  0.62577615  0.57420561  1
  H+  H304  1  0.97430878  0.10902833  0.32572435  1
  H+  H305  1  0.52877798  0.36716611  0.01124145  1
  H+  H306  1  0.93527101  0.85030520  0.59797049  1
  H+  H307  1  0.17471558  0.58341422  0.93371815  1
  H+  H308  1  0.69913479  0.64576085  0.57610255  1
  H+  H309  1  0.66166621  0.83344444  0.56416523  1
  H+  H310  1  0.59076580  0.41853958  0.08685677  1
  H+  H311  1  0.82770800  0.90862320  0.09657825  1
  H+  H312  1  0.33884649  0.90317146  0.09835483  1
  H+  H313  1  0.60487829  0.43358097  0.75095879  1
  H+  H314  1  0.15017129  0.07642567  0.89795251  1
  H+  H315  1  0.88590966  0.56230020  0.59526882  1
  H+  H316  1  0.91856900  0.33464776  0.90240956  1
  H+  H317  1  0.12034847  0.39056351  0.00990468  1
  H+  H318  1  0.90982645  0.58125448  0.93182318  1
  H+  H319  1  0.41046231  0.81895355  0.25625522  1
  H+  H320  1  0.56940151  0.37786932  0.42868639  1
  H+  H321  1  0.14422993  0.62277987  0.84178137  1
  H+  H322  1  0.08433549  0.92500308  0.39964941  1
  H+  H323  1  0.87358445  0.72350629  0.82161289  1
  H+  H324  1  0.83588203  0.42267073  0.06021623  1
  H+  H325  1  0.84418820  0.93556678  0.76927065  1
  H+  H326  1  0.15417357  0.57369453  0.26031183  1
  H+  H327  1  0.83072707  0.66195617  0.08655130  1
  H+  H328  1  0.07903780  0.15829290  0.39833129  1
  H+  H329  1  0.22487233  0.10875643  0.32232499  1
  H+  H330  1  0.32269825  0.14390368  0.42596275  1
  H+  H331  1  0.31989693  0.36179918  0.39377062  1
  H+  H332  1  0.36229215  0.51155967  0.98701428  1
  H+  H333  1  0.63763599  0.01294730  0.18013654  1
  H+  H334  1  0.90591846  0.08382617  0.93502548  1
  H+  H335  1  0.40056189  0.33256953  0.96815273  1
  H+  H336  1  0.07291237  0.16071643  0.06561540  1
  H+  H337  1  0.33744763  0.43458909  0.77878946  1
  H+  H338  1  0.08585432  0.67590263  0.10223943  1
  H+  H339  1  0.82793342  0.40792331  0.76800154  1
  H+  H340  1  0.42286649  0.09167223  0.90705076  1
  H+  H341  1  0.42184081  0.84316616  0.61728084  1
  H+  H342  1  0.32550950  0.65628846  0.06715668  1
  H+  H343  1  0.56297838  0.66661244  0.05857109  1
  H+  H344  1  0.32638660  0.15997078  0.77492337  1
  H+  H345  1  0.08330351  0.41549896  0.06627684  1
  H+  H346  1  0.14541991  0.78707420  0.49897932  1
  H+  H347  1  0.57489243  0.89877203  0.41059731  1
  H+  H348  1  0.67372153  0.35093439  0.22276892  1
  H+  H349  1  0.68261550  0.84092938  0.27286116  1
  H+  H350  1  0.09146616  0.92212489  0.73186829  1
  H+  H351  1  0.08569547  0.91667018  0.06426010  1
  H+  H352  1  0.60012323  0.91468044  0.10920683  1
  H+  H353  1  0.18651992  0.86091563  0.59427411  1
  H+  H354  1  0.11915493  0.98542634  0.49590172  1
  H+  H355  1  0.66911877  0.31199460  0.94998950  1
  H+  H356  1  0.67278717  0.09244467  0.26022788  1
  H+  H357  1  0.66716599  0.07521120  0.56448312  1
  H+  H358  1  0.83024450  0.16209851  0.42926281  1
  H+  H359  1  0.46445653  0.09277650  0.17338530  1
  H+  H360  1  0.18023728  0.60722792  0.60414898  1
  H+  H361  1  0.82285556  0.41179326  0.37019754  1
  H+  H362  1  0.67226577  0.83860134  0.93300258  1
  H+  H363  1  0.81764785  0.16431481  0.74095334  1
  H+  H364  1  0.34229881  0.95721627  0.76092766  1
  H+  H365  1  0.83408872  0.91783308  0.40222368  1
  H+  H366  1  0.12604850  0.10960604  0.99278785  1
  H+  H367  1  0.41682079  0.59883160  0.90353223  1
  H+  H368  1  0.83784585  0.68112676  0.43531970  1
  H+  H369  1  0.72194052  0.10896029  0.66069429  1
  H+  H370  1  0.60419268  0.39150952  0.75348756  1
  H+  H371  1  0.79148223  0.40883748  0.15911805  1
  H+  H372  1  0.91564983  0.07065174  0.60202024  1
  H+  H373  1  0.65237210  0.29906963  0.60742850  1
  H+  H374  1  0.57281123  0.15194010  0.10471867  1
  H+  H375  1  0.66248365  0.22970044  0.85772021  1
  H+  H376  1  0.17383455  0.84107404  0.93308957  1
  H+  H377  1  0.68810638  0.62485481  0.93574223  1
  H+  H378  1  0.34573810  0.67009305  0.73381486  1
  H+  H379  1  0.33583892  0.47974616  0.43282095  1
  H+  H380  1  0.15770508  0.07783097  0.23036213  1
  H+  H381  1  0.91279128  0.32614887  0.22003063  1
  H+  H382  1  0.18428883  0.34817927  0.61120098  1
  H+  H383  1  0.63841100  0.02737922  0.84734903  1
  O2-  O384  1  0.07291473  0.15517764  0.14224508  1
  O2-  O385  1  0.07329732  0.15192185  0.48022338  1
  O2-  O386  1  0.07419531  0.16983815  0.81861277  1
  O2-  O387  1  0.08200783  0.41259983  0.14500329  1
  O2-  O388  1  0.08185166  0.41977377  0.47680118  1
  O2-  O389  1  0.09759234  0.41682726  0.81311558  1
  O2-  O390  1  0.09236036  0.67333399  0.14809446  1
  O2-  O391  1  0.09528588  0.68252675  0.46600048  1
  O2-  O392  1  0.09064811  0.67880858  0.81657227  1
  O2-  O393  1  0.08194191  0.91198124  0.14228128  1
  O2-  O394  1  0.09087754  0.92619212  0.47854864  1
  O2-  O395  1  0.09169729  0.92011120  0.80306924  1
  O2-  O396  1  0.33850159  0.16793126  0.16862895  1
  O2-  O397  1  0.31974008  0.13682766  0.47131408  1
  O2-  O398  1  0.31793200  0.15479836  0.81891301  1
  O2-  O399  1  0.31631782  0.39582667  0.13726195  1
  O2-  O400  1  0.31896668  0.49883604  0.46948523  1
  O2-  O401  1  0.33595704  0.43799861  0.82438594  1
  O2-  O402  1  0.31996274  0.65445774  0.14773345  1
  O2-  O403  1  0.31315811  0.64841306  0.46471116  1
  O2-  O404  1  0.34364431  0.68599850  0.81051427  1
  O2-  O405  1  0.33753148  0.89739321  0.14336146  1
  O2-  O406  1  0.33740842  0.91416978  0.48168658  1
  O2-  O407  1  0.33899216  0.92698977  0.80021380  1
  O2-  O408  1  0.56313141  0.14426533  0.14970319  1
  O2-  O409  1  0.57152821  0.13555893  0.46712365  1
  O2-  O410  1  0.62234928  0.12459111  0.84550413  1
  O2-  O411  1  0.58362688  0.42262124  0.13290187  1
  O2-  O412  1  0.58059931  0.37167884  0.47208974  1
  O2-  O413  1  0.62606883  0.44499218  0.89829904  1
  O2-  O414  1  0.55814155  0.65962824  0.13850468  1
  O2-  O415  1  0.59636646  0.68717326  0.47150156  1
  O2-  O416  1  0.59126264  0.68024412  0.81852607  1
  O2-  O417  1  0.58732487  0.90840903  0.15609358  1
  O2-  O418  1  0.57778374  0.90663862  0.48344076  1
  O2-  O419  1  0.59493615  0.92813735  0.82172432  1
  O2-  O420  1  0.82501876  0.15551422  0.14444177  1
  O2-  O421  1  0.83047621  0.16039513  0.47488120  1
  O2-  O422  1  0.83746723  0.17173875  0.82369865  1
  O2-  O423  1  0.85138613  0.42938340  0.14319088  1
  O2-  O424  1  0.83581623  0.41858593  0.46493125  1
  O2-  O425  1  0.83418822  0.41272581  0.81314135  1
  O2-  O426  1  0.82133350  0.64943348  0.13349009  1
  O2-  O427  1  0.84897115  0.68777583  0.47980007  1
  O2-  O428  1  0.84021018  0.66144349  0.80802964  1
  O2-  O429  1  0.82903189  0.90655531  0.14263602  1
  O2-  O430  1  0.83591627  0.91297447  0.47612065  1
  O2-  O431  1  0.83774464  0.94425861  0.81352035  1
  O2-  O432  1  0.15908612  0.07548907  0.18516043  1
  O2-  O433  1  0.16621320  0.08827454  0.52575511  1
  O2-  O434  1  0.15015577  0.07728786  0.85220133  1
  O2-  O435  1  0.15678527  0.31931921  0.18492366  1
  O2-  O436  1  0.19331239  0.36226555  0.52555173  1
  O2-  O437  1  0.19668629  0.30959984  0.88167279  1
  O2-  O438  1  0.15913907  0.57431131  0.18949566  1
  O2-  O439  1  0.16034740  0.59316932  0.52156143  1
  O2-  O440  1  0.17568447  0.59326989  0.85475040  1
  O2-  O441  1  0.12904507  0.81547064  0.22423439  1
  O2-  O442  1  0.17534914  0.84585713  0.51674887  1
  O2-  O443  1  0.17480011  0.84466504  0.85187425  1
  O2-  O444  1  0.40308433  0.06130247  0.18886771  1
  O2-  O445  1  0.41103390  0.06544889  0.50500802  1
  O2-  O446  1  0.41497935  0.09635258  0.86242318  1
  O2-  O447  1  0.42043924  0.33279815  0.17495733  1
  O2-  O448  1  0.42494252  0.27830915  0.52992002  1
  O2-  O449  1  0.34080541  0.29087761  0.89091367  1
  O2-  O450  1  0.39601870  0.56144058  0.18349785  1
  O2-  O451  1  0.44005932  0.63630891  0.52876448  1
  O2-  O452  1  0.42414275  0.60651089  0.85827150  1
  O2-  O453  1  0.41275882  0.81831843  0.18331841  1
  O2-  O454  1  0.41744509  0.83586958  0.53054527  1
  O2-  O455  1  0.43326196  0.84931655  0.86396899  1
  O2-  O456  1  0.66593084  0.07465842  0.19287100  1
  O2-  O457  1  0.66828824  0.07175614  0.51831224  1
  O2-  O458  1  0.67009701  0.08860606  0.86363535  1
  O2-  O459  1  0.69799276  0.38352934  0.18525111  1
  O2-  O460  1  0.65507223  0.29315279  0.52227244  1
  O2-  O461  1  0.67684783  0.29155482  0.86131885  1
  O2-  O462  1  0.66033933  0.60083630  0.17683912  1
  O2-  O463  1  0.72478663  0.68427082  0.53976119  1
  O2-  O464  1  0.68423171  0.60501495  0.85965716  1
  O2-  O465  1  0.69034614  0.80639908  0.20425536  1
  O2-  O466  1  0.67486636  0.84207379  0.51978773  1
  O2-  O467  1  0.68108849  0.84790637  0.85285207  1
  O2-  O468  1  0.90613767  0.07160640  0.18354125  1
  O2-  O469  1  0.90668751  0.07155637  0.52021465  1
  O2-  O470  1  0.91074445  0.08959375  0.85288620  1
  O2-  O471  1  0.91334548  0.32573405  0.17485481  1
  O2-  O472  1  0.91700162  0.31506927  0.51898297  1
  O2-  O473  1  0.91982571  0.32945403  0.85603607  1
  O2-  O474  1  0.94013533  0.60336109  0.18996776  1
  O2-  O475  1  0.93651847  0.61633737  0.51267912  1
  O2-  O476  1  0.92291359  0.58358201  0.85123588  1
  O2-  O477  1  0.90957897  0.82163162  0.18460314  1
  O2-  O478  1  0.92995701  0.84759319  0.52645174  1
  O2-  O479  1  0.92325140  0.82245335  0.84702627  1
  O2-  O480  1  0.16364518  0.08525534  0.31046464  1
  O2-  O481  1  0.16344760  0.09534823  0.64992381  1
  O2-  O482  1  0.15542846  0.07995581  0.97530299  1
  O2-  O483  1  0.15418374  0.32536843  0.31264006  1
  O2-  O484  1  0.17591321  0.34178691  0.65557175  1
  O2-  O485  1  0.19156480  0.34497216  0.99707894  1
  O2-  O486  1  0.15359667  0.57590026  0.30716673  1
  O2-  O487  1  0.18244174  0.60932602  0.64917768  1
  O2-  O488  1  0.17686192  0.58210477  0.97885228  1
  O2-  O489  1  0.22244840  0.88503964  0.32872715  1
  O2-  O490  1  0.19364159  0.87187612  0.63912078  1
  O2-  O491  1  0.17383962  0.83917579  0.97824694  1
  O2-  O492  1  0.41681470  0.07800202  0.31516321  1
  O2-  O493  1  0.39843742  0.06995580  0.66660239  1
  O2-  O494  1  0.42946946  0.07926853  0.98414783  1
  O2-  O495  1  0.40412994  0.33338243  0.28956913  1
  O2-  O496  1  0.40069615  0.32182829  0.65452706  1
  O2-  O497  1  0.42061830  0.33426386  1.01009412  1
  O2-  O498  1  0.41277888  0.59331110  0.30814240  1
  O2-  O499  1  0.42603616  0.58045042  0.64370297  1
  O2-  O500  1  0.40028759  0.57295798  0.97801391  1
  O2-  O501  1  0.40790855  0.81552060  0.30238581  1
  O2-  O502  1  0.42578332  0.83875238  0.66162693  1
  O2-  O503  1  0.41314812  0.81870383  0.97622475  1
  O2-  O504  1  0.67789650  0.10478547  0.30673980  1
  O2-  O505  1  0.66414320  0.07443632  0.63992578  1
  O2-  O506  1  0.70638641  0.09246187  1.00628154  1
  O2-  O507  1  0.65453341  0.32645151  0.30726058  1
  O2-  O508  1  0.65180891  0.31504626  0.65013228  1
  O2-  O509  1  0.66976821  0.31960073  0.99418028  1
  O2-  O510  1  0.67398535  0.58537601  0.29994870  1
  O2-  O511  1  0.65840548  0.58591804  0.63958776  1
  O2-  O512  1  0.68932019  0.62665121  0.98106293  1
  O2-  O513  1  0.68628798  0.85701232  0.31715752  1
  O2-  O514  1  0.60896165  0.81188044  0.63495670  1
  O2-  O515  1  0.67147991  0.83387090  0.97815766  1
  O2-  O516  1  0.91292106  0.07748231  0.31217893  1
  O2-  O517  1  0.91897498  0.06417302  0.64647457  1
  O2-  O518  1  0.90199225  0.08117988  0.98008316  1
  O2-  O519  1  0.91369056  0.32959385  0.30103368  1
  O2-  O520  1  0.91222226  0.32767321  0.64964961  1
  O2-  O521  1  0.91520627  0.33867213  0.97334594  1
  O2-  O522  1  0.92560602  0.59162799  0.30852450  1
  O2-  O523  1  0.82961531  0.52395010  0.61293621  1
  O2-  O524  1  0.90324834  0.58187778  0.97676615  1
  O2-  O525  1  0.91667135  0.83057243  0.30881162  1
  O2-  O526  1  0.94026261  0.85195630  0.64458194  1
  O2-  O527  1  0.92605959  0.83936610  0.97444909  1
  O2-  O528  1  0.07504511  0.16628514  0.02007876  1
  O2-  O529  1  0.07929324  0.16160045  0.35327601  1
  O2-  O530  1  0.07819370  0.17429208  0.69398028  1
  O2-  O531  1  0.08413747  0.41530561  0.02092289  1
  O2-  O532  1  0.07539952  0.41395348  0.35081945  1
  O2-  O533  1  0.08110213  0.42623463  0.64534001  1
  O2-  O534  1  0.06470401  0.67938000  0.03287511  1
  O2-  O535  1  0.08125180  0.65289505  0.34864816  1
  O2-  O536  1  0.13005909  0.71275369  0.69030420  1
  O2-  O537  1  0.08818581  0.92064439  0.01871626  1
  O2-  O538  1  0.08842090  0.92684582  0.35443560  1
  O2-  O539  1  0.08931376  0.92497070  0.68525647  1
  O2-  O540  1  0.32831770  0.15802722  -0.00765710  1
  O2-  O541  1  0.33145039  0.14775618  0.34822329  1
  O2-  O542  1  0.32694586  0.16233502  0.67268817  1
  O2-  O543  1  0.28340332  0.39688201  0.01257257  1
  O2-  O544  1  0.32699227  0.40466596  0.36333889  1
  O2-  O545  1  0.34004255  0.43202678  0.70335511  1
  O2-  O546  1  0.32961486  0.65625467  0.02206590  1
  O2-  O547  1  0.32266943  0.66571617  0.34581529  1
  O2-  O548  1  0.34397770  0.66690165  0.68817431  1
  O2-  O549  1  0.34018909  0.90971330  0.01850301  1
  O2-  O550  1  0.38969634  0.99758978  0.34825252  1
  O2-  O551  1  0.34707499  0.98287144  0.68907823  1
  O2-  O552  1  0.59206566  0.16395467  0.02845145  1
  O2-  O553  1  0.57311068  0.16712099  0.34824240  1
  O2-  O554  1  0.57674787  0.14373989  0.68627039  1
  O2-  O555  1  0.59234338  0.40016257  0.01655542  1
  O2-  O556  1  0.54973215  0.41862736  0.35907982  1
  O2-  O557  1  0.58006421  0.41137160  0.62130192  1
  O2-  O558  1  0.56788021  0.66895096  0.01359983  1
  O2-  O559  1  0.58476569  0.66336583  0.35118149  1
  O2-  O560  1  0.57352976  0.65904738  0.69702563  1
  O2-  O561  1  0.61789777  0.92917674  0.04358221  1
  O2-  O562  1  0.57451287  0.89828965  0.36413293  1
  O2-  O563  1  0.58773019  0.92351158  0.69891198  1
  O2-  O564  1  0.79279107  0.13812414  0.02447979  1
  O2-  O565  1  0.83907191  0.17026784  0.35077972  1
  O2-  O566  1  0.81392191  0.16292347  0.69610343  1
  O2-  O567  1  0.82860072  0.41985290  0.01554474  1
  O2-  O568  1  0.82499125  0.41580724  0.32606976  1
  O2-  O569  1  0.81839570  0.39941240  0.68837916  1
  O2-  O570  1  0.84105701  0.67787551  0.01979940  1
  O2-  O571  1  0.83204268  0.66751924  0.35210506  1
  O2-  O572  1  0.81175526  0.64484131  0.68433136  1
  O2-  O573  1  0.83300848  0.91322591  0.02098923  1
  O2-  O574  1  0.83160969  0.92024741  0.35591125  1
  O2-  O575  1  0.85293298  0.91785178  0.69326230  1
