# generated using pymatgen
data_H2O
_symmetry_space_group_name_H-M   'P 1'
_cell_length_a   17.98501003
_cell_length_b   17.98964962
_cell_length_c   21.99404716
_cell_angle_alpha   89.99488065
_cell_angle_beta   90.02362948
_cell_angle_gamma   120.01303418
_symmetry_Int_Tables_number   1
_chemical_formula_structural   H2O
_chemical_formula_sum   'H384 O192'
_cell_volume   6161.86353897
_cell_formula_units_Z   192
loop_
 _symmetry_equiv_pos_site_id
 _symmetry_equiv_pos_as_xyz
  1  'x, y, z'
loop_
 _atom_type_symbol
 _atom_type_oxidation_number
  H+  1.0
  O2-  -2.0
loop_
 _atom_site_type_symbol
 _atom_site_label
 _atom_site_symmetry_multiplicity
 _atom_site_fract_x
 _atom_site_fract_y
 _atom_site_fract_z
 _atom_site_occupancy
  H+  H0  1  0.22742385  0.85768839  0.84485918  1
  H+  H1  1  0.85272888  0.44695200  0.34802145  1
  H+  H2  1  0.64434569  0.61937068  0.64945186  1
  H+  H3  1  0.22041313  0.59162572  0.83671832  1
  H+  H4  1  0.37197345  0.39700172  0.48087558  1
  H+  H5  1  0.88316565  0.10086823  0.32891776  1
  H+  H6  1  0.49036212  0.10929223  0.65985603  1
  H+  H7  1  0.47152184  0.36103907  0.18727475  1
  H+  H8  1  0.86528904  0.38704159  0.16544936  1
  H+  H9  1  0.84726283  0.25461353  0.64790584  1
  H+  H10  1  0.86872108  0.14246152  -0.00316821  1
  H+  H11  1  0.14209760  0.28454554  0.16251968  1
  H+  H12  1  0.14379578  0.52473975  0.98892979  1
  H+  H13  1  0.97386042  0.11402862  0.98956937  1
  H+  H14  1  0.11705151  0.72003421  0.67782248  1
  H+  H15  1  0.38465356  0.59615932  0.83404689  1
  H+  H16  1  0.35002608  0.96670031  0.15922019  1
  H+  H17  1  0.59350086  0.66852855  0.06126201  1
  H+  H18  1  -0.01528351  0.64338967  0.32366200  1
  H+  H19  1  0.63501523  0.77259226  0.16702893  1
  H+  H20  1  0.38811057  0.61142535  0.31687236  1
  H+  H21  1  0.73032248  0.61791935  0.32118131  1
  H+  H22  1  0.12850105  0.26689763  0.64836960  1
  H+  H23  1  0.87150118  0.72290762  0.82089793  1
  H+  H24  1  0.72708876  0.60550792  0.16733021  1
  H+  H25  1  0.38518398  0.77285080  0.50711750  1
  H+  H26  1  0.11678522  0.90335917  0.00789198  1
  H+  H27  1  0.38711660  0.51172878  0.65255471  1
  H+  H28  1  0.77723188  0.14496253  0.14396979  1
  H+  H29  1  0.10477981  0.48069226  0.14247015  1
  H+  H30  1  0.62505371  0.39621136  0.00582702  1
  H+  H31  1  0.95201471  0.60317453  0.91637640  1
  H+  H32  1  0.34802181  0.69009825  0.81655177  1
  H+  H33  1  0.66572419  0.32817455  0.24148559  1
  H+  H34  1  0.34404710  0.22910580  0.85910434  1
  H+  H35  1  0.36521979  0.23361346  0.34662439  1
  H+  H36  1  0.63417287  0.52365579  0.84093877  1
  H+  H37  1  0.21455791  0.33728348  0.30370243  1
  H+  H38  1  0.08431798  0.12946200  0.82455700  1
  H+  H39  1  0.56846014  0.93092175  0.79759479  1
  H+  H40  1  0.26269978  0.38506510  0.66507271  1
  H+  H41  1  0.81676257  0.90556766  0.39991548  1
  H+  H42  1  0.11467486  0.02468393  0.84702070  1
  H+  H43  1  0.78108523  0.64336664  0.48319078  1
  H+  H44  1  0.13946590  0.37147973  0.15613180  1
  H+  H45  1  0.89122514  0.61498502  0.66329738  1
  H+  H46  1  0.87997390  0.76561165  0.17303356  1
  H+  H47  1  0.60709502  0.88985585  0.33342797  1
  H+  H48  1  0.13474308  0.34671779  0.32352275  1
  H+  H49  1  0.35158663  0.11070114  0.86763217  1
  H+  H50  1  0.23486224  0.61126703  -0.00683477  1
  H+  H51  1  0.77488531  0.87969215  0.65758510  1
  H+  H52  1  0.96647381  0.86554085  0.32563164  1
  H+  H53  1  0.10774378  0.22851396  -0.00028080  1
  H+  H54  1  0.11760112  0.26416968  0.83242762  1
  H+  H55  1  0.62422889  0.97907753  0.00071555  1
  H+  H56  1  0.60569857  0.88508061  0.48869357  1
  H+  H57  1  0.36829316  0.76456795  0.16599748  1
  H+  H58  1  0.22952463  0.85660464  0.51244228  1
  H+  H59  1  0.10526962  0.97560611  0.33005822  1
  H+  H60  1  0.39190975  0.52484214  0.50028300  1
  H+  H61  1  0.90333485  0.35335648  0.50398574  1
  H+  H62  1  0.37575701  0.96717102  0.67752104  1
  H+  H63  1  0.10793269  0.47080659  0.68008385  1
  H+  H64  1  0.86694147  0.47991867  0.69328777  1
  H+  H65  1  0.24453931  0.13888958  1.03385433  1
  H+  H66  1  0.43312798  0.36065379  0.55387456  1
  H+  H67  1  0.86625164  0.88704031  0.65900660  1
  H+  H68  1  0.12828449  0.60346398  0.66210441  1
  H+  H69  1  0.47055081  0.10433825  0.00638634  1
  H+  H70  1  0.16517544  0.10705541  0.08059245  1
  H+  H71  1  0.57587294  0.91603202  0.42951581  1
  H+  H72  1  0.29124227  0.15761940  0.80919525  1
  H+  H73  1  0.47759984  0.36750689  -0.00059699  1
  H+  H74  1  0.27918496  0.14421472  0.49880506  1
  H+  H75  1  0.89175365  0.77586391  0.64940955  1
  H+  H76  1  0.51902202  0.89369298  0.33439383  1
  H+  H77  1  0.64582774  0.86545261  0.98552423  1
  H+  H78  1  0.50907983  0.87532910  0.15002075  1
  H+  H79  1  0.56010876  0.39437938  0.77897546  1
  H+  H80  1  0.85502194  -0.03232855  0.34160919  1
  H+  H81  1  0.36085511  0.63566584  0.49916632  1
  H+  H82  1  0.87044019  0.73238220  0.48566038  1
  H+  H83  1  0.10291028  0.47471899  0.84323481  1
  H+  H84  1  0.25801191  0.37575927  0.82761121  1
  H+  H85  1  0.61285608  0.63530747  0.82047698  1
  H+  H86  1  0.62434613  0.26648365  0.33137694  1
  H+  H87  1  0.63834427  0.02692726  0.32976346  1
  H+  H88  1  0.22590841  0.11226673  0.33395742  1
  H+  H89  1  0.86688309  0.15119994  0.82145340  1
  H+  H90  1  0.14999249  0.37715406  0.49405178  1
  H+  H91  1  0.62438705  0.73082173  1.00257753  1
  H+  H92  1  0.37598582  0.64764404  0.01184783  1
  H+  H93  1  0.64548830  0.53461262  0.49333623  1
  H+  H94  1  0.88959439  0.60934335  0.50857581  1
  H+  H95  1  0.35793755  0.38961808  0.16741492  1
  H+  H96  1  0.86682279  0.12125564  0.48677673  1
  H+  H97  1  0.62441347  0.01121950  0.14389055  1
  H+  H98  1  0.90789117  0.53223692  0.86313039  1
  H+  H99  1  0.22053648  0.62177356  0.15851444  1
  H+  H100  1  0.85567758  0.38318156  1.00728695  1
  H+  H101  1  0.72145720  0.86313731  0.16520766  1
  H+  H102  1  0.39433219  0.60949836  0.15237369  1
  H+  H103  1  0.65487078  0.62617422  0.98846180  1
  H+  H104  1  0.01729847  0.88056030  0.16175720  1
  H+  H105  1  0.77967635  0.39498802  0.84665515  1
  H+  H106  1  0.52572461  0.63082124  0.15383060  1
  H+  H107  1  0.13705535  0.76874771  0.84246198  1
  H+  H108  1  0.10637623  0.92683168  0.77184367  1
  H+  H109  1  0.10097122  0.12801771  0.66498153  1
  H+  H110  1  0.62446959  0.76864604  0.49599801  1
  H+  H111  1  0.62961803  0.26702092  0.49848691  1
  H+  H112  1  0.86408730  0.38968046  0.85785243  1
  H+  H113  1  0.12628619  0.61491542  0.15447674  1
  H+  H114  1  0.03464366  0.83571235  0.71133384  1
  H+  H115  1  0.28167777  0.39704429  0.48248290  1
  H+  H116  1  0.97021818  0.09702248  0.33571611  1
  H+  H117  1  0.11335310  -0.00440327  0.65730759  1
  H+  H118  1  -0.03200789  0.86959453  0.49126690  1
  H+  H119  1  0.10873759  0.46319905  0.32280906  1
  H+  H120  1  0.35947304  0.85255213  1.01758653  1
  H+  H121  1  0.14515458  0.12427044  0.51017519  1
  H+  H122  1  0.50893607  0.37810940  0.84076035  1
  H+  H123  1  0.48269059  0.37406659  0.32980031  1
  H+  H124  1  0.88663417  0.34278554  0.32843777  1
  H+  H125  1  0.89144720  0.66267354  1.01380516  1
  H+  H126  1  0.03208259  0.63701710  0.83566264  1
  H+  H127  1  0.37570284  0.79706110  0.81643868  1
  H+  H128  1  0.90035222  0.78970403  1.00151207  1
  H+  H129  1  0.04854735  0.52612119  0.27772757  1
  H+  H130  1  0.44335455  0.12121613  0.86152930  1
  H+  H131  1  0.48982927  0.60084523  0.65372259  1
  H+  H132  1  0.39686223  0.09659969  0.65557535  1
  H+  H133  1  0.38590653  0.27519264  1.00623263  1
  H+  H134  1  0.51601819  0.13423924  0.33889301  1
  H+  H135  1  0.19639007  0.08397725  0.66973316  1
  H+  H136  1  0.61508976  0.63197620  0.15651496  1
  H+  H137  1  0.84592255  0.16322710  0.72139820  1
  H+  H138  1  0.33199096  0.64646776  0.18343466  1
  H+  H139  1  0.36397947  0.88566489  0.49126058  1
  H+  H140  1  0.61122138  0.63911297  0.48473277  1
  H+  H141  1  0.69129833  0.13161715  0.84486908  1
  H+  H142  1  0.38017431  0.11825656  0.32989383  1
  H+  H143  1  0.12658005  0.24418139  0.49566991  1
  H+  H144  1  0.77545814  0.38573277  0.16808906  1
  H+  H145  1  0.79608946  0.89543981  0.82152425  1
  H+  H146  1  -0.02304692  0.36942482  0.88235934  1
  H+  H147  1  0.85920627  0.63189183  0.16066644  1
  H+  H148  1  0.57136216  0.12993664  0.83358840  1
  H+  H149  1  0.63558404  0.84214559  0.65090478  1
  H+  H150  1  0.27074804  0.39347563  0.15756537  1
  H+  H151  1  0.49518976  0.91470653  0.88203111  1
  H+  H152  1  0.61681534  0.22878614  0.68226102  1
  H+  H153  1  0.58214916  0.65802763  0.72683583  1
  H+  H154  1  0.20805944  0.85436745  0.99813399  1
  H+  H155  1  0.71737392  0.35030837  0.33578567  1
  H+  H156  1  0.66805621  0.08391708  1.06561399  1
  H+  H157  1  0.21301218  0.85192282  0.17367146  1
  H+  H158  1  0.88952145  0.25631788  0.32407304  1
  H+  H159  1  0.48281311  0.61478315  0.50161105  1
  H+  H160  1  0.22012109  0.86824365  0.32371720  1
  H+  H161  1  0.03985577  0.14174102  0.16123871  1
  H+  H162  1  0.38891573  0.78233110  0.32531605  1
  H+  H163  1  0.12100225  0.35483389  0.84150126  1
  H+  H164  1  0.36925528  0.48486706  0.32564634  1
  H+  H165  1  0.88455533  0.27488591  0.16436862  1
  H+  H166  1  0.35973422  0.15306141  1.02123025  1
  H+  H167  1  0.64717768  0.27990380  0.84423400  1
  H+  H168  1  0.10148965  -0.01644957  0.48094199  1
  H+  H169  1  0.13469321  0.10798338  0.33257143  1
  H+  H170  1  0.77447956  0.13126297  0.33764608  1
  H+  H171  1  0.67243032  0.58245068  0.26074111  1
  H+  H172  1  0.45066122  0.72255354  0.37481927  1
  H+  H173  1  0.94704504  0.10579070  0.83724346  1
  H+  H174  1  0.73392407  0.11981898  0.65106184  1
  H+  H175  1  0.51249443  0.61608153  0.33005319  1
  H+  H176  1  0.61299039  0.37137299  0.17116984  1
  H+  H177  1  0.79594139  0.65126864  1.00466130  1
  H+  H178  1  0.83508039  0.66776085  0.10072388  1
  H+  H179  1  0.27059794  0.63315344  0.49410081  1
  H+  H180  1  0.87002583  0.12879362  0.65951481  1
  H+  H181  1  0.23518200  0.85653614  0.66630231  1
  H+  H182  1  0.63315148  0.36129637  0.84751210  1
  H+  H183  1  1.02533677  0.37255056  0.33183661  1
  H+  H184  1  0.40594616  0.07412250  0.10166871  1
  H+  H185  1  1.02548125  0.63282855  0.49466007  1
  H+  H186  1  0.34695799  0.96102544  0.01956042  1
  H+  H187  1  0.10020114  0.88397984  0.32999395  1
  H+  H188  1  0.37591951  0.76502212  1.00947885  1
  H+  H189  1  0.60695001  0.22742566  0.00834539  1
  H+  H190  1  0.12530457  -0.00400645  1.02558328  1
  H+  H191  1  0.05482198  0.66622303  0.09323631  1
  H+  H192  1  0.18546087  0.11453845  0.87047681  1
  H+  H193  1  0.51991202  0.14041148  0.15504950  1
  H+  H194  1  0.65343781  0.93067577  0.72220561  1
  H+  H195  1  0.61557679  0.13695341  0.48818426  1
  H+  H196  1  0.88381593  1.02524468  -0.00695610  1
  H+  H197  1  0.62373857  0.14521518  0.67158119  1
  H+  H198  1  0.41917938  0.30479932  0.64585345  1
  H+  H199  1  0.57361018  0.90180317  0.04394975  1
  H+  H200  1  0.61278724  0.14053720  0.01709331  1
  H+  H201  1  0.13700940  0.60860100  0.50464239  1
  H+  H202  1  0.40311029  0.90800206  0.87420264  1
  H+  H203  1  0.28390523  0.21245485  0.71788852  1
  H+  H204  1  0.03673612  0.15948915  0.50881396  1
  H+  H205  1  0.49674859  0.39606940  0.65788655  1
  H+  H206  1  0.15139485  0.00868506  0.17944684  1
  H+  H207  1  1.01789837  0.38963557  0.14862643  1
  H+  H208  1  0.11353050  0.14355044  0.01380751  1
  H+  H209  1  0.77384916  0.64677803  0.81353160  1
  H+  H210  1  0.35031593  0.98128585  0.83507368  1
  H+  H211  1  0.78813341  0.65058971  0.66184932  1
  H+  H212  1  0.61991927  0.48051520  0.33196224  1
  H+  H213  1  0.35443721  0.70903609  0.67161579  1
  H+  H214  1  0.89928789  1.01847385  0.17413164  1
  H+  H215  1  0.96963467  0.61238940  0.17036993  1
  H+  H216  1  0.36279187  -0.02605514  0.48999089  1
  H+  H217  1  0.35229612  0.87640718  0.16378566  1
  H+  H218  1  0.37008282  0.87676515  0.68083639  1
  H+  H219  1  0.17327570  0.58057672  0.90210000  1
  H+  H220  1  0.03391262  0.38327336  0.48251947  1
  H+  H221  1  0.64154279  0.11616111  0.32906643  1
  H+  H222  1  0.83599679  0.33413990  0.66297938  1
  H+  H223  1  0.77847682  0.88909811  1.00221635  1
  H+  H224  1  0.14526316  0.43199893  0.72528129  1
  H+  H225  1  0.74085888  0.37301052  0.68948966  1
  H+  H226  1  0.97959591  0.86418829  0.64275426  1
  H+  H227  1  0.87049228  0.89504448  0.00429055  1
  H+  H228  1  0.35337245  0.38741722  0.66867269  1
  H+  H229  1  0.47745029  0.84880542  0.65896433  1
  H+  H230  1  0.94644403  0.06598119  0.47978222  1
  H+  H231  1  0.10577633  0.20939656  0.34460814  1
  H+  H232  1  0.84544204  0.87884220  0.49089222  1
  H+  H233  1  0.63041095  0.77114798  0.83412622  1
  H+  H234  1  0.38749112  0.51133731  0.84379590  1
  H+  H235  1  0.52437818  0.13523999  0.49100956  1
  H+  H236  1  -0.01423300  0.88136896  -0.00136245  1
  H+  H237  1  0.38174781  0.39226279  0.33392931  1
  H+  H238  1  0.11818456  0.73819567  0.33796382  1
  H+  H239  1  0.64491164  0.47817316  0.71789461  1
  H+  H240  1  0.95615086  0.53709059  0.39633419  1
  H+  H241  1  0.10507802  0.38208833  0.99586955  1
  H+  H242  1  0.37756378  0.36123495  0.85131427  1
  H+  H243  1  0.47481516  0.86238553  0.50432369  1
  H+  H244  1  0.63455820  0.02421893  0.49940647  1
  H+  H245  1  0.33728637  0.16625528  0.71389689  1
  H+  H246  1  0.48822101  0.62338043  0.99212856  1
  H+  H247  1  0.87964273  0.65598780  0.33329731  1
  H+  H248  1  0.11936247  0.86433361  0.67281502  1
  H+  H249  1  0.35931737  0.39245462  0.99275991  1
  H+  H250  1  0.04969518  0.40789705  0.79040191  1
  H+  H251  1  0.78253307  0.13286397  0.48659459  1
  H+  H252  1  0.90493067  0.26665906  0.49543560  1
  H+  H253  1  0.41654699  0.80802281  0.79959861  1
  H+  H254  1  0.77642289  0.37936915  0.50151944  1
  H+  H255  1  -0.01250473  0.37442658  -0.02080434  1
  H+  H256  1  0.15792728  0.83454919  0.93439535  1
  H+  H257  1  0.61380200  0.38721704  0.33642108  1
  H+  H258  1  0.09787382  0.72255923  0.15412264  1
  H+  H259  1  0.63737281  0.51574687  0.16957683  1
  H+  H260  1  0.62743542  -0.00931745  0.85154346  1
  H+  H261  1  0.71512062  0.85752375  0.49972309  1
  H+  H262  1  0.65873155  0.81616996  0.58669696  1
  H+  H263  1  0.14237054  0.76723067  0.51511447  1
  H+  H264  1  0.52095345  0.62859752  0.82006803  1
  H+  H265  1  0.85511450  0.87882562  0.15594326  1
  H+  H266  1  0.58831092  0.83790008  0.74211693  1
  H+  H267  1  0.12059266  0.63715323  0.82930453  1
  H+  H268  1  0.88268302  0.52169009  0.17797972  1
  H+  H269  1  0.34067830  0.18734934  0.10148466  1
  H+  H270  1  0.60296292  0.61996169  0.33571220  1
  H+  H271  1  0.28487634  0.14014248  0.16555126  1
  H+  H272  1  0.71385787  0.86566443  0.32124359  1
  H+  H273  1  0.72299613  0.35888640  1.00239614  1
  H+  H274  1  0.21987788  0.36584188  0.98332836  1
  H+  H275  1  0.35382851  -0.02365512  0.33951629  1
  H+  H276  1  0.84433687  -0.03076648  0.49364213  1
  H+  H277  1  0.62819153  0.10316804  0.15168568  1
  H+  H278  1  0.61833435  0.39448195  0.48218765  1
  H+  H279  1  0.38305880  0.51440947  0.16374782  1
  H+  H280  1  0.12907157  0.89404826  0.83233397  1
  H+  H281  1  0.36102956  0.48221184  0.99117685  1
  H+  H282  1  0.98118782  0.52005636  0.38022942  1
  H+  H283  1  0.88932257  1.01912541  0.64286324  1
  H+  H284  1  0.87062458  0.23328760  -0.00957600  1
  H+  H285  1  0.61128005  0.71495662  0.66397851  1
  H+  H286  1  0.63496383  0.40041244  0.67785310  1
  H+  H287  1  0.65149887  0.53581667  0.64041241  1
  H+  H288  1  0.32122363  0.63590084  0.75585071  1
  H+  H289  1  0.82628289  0.39340954  0.40849590  1
  H+  H290  1  0.08073869  0.15678357  0.40636284  1
  H+  H291  1  0.66548143  0.33464606  0.94144563  1
  H+  H292  1  0.83144016  0.91511845  0.09701576  1
  H+  H293  1  0.12561733  0.35399289  0.65226424  1
  H+  H294  1  0.86982120  0.75063178  0.33810343  1
  H+  H295  1  0.41941641  0.82852747  0.59952001  1
  H+  H296  1  0.74849119  0.10397508  0.88040817  1
  H+  H297  1  0.42605282  0.59451242  0.93431414  1
  H+  H298  1  0.58550811  0.17801718  0.10161576  1
  H+  H299  1  0.73049424  0.19437174  0.62286849  1
  H+  H300  1  0.36024196  0.67695144  0.40559288  1
  H+  H301  1  0.89364751  0.24719418  0.80493179  1
  H+  H302  1  0.42806263  0.57289501  0.58489299  1
  H+  H303  1  0.08132591  0.17733857  0.09704550  1
  H+  H304  1  0.08459938  0.66157840  0.73794111  1
  H+  H305  1  0.17767599  0.82560840  0.60377037  1
  H+  H306  1  0.26292785  0.62325527  0.66975749  1
  H+  H307  1  0.38968986  0.11469488  0.50608968  1
  H+  H308  1  0.34385343  0.42859166  0.39299252  1
  H+  H309  1  0.32013117  0.40736134  0.76983822  1
  H+  H310  1  0.15380220  0.32642715  0.92883201  1
  H+  H311  1  0.82775274  0.40666299  0.07050213  1
  H+  H312  1  0.12435257  0.85393068  0.17184443  1
  H+  H313  1  0.84009049  0.68071469  0.72583125  1
  H+  H314  1  0.09471980  0.41863053  0.42299803  1
  H+  H315  1  0.57657303  0.16423894  0.39805568  1
  H+  H316  1  0.91874630  0.32722478  0.22749308  1
  H+  H317  1  0.67169468  0.09259875  0.55500039  1
  H+  H318  1  0.08500151  0.66790044  0.43530901  1
  H+  H319  1  0.06824114  0.92403412  0.42155417  1
  H+  H320  1  0.63722155  0.26997072  0.18022429  1
  H+  H321  1  0.62940198  0.85939315  0.84692070  1
  H+  H322  1  0.86442389  0.46806503  0.49924256  1
  H+  H323  1  0.84119342  0.91343107  0.75890831  1
  H+  H324  1  0.84340701  0.18343703  0.09032539  1
  H+  H325  1  0.40670223  0.83047443  0.22459951  1
  H+  H326  1  0.61140724  0.44664824  0.06032035  1
  H+  H327  1  0.59006912  0.42713172  0.42354868  1
  H+  H328  1  0.38265117  0.12084753  0.15156646  1
  H+  H329  1  0.32549703  0.91420190  0.39751318  1
  H+  H330  1  0.91256469  0.83272324  0.55265042  1
  H+  H331  1  0.65637573  0.53871532  0.98649565  1
  H+  H332  1  0.10609513  0.64341750  0.33162178  1
  H+  H333  1  0.84292708  0.67840450  0.40034150  1
  H+  H334  1  0.87209123  0.86148415  0.33146125  1
  H+  H335  1  0.91661448  0.57946453  0.56963352  1
  H+  H336  1  0.54784890  0.35561740  0.11788093  1
  H+  H337  1  0.93405753  0.81806281  0.90432751  1
  H+  H338  1  0.13522316  0.57217201  0.24207685  1
  H+  H339  1  0.92078313  0.60751151  0.26436398  1
  H+  H340  1  0.67444927  0.59207828  0.89460430  1
  H+  H341  1  0.06291218  0.16048232  0.76094571  1
  H+  H342  1  0.38272938  0.27217738  0.18317484  1
  H+  H343  1  0.15892727  0.83169215  0.26408019  1
  H+  H344  1  0.16466259  0.07658184  0.56334079  1
  H+  H345  1  0.67641246  0.59760160  0.55100682  1
  H+  H346  1  0.37726689  0.86503904  0.32300480  1
  H+  H347  1  -0.00799854  0.84831256  0.84584131  1
  H+  H348  1  0.36960650  0.23364297  0.49645592  1
  H+  H349  1  0.42001370  0.85728019  0.95880432  1
  H+  H350  1  0.48780338  0.37789597  0.49336801  1
  H+  H351  1  0.07918665  0.91359119  0.10281002  1
  H+  H352  1  0.70355484  0.34216129  0.62481999  1
  H+  H353  1  0.62704956  0.32168186  0.55347143  1
  H+  H354  1  1.01584031  0.13209909  0.65721304  1
  H+  H355  1  0.07090374  0.41331568  0.05356131  1
  H+  H356  1  0.33726415  0.66818912  0.07337762  1
  H+  H357  1  0.84319297  0.42447883  0.75655694  1
  H+  H358  1  0.89848334  0.08854604  0.89991989  1
  H+  H359  1  0.92827572  0.07020180  0.23592153  1
  H+  H360  1  0.90546880  0.82727761  0.23109716  1
  H+  H361  1  0.34108942  0.92049754  0.77790360  1
  H+  H362  1  0.18060124  0.07113722  0.23725600  1
  H+  H363  1  0.17734822  0.34801548  0.55590468  1
  H+  H364  1  0.56925932  0.65509503  0.42564358  1
  H+  H365  1  0.65908236  0.84238788  0.26022748  1
  H+  H366  1  0.39660340  0.07157456  0.95647863  1
  H+  H367  1  0.91855860  0.07420160  0.58051059  1
  H+  H368  1  0.83810406  0.15928049  0.39574300  1
  H+  H369  1  0.13948463  0.52082810  0.50100475  1
  H+  H370  1  0.42270164  0.07891432  0.56077415  1
  H+  H371  1  0.30898360  0.89980025  0.07832268  1
  H+  H372  1  0.15561554  0.57163518  0.60171689  1
  H+  H373  1  0.73085056  0.12353423  1.00975533  1
  H+  H374  1  0.97707397  0.60941862  0.66576333  1
  H+  H375  1  0.41599809  0.33686008  0.27209200  1
  H+  H376  1  0.40388756  0.08540684  0.26972653  1
  H+  H377  1  0.33802563  0.17324150  0.40556493  1
  H+  H378  1  0.59927361  0.87653102  0.14944261  1
  H+  H379  1  0.41218595  0.33761917  0.91375724  1
  H+  H380  1  0.60406018  0.17004894  0.76815431  1
  H+  H381  1  0.07346881  0.73265388  -0.00097283  1
  H+  H382  1  0.40643651  0.57770964  0.25166230  1
  H+  H383  1  0.67580561  0.82964438  0.92983078  1
  O2-  O384  1  0.09595414  0.18000861  0.14071189  1
  O2-  O385  1  0.09291798  0.18009088  0.48927421  1
  O2-  O386  1  0.05994222  0.16416693  0.80568246  1
  O2-  O387  1  0.07508513  0.41986114  0.12793215  1
  O2-  O388  1  0.09642568  0.42019170  0.46840227  1
  O2-  O389  1  0.06307589  0.41065594  0.83399663  1
  O2-  O390  1  0.06518560  0.66254388  0.13766974  1
  O2-  O391  1  0.08617888  0.66301854  0.48038029  1
  O2-  O392  1  0.09095606  0.66781709  0.81428337  1
  O2-  O393  1  0.07835028  0.90743940  0.14839750  1
  O2-  O394  1  0.06275255  0.92460352  0.46647525  1
  O2-  O395  1  0.10541084  0.93031570  0.81636212  1
  O2-  O396  1  0.34426438  0.18196448  0.15001504  1
  O2-  O397  1  0.34042795  0.17236204  0.48404024  1
  O2-  O398  1  0.30563541  0.16508450  0.85272707  1
  O2-  O399  1  0.33527338  0.42399289  0.14872716  1
  O2-  O400  1  0.34223947  0.42796615  0.46540069  1
  O2-  O401  1  0.32004489  0.40437433  0.81462717  1
  O2-  O402  1  0.32146966  0.67227155  0.14791359  1
  O2-  O403  1  0.33266491  0.66547615  0.48068617  1
  O2-  O404  1  0.32127464  0.63063646  0.80254776  1
  O2-  O405  1  0.31658264  0.90408547  0.15094383  1
  O2-  O406  1  0.33206816  0.91362309  0.47503586  1
  O2-  O407  1  0.33427880  0.92196796  0.82279887  1
  O2-  O408  1  0.58298062  0.17342868  0.14734461  1
  O2-  O409  1  0.58478404  0.16884411  0.47560767  1
  O2-  O410  1  0.61825019  0.17844384  0.81270259  1
  O2-  O411  1  0.57702323  0.39495587  0.15156366  1
  O2-  O412  1  0.59030901  0.42771924  0.46956504  1
  O2-  O413  1  0.56876217  0.40438062  0.82276815  1
  O2-  O414  1  0.58689093  0.66331537  0.14020423  1
  O2-  O415  1  0.57390664  0.66289007  0.47175765  1
  O2-  O416  1  0.58023392  0.66193020  0.80237173  1
  O2-  O417  1  0.56763084  0.90389907  0.13171516  1
  O2-  O418  1  0.57552214  0.91638052  0.47548279  1
  O2-  O419  1  0.58344443  0.92918112  0.84000516  1
  O2-  O420  1  0.83861788  0.18412335  0.13524752  1
  O2-  O421  1  0.84249022  0.15950910  0.47198830  1
  O2-  O422  1  0.84961800  0.18825251  0.79648931  1
  O2-  O423  1  0.83492161  0.41868771  0.15188723  1
  O2-  O424  1  0.83506013  0.40727719  0.48471658  1
  O2-  O425  1  0.84108396  0.42089408  0.83446075  1
  O2-  O426  1  0.82778802  0.66180365  0.14648427  1
  O2-  O427  1  0.84248300  0.67095984  0.46969188  1
  O2-  O428  1  0.82995681  0.67625991  0.79298111  1
  O2-  O429  1  0.82592406  0.91051774  0.14246290  1
  O2-  O430  1  0.81160201  0.90623654  0.47757877  1
  O2-  O431  1  0.84927751  0.90558103  0.80214290  1
  O2-  O432  1  0.19675117  0.06472804  0.19543396  1
  O2-  O433  1  0.17420910  0.09061633  0.51937285  1
  O2-  O434  1  0.12337806  0.07993459  0.86329339  1
  O2-  O435  1  0.17262674  0.34690712  0.17435472  1
  O2-  O436  1  0.18353314  0.34959344  0.51078207  1
  O2-  O437  1  0.15362028  0.32443416  0.84893552  1
  O2-  O438  1  0.15662961  0.58530082  0.17045805  1
  O2-  O439  1  0.16817833  0.57925741  0.52021455  1
  O2-  O440  1  0.16371117  0.57287658  0.85593875  1
  O2-  O441  1  0.15198296  0.82078764  0.18805043  1
  O2-  O442  1  0.17400265  0.82484412  0.53426149  1
  O2-  O443  1  0.16643896  0.82953590  0.85837514  1
  O2-  O444  1  0.40782041  0.08067133  0.14596029  1
  O2-  O445  1  0.41987941  0.08205708  0.51586968  1
  O2-  O446  1  0.38544967  0.07989400  0.87480839  1
  O2-  O447  1  0.41169128  0.33220188  0.20236212  1
  O2-  O448  1  0.42722531  0.35002180  0.50966408  1
  O2-  O449  1  0.40956300  0.33323063  0.86708822  1
  O2-  O450  1  0.41841352  0.58044123  0.17637431  1
  O2-  O451  1  0.42279974  0.58228934  0.52110281  1
  O2-  O452  1  0.42043891  0.57391365  0.85283879  1
  O2-  O453  1  0.40335606  0.82984133  0.17950177  1
  O2-  O454  1  0.41549768  0.83303675  0.52275799  1
  O2-  O455  1  0.44567731  0.91146493  0.90451823  1
  O2-  O456  1  0.66180389  0.07521465  0.14076910  1
  O2-  O457  1  0.66705137  0.08668727  0.50987666  1
  O2-  O458  1  0.68886792  0.08765381  0.87258185  1
  O2-  O459  1  0.66739402  0.33080656  0.19586462  1
  O2-  O460  1  0.65609470  0.32827410  0.51482804  1
  O2-  O461  1  0.66962083  0.33786921  0.86239124  1
  O2-  O462  1  0.66637011  0.57555186  0.18405273  1
  O2-  O463  1  0.67517147  0.59640474  0.50553636  1
  O2-  O464  1  0.66502399  0.58591610  0.84930410  1
  O2-  O465  1  0.66026989  0.83352665  0.17977927  1
  O2-  O466  1  0.65306704  0.82699117  0.51484567  1
  O2-  O467  1  0.66389892  0.83055553  0.85013267  1
  O2-  O468  1  0.94121332  0.07436735  0.19203006  1
  O2-  O469  1  0.90544893  0.06528981  0.50896339  1
  O2-  O470  1  0.89062347  0.09016822  0.85506404  1
  O2-  O471  1  0.91714479  0.33541212  0.18297654  1
  O2-  O472  1  0.94049124  0.32799198  0.50782831  1
  O2-  O473  1  0.91635141  0.33881308  0.89829026  1
  O2-  O474  1  0.91122813  0.58382861  0.19030865  1
  O2-  O475  1  0.91723901  0.57728928  0.52414696  1
  O2-  O476  1  0.94686402  0.59364340  0.87137642  1
  O2-  O477  1  0.91023008  0.82722162  0.18627448  1
  O2-  O478  1  0.90716529  0.83084600  0.50739767  1
  O2-  O479  1  0.94550690  0.79736897  0.86570044  1
  O2-  O480  1  0.16731527  0.08030468  0.31646560  1
  O2-  O481  1  0.14484796  0.05594120  0.64383257  1
  O2-  O482  1  0.17649470  0.10167325  1.03775652  1
  O2-  O483  1  0.15645098  0.30581356  0.31966320  1
  O2-  O484  1  0.15998345  0.32920632  0.63565932  1
  O2-  O485  1  0.15617384  0.33214852  0.97394563  1
  O2-  O486  1  0.11026922  0.55775391  0.28518905  1
  O2-  O487  1  0.15553433  0.56991899  0.64706686  1
  O2-  O488  1  0.17816807  0.58396978  0.97288296  1
  O2-  O489  1  0.15895702  0.83606472  0.30977005  1
  O2-  O490  1  0.17524156  0.82589713  0.65079411  1
  O2-  O491  1  0.15072101  0.83510496  0.97970032  1
  O2-  O492  1  0.40725277  0.08459813  0.31395177  1
  O2-  O493  1  0.43125056  0.07198649  0.64161917  1
  O2-  O494  1  0.40658446  0.06959928  1.00069471  1
  O2-  O495  1  0.41957231  0.34424284  0.31881016  1
  O2-  O496  1  0.43833441  0.36547224  0.63993421  1
  O2-  O497  1  0.41773997  0.33594620  0.98494238  1
  O2-  O498  1  0.40449923  0.57154708  0.29754733  1
  O2-  O499  1  0.43011200  0.56870184  0.63329294  1
  O2-  O500  1  0.42683585  0.59871924  0.97940289  1
  O2-  O501  1  0.41093192  0.83921758  0.30614664  1
  O2-  O502  1  0.41795121  0.82385177  0.64535310  1
  O2-  O503  1  0.39953735  0.83066900  1.00255067  1
  O2-  O504  1  0.67396355  0.08779789  0.31672286  1
  O2-  O505  1  0.69075926  0.13105531  0.62995052  1
  O2-  O506  1  0.66823085  0.09037954  1.01998647  1
  O2-  O507  1  0.65880890  0.32873675  0.31827031  1
  O2-  O508  1  0.68290236  0.34218568  0.66594993  1
  O2-  O509  1  0.66127971  0.33307684  0.98669616  1
  O2-  O510  1  0.67087578  0.58193249  0.30650934  1
  O2-  O511  1  0.67889334  0.59675786  0.62887401  1
  O2-  O512  1  0.68757293  0.59902705  0.97157973  1
  O2-  O513  1  0.65515820  0.84402479  0.30527609  1
  O2-  O514  1  0.66279068  0.81161347  0.63276894  1
  O2-  O515  1  0.67570192  0.83176448  0.97513148  1
  O2-  O516  1  0.91105810  0.06611909  0.31840035  1
  O2-  O517  1  0.92168646  0.07919678  0.62694557  1
  O2-  O518  1  0.91213311  0.08516224  0.97634360  1
  O2-  O519  1  0.92013482  0.31867898  0.31009700  1
  O2-  O520  1  0.82391209  0.29041969  0.63167039  1
  O2-  O521  1  0.92189195  0.34482563  0.96517302  1
  O2-  O522  1  0.92349914  0.61792190  0.30959240  1
  O2-  O523  1  0.91598316  0.57800895  0.65135567  1
  O2-  O524  1  0.95692083  0.63076525  0.99192924  1
  O2-  O525  1  0.90308980  0.83019812  0.31506424  1
  O2-  O526  1  0.91879839  0.83541111  0.63061450  1
  O2-  O527  1  0.92585156  0.84777544  0.98257154  1
  O2-  O528  1  0.07464028  0.16823636  0.01500250  1
  O2-  O529  1  0.07639206  0.14915208  0.36171506  1
  O2-  O530  1  0.07583530  0.16411473  0.67568875  1
  O2-  O531  1  0.07322393  0.41316955  0.00746814  1
  O2-  O532  1  0.08767391  0.40732470  0.34354481  1
  O2-  O533  1  0.09309908  0.41607927  0.70227269  1
  O2-  O534  1  0.04058552  0.67392371  0.01788407  1
  O2-  O535  1  0.08473431  0.67728123  0.35338929  1
  O2-  O536  1  0.08256909  0.65933850  0.69201595  1
  O2-  O537  1  0.08789277  0.93170166  0.02821342  1
  O2-  O538  1  0.06819222  0.91378052  0.34240763  1
  O2-  O539  1  0.07915163  0.88520447  0.68934588  1
  O2-  O540  1  0.33820491  0.18995249  0.03623212  1
  O2-  O541  1  0.33652307  0.17278815  0.35999996  1
  O2-  O542  1  0.28053368  0.15708134  0.72388802  1
  O2-  O543  1  0.32346459  0.41947198  -0.01232047  1
  O2-  O544  1  0.34688604  0.42512115  0.34655566  1
  O2-  O545  1  0.32286748  0.41738347  0.68222412  1
  O2-  O546  1  0.34162850  0.67364547  0.02747782  1
  O2-  O547  1  0.38957159  0.69118849  0.36477534  1
  O2-  O548  1  0.32282720  0.64876249  0.68554763  1
  O2-  O549  1  0.31091128  0.89951510  0.03211242  1
  O2-  O550  1  0.32340328  0.91495150  0.35186566  1
  O2-  O551  1  0.34334534  0.90992672  0.69692951  1
  O2-  O552  1  0.57597522  0.16754678  0.02503546  1
  O2-  O553  1  0.57676302  0.16647162  0.35259333  1
  O2-  O554  1  0.58673347  0.16626086  0.69181357  1
  O2-  O555  1  0.59881025  0.43309103  0.01720712  1
  O2-  O556  1  0.58522618  0.42086747  0.34913937  1
  O2-  O557  1  0.60625305  0.43473052  0.68886207  1
  O2-  O558  1  0.59439448  0.66885463  0.01577068  1
  O2-  O559  1  0.56456664  0.63757078  0.35522937  1
  O2-  O560  1  0.58102557  0.65435313  0.68066590  1
  O2-  O561  1  0.59377850  0.91525632  0.00146111  1
  O2-  O562  1  0.57674754  0.91868210  0.35346695  1
  O2-  O563  1  0.59581223  0.88300057  0.71375393  1
  O2-  O564  1  0.84004091  0.17598714  0.00965281  1
  O2-  O565  1  0.83715457  0.15902289  0.34996512  1
  O2-  O566  1  0.83688615  0.15502680  0.67643528  1
  O2-  O567  1  0.81767407  0.40145246  0.02591331  1
  O2-  O568  1  0.82049950  0.38792924  0.36275947  1
  O2-  O569  1  0.83415627  0.42112734  0.71141001  1
  O2-  O570  1  0.85069737  0.68352802  0.02755852  1
  O2-  O571  1  0.84244827  0.68297678  0.35315777  1
  O2-  O572  1  0.84702502  0.67989205  0.67867921  1
  O2-  O573  1  0.83766106  0.92300971  0.01971648  1
  O2-  O574  1  0.82175694  0.90513719  0.35446469  1
  O2-  O575  1  0.83447963  0.91652621  0.67212414  1
