# generated using pymatgen
data_H2O
_symmetry_space_group_name_H-M   'P 1'
_cell_length_a   17.99950206
_cell_length_b   17.99871382
_cell_length_c   22.01253867
_cell_angle_alpha   89.99371353
_cell_angle_beta   89.99691729
_cell_angle_gamma   120.02068121
_symmetry_Int_Tables_number   1
_chemical_formula_structural   H2O
_chemical_formula_sum   'H384 O192'
_cell_volume   6174.64759742
_cell_formula_units_Z   192
loop_
 _symmetry_equiv_pos_site_id
 _symmetry_equiv_pos_as_xyz
  1  'x, y, z'
loop_
 _atom_type_symbol
 _atom_type_oxidation_number
  H+  1.0
  O2-  -2.0
loop_
 _atom_site_type_symbol
 _atom_site_label
 _atom_site_symmetry_multiplicity
 _atom_site_fract_x
 _atom_site_fract_y
 _atom_site_fract_z
 _atom_site_occupancy
  H+  H0  1  0.26824904  0.65655414  0.36650298  1
  H+  H1  1  0.15903288  0.33901158  -0.06019007  1
  H+  H2  1  0.87059061  0.35164472  0.65105791  1
  H+  H3  1  0.12937226  0.71110330  0.00515243  1
  H+  H4  1  0.40431814  0.61835798  0.36965760  1
  H+  H5  1  0.86643069  0.14648159  0.33680143  1
  H+  H6  1  0.36862632  0.73937367  0.63218182  1
  H+  H7  1  0.63153933  0.24436011  0.18991643  1
  H+  H8  1  0.61823778  0.38395500  0.50015273  1
  H+  H9  1  0.93989978  0.64252847  0.62289288  1
  H+  H10  1  0.76382062  0.62634089  0.83496008  1
  H+  H11  1  0.87223764  0.65141089  0.16697831  1
  H+  H12  1  0.58152160  0.96556951  0.13732813  1
  H+  H13  1  0.16552953  0.65730087  0.63064725  1
  H+  H14  1  0.52974389  0.14365776  0.48838379  1
  H+  H15  1  0.74245916  0.85916031  0.32009340  1
  H+  H16  1  1.01968891  0.65007402  0.84648087  1
  H+  H17  1  0.87242669  0.97706222  0.48889070  1
  H+  H18  1  0.35714523  0.63326984  0.17528334  1
  H+  H19  1  0.26845445  0.63523056  0.16002265  1
  H+  H20  1  0.03605603  0.63723349  0.49314660  1
  H+  H21  1  0.15441313  0.50410778  0.45573100  1
  H+  H22  1  0.44490748  0.72339970  0.44308956  1
  H+  H23  1  0.85708130  0.47414227  0.66999047  1
  H+  H24  1  0.89112115  0.35023117  0.99990587  1
  H+  H25  1  0.74460117  0.88951379  0.16352979  1
  H+  H26  1  0.86386504  0.75440340  0.02158446  1
  H+  H27  1  0.03709958  0.16964963  0.81833071  1
  H+  H28  1  0.88705470  0.10957603  0.50294518  1
  H+  H29  1  0.39054550  0.54584672  0.94454049  1
  H+  H30  1  0.97711040  0.86040984  0.50783873  1
  H+  H31  1  0.10822097  0.23261288  0.33665023  1
  H+  H32  1  0.13807871  0.11811936  0.49607394  1
  H+  H33  1  0.85892470  0.37466605  0.48038358  1
  H+  H34  1  0.37204005  0.47862504  0.84040427  1
  H+  H35  1  0.36342981  0.88506624  0.33815256  1
  H+  H36  1  0.48570269  0.14166736  0.65548516  1
  H+  H37  1  0.08608747  0.38407380  0.74978643  1
  H+  H38  1  0.58422553  0.92891219  0.45251349  1
  H+  H39  1  0.53895262  0.37842769  0.98835065  1
  H+  H40  1  0.35781526  0.87652628  0.00199997  1
  H+  H41  1  0.39907212  0.28312818  0.32091464  1
  H+  H42  1  0.41102551  0.57959106  0.84908852  1
  H+  H43  1  0.41341273  0.35057939  0.91911797  1
  H+  H44  1  0.74448552  0.59881455  0.31643061  1
  H+  H45  1  0.57382090  0.17344568  0.77647904  1
  H+  H46  1  0.15024682  0.37898671  0.48716629  1
  H+  H47  1  0.41809722  0.32291543  0.56239505  1
  H+  H48  1  0.88026656  0.28365653  0.32441052  1
  H+  H49  1  0.13847597  0.05455491  0.33230249  1
  H+  H50  1  0.88093803  0.37534641  0.32979949  1
  H+  H51  1  0.11614045  0.14753382  0.33225128  1
  H+  H52  1  0.15220112  0.88450250  0.66712073  1
  H+  H53  1  0.11031688  0.40665872  0.15902393  1
  H+  H54  1  0.97217855  0.11540727  0.17081733  1
  H+  H55  1  0.27056946  0.13094956  0.82980017  1
  H+  H56  1  0.28744970  0.63880978  0.01299618  1
  H+  H57  1  0.37756017  0.52820160  0.65653617  1
  H+  H58  1  0.17090079  0.63980880  0.45587712  1
  H+  H59  1  0.11736151  0.97485673  0.67084622  1
  H+  H60  1  0.38414878  0.11123648  0.99837540  1
  H+  H61  1  0.64557864  0.02087851  0.66040608  1
  H+  H62  1  0.11422772  0.84795046  0.34896870  1
  H+  H63  1  0.11312116  0.97976309  0.49099791  1
  H+  H64  1  0.24166173  0.87162960  0.19833523  1
  H+  H65  1  0.27034293  0.40127567  0.16621181  1
  H+  H66  1  0.13899569  0.77105907  0.69421474  1
  H+  H67  1  0.38799065  0.11607063  0.49490521  1
  H+  H68  1  0.14196747  0.12194296  -0.00336159  1
  H+  H69  1  0.98016645  0.11740404  0.32845686  1
  H+  H70  1  0.36819017  0.35854360  0.82417119  1
  H+  H71  1  0.74427537  0.33799226  0.83754350  1
  H+  H72  1  0.65728859  0.57029652  0.89525067  1
  H+  H73  1  0.64434322  0.35418004  0.33304484  1
  H+  H74  1  0.53692143  0.65066298  0.16476664  1
  H+  H75  1  0.69464994  0.72121817  0.78111451  1
  H+  H76  1  0.64574002  0.26264552  0.33679818  1
  H+  H77  1  0.90943838  0.28566105  0.83349157  1
  H+  H78  1  -0.01435444  0.84333378  0.33470610  1
  H+  H79  1  0.30174228  0.66176084  0.91293647  1
  H+  H80  1  1.03005844  0.38580917  0.66390902  1
  H+  H81  1  0.62376422  0.63390847  0.48768311  1
  H+  H82  1  0.08651114  0.34274824  0.65927347  1
  H+  H83  1  0.56335975  0.35289863  0.84463036  1
  H+  H84  1  0.62280436  0.51209452  0.82978803  1
  H+  H85  1  0.22397387  0.85897641  0.00552430  1
  H+  H86  1  0.60185169  0.11808859  0.68517127  1
  H+  H87  1  0.48041603  0.36040135  0.50534223  1
  H+  H88  1  0.74003447  0.33852803  0.65583448  1
  H+  H89  1  0.74032773  0.12222117  0.17717776  1
  H+  H90  1  0.79585919  0.37651521  0.03082435  1
  H+  H91  1  0.34090207  0.48317714  0.34244086  1
  H+  H92  1  0.77438159  0.89013754  0.66486316  1
  H+  H93  1  0.59363024  0.10784914  0.17650267  1
  H+  H94  1  0.35407210  0.73131097  0.86233175  1
  H+  H95  1  0.22639358  0.37836758  0.64672428  1
  H+  H96  1  0.89317076  0.13203917  0.18062801  1
  H+  H97  1  0.36540543  0.37938753  0.48908759  1
  H+  H98  1  0.87148288  -0.01561878  0.66411302  1
  H+  H99  1  0.54095952  0.38116635  0.34056662  1
  H+  H100  1  0.86270796  0.21540368  0.66577819  1
  H+  H101  1  0.63946465  0.27195376  0.50239255  1
  H+  H102  1  0.92635059  0.41334492  0.81344456  1
  H+  H103  1  0.46096413  0.27573330  0.27792663  1
  H+  H104  1  0.57520656  0.22841326  0.83561107  1
  H+  H105  1  0.02327802  0.64214268  0.18922284  1
  H+  H106  1  0.21240082  0.35827180  0.00397592  1
  H+  H107  1  0.38915307  0.02855306  0.50388084  1
  H+  H108  1  0.73599882  0.14900471  0.85213090  1
  H+  H109  1  0.64286458  0.12591199  0.33919902  1
  H+  H110  1  0.38218949  0.77032612  0.18256972  1
  H+  H111  1  0.45408869  0.42946327  0.96334764  1
  H+  H112  1  0.63772242  0.64233938  0.82186590  1
  H+  H113  1  0.88597428  0.25940500  -0.01428737  1
  H+  H114  1  0.63034256  0.85373824  -0.00771030  1
  H+  H115  1  0.60929822  0.38674559  0.67364999  1
  H+  H116  1  0.90082304  0.38197493  0.24131525  1
  H+  H117  1  0.62146832  0.89614476  0.82145256  1
  H+  H118  1  0.15888486  0.07959154  0.24368249  1
  H+  H119  1  0.60643934  0.49247423  0.14881402  1
  H+  H120  1  1.08528723  0.43944502  0.80517061  1
  H+  H121  1  0.15402872  0.63574390  0.99012951  1
  H+  H122  1  0.14261863  1.01911827  0.84372024  1
  H+  H123  1  0.51957337  0.40627532  0.14657417  1
  H+  H124  1  0.60729926  0.34387327  0.67362493  1
  H+  H125  1  0.85408902  0.71766406  0.83827046  1
  H+  H126  1  0.46977305  0.15417146  0.23804242  1
  H+  H127  1  0.08592514  0.90938002  0.43801554  1
  H+  H128  1  0.13664901  0.78488882  0.85989713  1
  H+  H129  1  0.77595483  0.14459843  0.33936687  1
  H+  H130  1  0.65145105  0.76697933  0.50900806  1
  H+  H131  1  0.14038381  0.78152960  0.51460504  1
  H+  H132  1  0.12929955  0.62202616  0.15469613  1
  H+  H133  1  0.65452238  0.78601216  0.83991802  1
  H+  H134  1  0.65335972  0.51319380  0.32042956  1
  H+  H135  1  0.88081593  0.26829779  0.49310746  1
  H+  H136  1  0.50990310  0.86270048  -0.00130720  1
  H+  H137  1  0.77402374  0.39096818  0.33305186  1
  H+  H138  1  0.25782982  0.64213866  0.47194574  1
  H+  H139  1  0.18191627  0.59815365  0.88909164  1
  H+  H140  1  0.61960381  0.47387824  0.49792683  1
  H+  H141  1  0.18555589  0.54556590  -0.02775410  1
  H+  H142  1  0.77267862  0.13347033  0.49165285  1
  H+  H143  1  0.87178177  0.14743102  0.82206065  1
  H+  H144  1  0.12286448  -0.01240238  1.01371395  1
  H+  H145  1  0.62828366  0.46293926  -0.01503580  1
  H+  H146  1  0.39361261  0.53041545  0.17856083  1
  H+  H147  1  0.10502439  0.64926334  0.54137887  1
  H+  H148  1  0.04737985  0.52914136  0.34213143  1
  H+  H149  1  0.92932774  0.58536931  1.00866178  1
  H+  H150  1  0.84183374  0.25220522  0.17425681  1
  H+  H151  1  0.52621326  0.65274427  0.34040718  1
  H+  H152  1  0.47023867  0.28428674  0.63389120  1
  H+  H153  1  0.62409134  1.00802007  0.00964685  1
  H+  H154  1  0.83818888  0.64339461  0.68129112  1
  H+  H155  1  0.62676687  0.89185961  0.66646158  1
  H+  H156  1  0.32451484  0.41878843  0.10549891  1
  H+  H157  1  0.86943858  0.89881120  0.01967149  1
  H+  H158  1  0.12665769  0.36254324  0.32409513  1
  H+  H159  1  0.10170351  0.46209535  0.30270964  1
  H+  H160  1  0.49707993  0.42043411  0.67421802  1
  H+  H161  1  0.12020505  0.29733306  0.17866808  1
  H+  H162  1  0.84361843  0.66295672  0.42058039  1
  H+  H163  1  0.36450484  0.65334439  0.61219862  1
  H+  H164  1  0.61371878  0.71499148  1.00272859  1
  H+  H165  1  0.86528052  0.55390933  0.34181929  1
  H+  H166  1  0.22093345  0.37008673  0.32820309  1
  H+  H167  1  0.21848661  0.83038969  0.33960840  1
  H+  H168  1  0.22657297  0.11601024  0.49350207  1
  H+  H169  1  0.62575672  0.98691140  0.35689026  1
  H+  H170  1  0.34874731  0.15494789  0.32370272  1
  H+  H171  1  0.89143702  0.10765478  0.65814744  1
  H+  H172  1  0.39622937  0.89102922  0.83871020  1
  H+  H173  1  0.14056778  0.29228175  0.84872925  1
  H+  H174  1  0.33976956  0.46370247  0.01421466  1
  H+  H175  1  0.37508887  0.36712827  0.17315616  1
  H+  H176  1  0.12966277  0.19577187  0.15456502  1
  H+  H177  1  0.35777321  0.14866565  0.67339403  1
  H+  H178  1  0.25758934  0.15108052  0.33097359  1
  H+  H179  1  0.50350606  0.87482964  0.15985446  1
  H+  H180  1  0.79559871  0.27677507  0.62021029  1
  H+  H181  1  0.33817254  0.37304913  0.01259754  1
  H+  H182  1  -0.00539684  0.56168346  0.65089910  1
  H+  H183  1  0.39140666  0.16085982  0.21256010  1
  H+  H184  1  0.97415746  0.78089832  0.96790325  1
  H+  H185  1  0.73704522  0.37234673  0.82425110  1
  H+  H186  1  0.87981880  0.60301854  0.85659171  1
  H+  H187  1  0.44476218  0.02895633  0.19524045  1
  H+  H188  1  0.11445415  0.23397239  0.48677915  1
  H+  H189  1  0.89690346  0.75706071  0.32291831  1
  H+  H190  1  0.27039317  0.89083129  0.49684406  1
  H+  H191  1  0.37104124  0.23453212  0.01926332  1
  H+  H192  1  0.89843914  0.65774301  1.02312022  1
  H+  H193  1  0.76118975  0.31953410  0.18802676  1
  H+  H194  1  0.22840738  0.87218382  0.85367182  1
  H+  H195  1  0.64683233  0.78527840  0.65783234  1
  H+  H196  1  0.86493948  0.46753579  0.47644196  1
  H+  H197  1  0.87164108  0.72548436  0.48037454  1
  H+  H198  1  0.37462229  0.59181593  0.00368772  1
  H+  H199  1  0.99141296  0.58559129  0.67790409  1
  H+  H200  1  0.37569379  0.89887738  0.68970123  1
  H+  H201  1  0.26586290  0.13011071  0.16882259  1
  H+  H202  1  0.13705632  0.62656057  0.84164260  1
  H+  H203  1  0.45927774  0.36132534  0.82826357  1
  H+  H204  1  0.34664743  0.22805589  0.16524631  1
  H+  H205  1  0.10572441  0.37349000  0.01117128  1
  H+  H206  1  0.73717338  0.61237086  0.50165620  1
  H+  H207  1  0.91472576  0.49662002  0.81763251  1
  H+  H208  1  0.38325399  0.86541213  0.18518025  1
  H+  H209  1  0.59342090  0.41277417  0.40383146  1
  H+  H210  1  0.74079033  0.85656555  0.50564817  1
  H+  H211  1  0.16189929  0.62306181  0.65278773  1
  H+  H212  1  0.35664047  0.22423943  0.82627435  1
  H+  H213  1  0.72403508  0.61410273  -0.00584847  1
  H+  H214  1  0.37598466  0.77436742  0.54518873  1
  H+  H215  1  0.72921056  0.36066789  0.50016735  1
  H+  H216  1  0.62226497  0.09509145  1.02313470  1
  H+  H217  1  0.15880675  0.61021584  0.09072614  1
  H+  H218  1  0.86745037  0.77515805  0.66112340  1
  H+  H219  1  0.64493616  0.12502171  0.50994263  1
  H+  H220  1  0.67810522  0.02551474  0.19469072  1
  H+  H221  1  0.35605266  0.98145273  0.83576634  1
  H+  H222  1  0.78248818  0.89539894  0.82833719  1
  H+  H223  1  0.36087479  0.96684828  0.00286831  1
  H+  H224  1  0.85020182  -0.00982685  0.16290431  1
  H+  H225  1  0.75360944  0.11775246  0.00084537  1
  H+  H226  1  0.16014384  0.38756442  0.84752117  1
  H+  H227  1  0.11704486  0.88787157  0.83486513  1
  H+  H228  1  0.62868794  0.65476078  0.16701719  1
  H+  H229  1  0.73642709  0.63516234  0.17620076  1
  H+  H230  1  0.88928158  0.52630905  0.20273597  1
  H+  H231  1  0.50836282  0.12282695  0.02149450  1
  H+  H232  1  1.00733601  0.38729818  0.32362548  1
  H+  H233  1  0.25016975  0.58029514  0.69109090  1
  H+  H234  1  1.02080953  0.13795682  1.00314139  1
  H+  H235  1  0.83986128  0.91746600  0.76818963  1
  H+  H236  1  0.23237539  0.12512803  1.00110370  1
  H+  H237  1  0.80605330  0.80972407  0.04865999  1
  H+  H238  1  0.63741238  0.77815521  0.16482661  1
  H+  H239  1  0.88724948  0.02541127  0.97600766  1
  H+  H240  1  0.63583908  0.03194054  0.51477969  1
  H+  H241  1  0.64919771  0.14848753  0.85755016  1
  H+  H242  1  0.40770737  0.63063594  0.47124915  1
  H+  H243  1  0.62790649  0.86625985  0.16386372  1
  H+  H244  1  0.37187721  0.85498668  0.51329497  1
  H+  H245  1  0.38018798  0.11441708  0.84374747  1
  H+  H246  1  0.60642527  0.65334702  0.66213409  1
  H+  H247  1  0.04277154  0.15108275  0.67149049  1
  H+  H248  1  0.86675271  0.88062832  0.65966353  1
  H+  H249  1  0.59540532  0.17312265  0.43025656  1
  H+  H250  1  0.88866260  0.85991413  0.50146115  1
  H+  H251  1  0.36462303  0.22651479  0.48576103  1
  H+  H252  1  0.71912324  0.85224353  0.99949106  1
  H+  H253  1  0.12459395  0.93818161  0.33551953  1
  H+  H254  1  0.88025399  0.88566945  0.33669276  1
  H+  H255  1  0.09109728  -0.04299541  0.19105118  1
  H+  H256  1  0.89738184  0.61131063  0.47799764  1
  H+  H257  1  0.54911278  0.89155129  0.35377451  1
  H+  H258  1  0.90033493  0.03335028  0.82979919  1
  H+  H259  1  0.12066384  0.08176669  0.17643531  1
  H+  H260  1  0.61126230  0.54704122  0.66053127  1
  H+  H261  1  0.35307889  0.40009736  0.66648477  1
  H+  H262  1  0.11623125  0.72809146  0.18755771  1
  H+  H263  1  0.88907869  0.86270550  0.84542839  1
  H+  H264  1  0.77780819  0.12700987  0.67226436  1
  H+  H265  1  0.53819145  0.90563352  0.81612705  1
  H+  H266  1  0.71084076  0.62437924  0.66496312  1
  H+  H267  1  0.62046371  0.20973610  0.67447263  1
  H+  H268  1  0.48000014  0.93680572  0.30123864  1
  H+  H269  1  0.38486876  0.26518040  0.66114894  1
  H+  H270  1  0.86697839  0.63780129  -0.00296583  1
  H+  H271  1  0.34351370  0.73323143  0.33315739  1
  H+  H272  1  0.21659920  0.10895479  0.65423262  1
  H+  H273  1  0.38730885  0.76198567  1.01339262  1
  H+  H274  1  0.23241606  0.36679043  0.49267026  1
  H+  H275  1  0.46662866  0.61865331  0.65501346  1
  H+  H276  1  0.42383561  0.57675878  0.56120436  1
  H+  H277  1  0.65038373  0.34612389  1.00506866  1
  H+  H278  1  0.12393618  0.24308212  0.66221837  1
  H+  H279  1  1.00856919  0.36696321  1.00806247  1
  H+  H280  1  0.61935017  0.73467510  0.34010712  1
  H+  H281  1  0.33576697  0.95427557  0.33310351  1
  H+  H282  1  0.49082040  0.87463891  0.66526937  1
  H+  H283  1  0.51887157  0.89916726  0.50828414  1
  H+  H284  1  0.88880184  0.45816354  0.01665626  1
  H+  H285  1  0.10747012  0.49196522  0.13920966  1
  H+  H286  1  1.00915405  0.87063066  0.99998686  1
  H+  H287  1  0.17345864  0.50773641  0.72799629  1
  H+  H288  1  0.60745369  0.42043141  0.77423946  1
  H+  H289  1  0.10488226  0.69711922  0.34762320  1
  H+  H290  1  0.17476769  0.07991395  0.90227066  1
  H+  H291  1  0.07216870  0.40990307  0.07545053  1
  H+  H292  1  0.92954760  0.09394342  0.88731887  1
  H+  H293  1  0.16227296  0.34805023  0.24002494  1
  H+  H294  1  0.67618276  0.84169829  0.90051800  1
  H+  H295  1  0.91876646  0.08465080  0.27037502  1
  H+  H296  1  0.82578277  0.91390741  0.10904232  1
  H+  H297  1  0.32260936  0.41639883  0.39576429  1
  H+  H298  1  0.67757300  0.59191606  0.56207166  1
  H+  H299  1  0.68024272  0.83460512  0.26305236  1
  H+  H300  1  0.82344159  0.70852991  0.08472131  1
  H+  H301  1  0.46829373  0.11255017  0.84499773  1
  H+  H302  1  0.43150761  0.85250741  0.26355774  1
  H+  H303  1  0.09486815  0.92069447  0.73342108  1
  H+  H304  1  0.96260252  0.84735630  0.24254047  1
  H+  H305  1  0.58345149  0.67911905  0.72483430  1
  H+  H306  1  0.67534901  0.58984304  0.23292863  1
  H+  H307  1  0.84154996  0.17521883  0.76370777  1
  H+  H308  1  0.58369854  0.33550173  0.91026294  1
  H+  H309  1  0.17414212  0.34595908  0.58217453  1
  H+  H310  1  0.90387226  0.59790347  0.25091700  1
  H+  H311  1  0.08480331  0.69883241  0.79070852  1
  H+  H312  1  0.33081121  0.17194766  0.42407518  1
  H+  H313  1  0.68707221  0.29573337  0.96986314  1
  H+  H314  1  0.16612303  0.07522007  0.59178648  1
  H+  H315  1  0.43309822  0.12218480  0.59279882  1
  H+  H316  1  0.92123088  0.56989022  0.90972592  1
  H+  H317  1  0.12445676  0.89920866  0.02109588  1
  H+  H318  1  0.33053374  0.67478855  0.76521598  1
  H+  H319  1  0.90018024  0.82710288  0.59553319  1
  H+  H320  1  0.68897968  0.30693013  0.59212113  1
  H+  H321  1  0.68497694  0.83700896  0.59433871  1
  H+  H322  1  0.37229626  0.47119368  0.49033135  1
  H+  H323  1  0.42991204  0.86226962  0.60959812  1
  H+  H324  1  0.89604551  0.32454056  0.55116905  1
  H+  H325  1  0.86794111  0.43329628  0.73237822  1
  H+  H326  1  0.13723485  0.86970273  0.51169480  1
  H+  H327  1  0.16360010  0.83822761  0.94889200  1
  H+  H328  1  0.35370318  0.61802296  0.31550596  1
  H+  H329  1  0.45198200  0.88786199  0.89272113  1
  H+  H330  1  0.93700797  0.34087866  0.89375495  1
  H+  H331  1  0.87215438  0.21771125  0.12114062  1
  H+  H332  1  0.33080450  0.92144227  0.77591686  1
  H+  H333  1  1.01745714  0.59175590  0.99220815  1
  H+  H334  1  0.60030077  0.20574722  0.03626742  1
  H+  H335  1  0.10662072  0.22982619  0.00803129  1
  H+  H336  1  0.56604717  0.89136721  0.05882459  1
  H+  H337  1  0.42500412  0.58755746  0.23841948  1
  H+  H338  1  0.28938083  0.90264708  0.68396193  1
  H+  H339  1  0.39592216  0.77721100  0.94558512  1
  H+  H340  1  0.26888377  0.37352525  0.81219040  1
  H+  H341  1  0.02614456  0.88293797  0.82828652  1
  H+  H342  1  0.87797499  0.97454310  0.33627847  1
  H+  H343  1  0.33614552  0.17217426  0.07678426  1
  H+  H344  1  0.14805595  0.69315335  0.71673405  1
  H+  H345  1  0.92045799  0.07882989  0.59742828  1
  H+  H346  1  0.16340036  0.80847745  0.27925534  1
  H+  H347  1  0.32482476  0.41664405  0.73414371  1
  H+  H348  1  0.13474447  0.54045335  0.56563980  1
  H+  H349  1  0.08660437  0.51928811  0.56665076  1
  H+  H350  1  0.54012318  0.46232125  0.73744386  1
  H+  H351  1  0.97918717  0.11609131  0.50288842  1
  H+  H352  1  0.90837519  0.57024357  0.53682387  1
  H+  H353  1  0.59787261  0.92014812  0.72865905  1
  H+  H354  1  0.87165316  0.64993788  0.58367409  1
  H+  H355  1  0.07643711  0.15519172  0.09408859  1
  H+  H356  1  0.54511318  0.14502877  0.34577103  1
  H+  H357  1  0.33627120  0.65978038  0.08087757  1
  H+  H358  1  0.34020240  0.63873812  0.76874433  1
  H+  H359  1  0.32266722  0.16596714  0.73580006  1
  H+  H360  1  0.58812510  0.66859695  0.43314888  1
  H+  H361  1  0.41413198  0.08553791  0.93729980  1
  H+  H362  1  0.89666670  0.74911242  0.17000187  1
  H+  H363  1  0.67407427  0.08844035  0.60497770  1
  H+  H364  1  0.67170727  0.31122854  0.24554516  1
  H+  H365  1  0.14579754  0.86245937  0.19826514  1
  H+  H366  1  0.10091519  0.21036955  0.76268208  1
  H+  H367  1  0.32947047  0.91355428  0.43749567  1
  H+  H368  1  0.08272623  0.17202854  0.42913393  1
  H+  H369  1  0.84531562  0.91684910  0.42918417  1
  H+  H370  1  0.82561396  0.14176504  0.04763726  1
  H+  H371  1  0.09528424  0.42609755  0.41521016  1
  H+  H372  1  0.82179586  0.67143726  0.74670463  1
  H+  H373  1  0.67031766  0.08999209  0.27913329  1
  H+  H374  1  0.41887925  0.33830934  0.22526190  1
  H+  H375  1  0.49289477  0.60332174  0.50580637  1
  H+  H376  1  0.18282987  0.85029012  0.60904600  1
  H+  H377  1  0.63258286  0.60188732  0.99372663  1
  H+  H378  1  0.92529500  0.83331922  0.90280021  1
  H+  H379  1  0.83091281  0.42017923  0.39251670  1
  H+  H380  1  0.87833195  0.10833644  0.97875730  1
  H+  H381  1  0.55022160  0.13087118  0.12263009  1
  H+  H382  1  0.59293178  0.66404738  0.06453131  1
  H+  H383  1  0.83084398  0.16207373  0.43051606  1
  O2-  O384  1  0.07507128  0.14870858  0.14030258  1
  O2-  O385  1  0.08357289  0.17184111  0.47468222  1
  O2-  O386  1  0.09677107  0.21225741  0.80812666  1
  O2-  O387  1  0.07639828  0.42685251  0.13594820  1
  O2-  O388  1  0.11745860  0.44100234  0.45686269  1
  O2-  O389  1  0.12264202  0.42388525  0.78314911  1
  O2-  O390  1  0.08262794  0.66787859  0.17383890  1
  O2-  O391  1  0.09915308  0.67074647  0.50199890  1
  O2-  O392  1  0.08138761  0.68785617  0.83567480  1
  O2-  O393  1  0.06264897  0.89194744  0.18728295  1
  O2-  O394  1  0.08271908  0.91599838  0.48261240  1
  O2-  O395  1  0.08650241  0.91531576  0.81460027  1
  O2-  O396  1  0.32615079  0.16614566  0.15467177  1
  O2-  O397  1  0.33288453  0.16667821  0.46934077  1
  O2-  O398  1  0.33117713  0.16331300  0.81207423  1
  O2-  O399  1  0.33004069  0.42731023  0.15098521  1
  O2-  O400  1  0.33746533  0.41157580  0.47354739  1
  O2-  O401  1  0.32760172  0.40260812  0.79615608  1
  O2-  O402  1  0.33233941  0.66799653  0.15953724  1
  O2-  O403  1  0.39868076  0.66440067  0.43836537  1
  O2-  O404  1  0.36000249  0.69853467  0.89544854  1
  O2-  O405  1  0.34386508  0.91740549  0.18124339  1
  O2-  O406  1  0.33140063  0.91735400  0.48239568  1
  O2-  O407  1  0.32719896  0.91988867  0.82243910  1
  O2-  O408  1  0.55050552  0.12503168  0.16824713  1
  O2-  O409  1  0.59165844  0.17473548  0.47727466  1
  O2-  O410  1  0.56866728  0.17263926  0.82146570  1
  O2-  O411  1  0.57352508  0.44032729  0.12425604  1
  O2-  O412  1  0.58664139  0.41285014  0.48433338  1
  O2-  O413  1  0.57148447  0.43373607  0.79977269  1
  O2-  O414  1  0.59703873  0.68447347  0.14995251  1
  O2-  O415  1  0.59084673  0.66359940  0.47897152  1
  O2-  O416  1  0.63767271  0.69231303  0.79933974  1
  O2-  O417  1  0.56369129  0.90468915  0.13927720  1
  O2-  O418  1  0.57998502  0.93459366  0.49731535  1
  O2-  O419  1  0.59656102  0.92606176  0.79922676  1
  O2-  O420  1  0.84817696  0.20007662  0.16179551  1
  O2-  O421  1  0.83297550  0.15923041  0.47570540  1
  O2-  O422  1  0.84462573  0.18116889  0.80878263  1
  O2-  O423  1  0.82225744  0.32659540  0.17515147  1
  O2-  O424  1  0.82738409  0.40618728  0.46603152  1
  O2-  O425  1  0.91964050  0.45700882  0.78900952  1
  O2-  O426  1  0.85302678  0.69210724  0.15417834  1
  O2-  O427  1  0.84344646  0.66430307  0.46709378  1
  O2-  O428  1  0.82627152  0.65819616  0.82148557  1
  O2-  O429  1  0.81700182  0.92699703  0.15250376  1
  O2-  O430  1  0.84506568  0.91611557  0.47472020  1
  O2-  O431  1  0.84324691  0.92081826  0.81290027  1
  O2-  O432  1  0.15487344  0.06082877  0.19734627  1
  O2-  O433  1  0.16580173  0.08401383  0.50798246  1
  O2-  O434  1  0.17759963  0.07960539  0.85754022  1
  O2-  O435  1  0.16135081  0.35438928  0.19331245  1
  O2-  O436  1  0.17095620  0.34094971  0.50528781  1
  O2-  O437  1  0.17298987  0.34913924  0.87208728  1
  O2-  O438  1  0.16126814  0.59493155  0.13331113  1
  O2-  O439  1  0.21016716  0.61910795  0.44317979  1
  O2-  O440  1  0.16799723  0.59433302  0.84522418  1
  O2-  O441  1  0.17893691  0.83506669  0.21084900  1
  O2-  O442  1  0.17129038  0.84301491  0.52656819  1
  O2-  O443  1  0.16930105  0.84758756  0.87158397  1
  O2-  O444  1  0.39827464  -0.01189761  0.22246542  1
  O2-  O445  1  0.42107408  0.09092147  0.51361782  1
  O2-  O446  1  0.40795801  0.08263386  0.86158889  1
  O2-  O447  1  0.40308699  0.33229920  0.18141535  1
  O2-  O448  1  0.41821166  0.32840233  0.51714123  1
  O2-  O449  1  0.40111368  0.33062272  0.84634744  1
  O2-  O450  1  0.42582250  0.59101168  0.19387665  1
  O2-  O451  1  0.42977906  0.57198133  0.51612459  1
  O2-  O452  1  0.40509830  0.52956249  0.87024843  1
  O2-  O453  1  0.41833667  0.83258938  0.19350623  1
  O2-  O454  1  0.40959707  0.83444470  0.53036031  1
  O2-  O455  1  0.43881658  0.87192696  0.85018532  1
  O2-  O456  1  0.68105776  0.08095184  0.19153133  1
  O2-  O457  1  0.67479428  0.09505140  0.52619915  1
  O2-  O458  1  0.69121093  0.14072352  0.88142135  1
  O2-  O459  1  0.67690356  0.30289442  0.20032202  1
  O2-  O460  1  0.67174474  0.33187267  0.52073524  1
  O2-  O461  1  0.56561936  0.30795686  0.87027138  1
  O2-  O462  1  0.67540386  0.60514095  0.18818112  1
  O2-  O463  1  0.67732646  0.58277565  0.51727129  1
  O2-  O464  1  0.66141171  0.57524000  0.85029721  1
  O2-  O465  1  0.66585372  0.84313469  0.17696395  1
  O2-  O466  1  0.68503729  0.82520716  0.52721333  1
  O2-  O467  1  0.68103488  0.84597092  0.85505917  1
  O2-  O468  1  0.91260400  0.08990723  0.18699155  1
  O2-  O469  1  0.91903447  0.08100234  0.51854864  1
  O2-  O470  1  0.92750420  0.09439954  0.84244966  1
  O2-  O471  1  0.88975906  0.40534655  0.20315083  1
  O2-  O472  1  0.90489786  0.32902450  0.50646455  1
  O2-  O473  1  0.94583008  0.34536789  0.84940941  1
  O2-  O474  1  0.90904396  0.58772918  0.20676858  1
  O2-  O475  1  0.92508081  0.57828528  0.49381617  1
  O2-  O476  1  0.91710595  0.57836908  0.86533909  1
  O2-  O477  1  0.97086927  0.85925783  0.19715616  1
  O2-  O478  1  0.91485718  0.82636588  0.51919246  1
  O2-  O479  1  0.91456930  0.82712515  0.85824948  1
  O2-  O480  1  0.16762297  0.10605494  0.30759113  1
  O2-  O481  1  0.16022920  0.06809197  0.63626363  1
  O2-  O482  1  0.17293799  0.09147426  0.98491758  1
  O2-  O483  1  0.16027986  0.33595140  0.30928994  1
  O2-  O484  1  0.16909283  0.34198206  0.62743600  1
  O2-  O485  1  0.15187038  0.33044285  0.98677393  1
  O2-  O486  1  0.07230759  0.58339662  0.31972178  1
  O2-  O487  1  0.18853645  0.54166331  0.68973533  1
  O2-  O488  1  0.21381339  0.60762565  0.96767867  1
  O2-  O489  1  0.15781341  0.79809119  0.32506863  1
  O2-  O490  1  0.18812586  0.85646122  0.65373534  1
  O2-  O491  1  0.16122587  0.83068283  0.99410497  1
  O2-  O492  1  0.42697066  0.16964583  0.24961487  1
  O2-  O493  1  0.44242553  0.15004689  0.63316717  1
  O2-  O494  1  0.41472748  0.08214140  0.98307598  1
  O2-  O495  1  0.45144763  0.32079387  0.29645872  1
  O2-  O496  1  0.43571170  0.31243424  0.63818923  1
  O2-  O497  1  0.42560245  0.36687963  0.96420347  1
  O2-  O498  1  0.39287799  0.59570591  0.32694546  1
  O2-  O499  1  0.40980650  0.58532566  0.63506184  1
  O2-  O500  1  0.38805917  0.54719013  0.98988225  1
  O2-  O501  1  0.44297042  0.87515651  0.30728847  1
  O2-  O502  1  0.42894637  0.85125735  0.65390256  1
  O2-  O503  1  0.41055653  0.81261738  0.98431684  1
  O2-  O504  1  0.67314421  0.09106183  0.32365533  1
  O2-  O505  1  0.67539858  0.08396435  0.65035153  1
  O2-  O506  1  0.65985835  0.06947538  1.02060215  1
  O2-  O507  1  0.67392033  0.32379046  0.31678806  1
  O2-  O508  1  0.70143058  0.28712231  0.63151039  1
  O2-  O509  1  0.67857096  0.31040932  1.01095929  1
  O2-  O510  1  0.68413191  0.57066755  0.30133843  1
  O2-  O511  1  0.65863983  0.60084292  0.63938812  1
  O2-  O512  1  0.66689125  0.57510659  0.97749026  1
  O2-  O513  1  0.68156215  0.82824942  0.30705625  1
  O2-  O514  1  0.68552897  0.84440541  0.64140700  1
  O2-  O515  1  0.66481721  0.82731991  0.97662530  1
  O2-  O516  1  0.91784188  0.08317901  0.31523682  1
  O2-  O517  1  0.91945322  0.07461183  0.64291386  1
  O2-  O518  1  0.91897238  0.08676114  0.96796347  1
  O2-  O519  1  0.91044459  0.34511895  0.31085552  1
  O2-  O520  1  0.85847765  0.30092478  0.62592438  1
  O2-  O521  1  0.92204894  0.32201344  0.97864431  1
  O2-  O522  1  0.89875920  0.61457179  0.32838352  1
  O2-  O523  1  0.87934411  0.61195500  0.61147248  1
  O2-  O524  1  0.95170236  0.55667660  0.98311383  1
  O2-  O525  1  0.92962376  0.82100753  0.31351373  1
  O2-  O526  1  0.89497061  0.83222916  0.64070892  1
  O2-  O527  1  0.95438821  0.82101589  0.97783851  1
  O2-  O528  1  0.07862240  0.16796598  0.02221855  1
  O2-  O529  1  0.08002130  0.17188294  0.35093928  1
  O2-  O530  1  0.09909945  0.19140529  0.68859491  1
  O2-  O531  1  0.07048799  0.40160283  0.02591705  1
  O2-  O532  1  0.07183287  0.41788606  0.33333748  1
  O2-  O533  1  0.03743266  0.34078585  0.68246209  1
  O2-  O534  1  0.11049093  0.64973545  0.01176401  1
  O2-  O535  1  0.07430010  0.63974468  0.36860529  1
  O2-  O536  1  0.10920244  0.71601329  0.71878113  1
  O2-  O537  1  0.09101926  0.92845520  0.03090736  1
  O2-  O538  1  0.09053478  0.88752670  0.36051076  1
  O2-  O539  1  0.09416668  0.91574021  0.68854735  1
  O2-  O540  1  0.33769688  0.17423618  0.03109421  1
  O2-  O541  1  0.32084939  0.17999470  0.34769151  1
  O2-  O542  1  0.32090295  0.17057086  0.69024488  1
  O2-  O543  1  0.30736919  0.39951256  0.03173184  1
  O2-  O544  1  0.31339179  0.42092468  0.35159105  1
  O2-  O545  1  0.32399845  0.42782101  0.68479762  1
  O2-  O546  1  0.34522043  0.66228941  0.03631979  1
  O2-  O547  1  0.29758245  0.67438702  0.32673258  1
  O2-  O548  1  0.34112840  0.69139387  0.60252584  1
  O2-  O549  1  0.32834427  0.90672706  0.01716079  1
  O2-  O550  1  0.32265611  0.90249181  0.35575606  1
  O2-  O551  1  0.34507773  0.92775185  0.70598743  1
  O2-  O552  1  0.56193753  0.14424229  0.04664713  1
  O2-  O553  1  0.60362400  0.17346568  0.36108796  1
  O2-  O554  1  0.57792027  0.15573515  0.69556733  1
  O2-  O555  1  0.60055878  0.39917983  -0.01736926  1
  O2-  O556  1  0.59954466  0.41199455  0.35883164  1
  O2-  O557  1  0.52938991  0.47638824  0.69486431  1
  O2-  O558  1  0.59169339  0.65707507  0.02009859  1
  O2-  O559  1  0.58188086  0.67798097  0.36050457  1
  O2-  O560  1  0.57689682  0.68293329  0.68041363  1
  O2-  O561  1  0.57178601  0.89469192  0.01397856  1
  O2-  O562  1  0.60067769  0.92983530  0.37685602  1
  O2-  O563  1  0.59515775  0.91999446  0.68219035  1
  O2-  O564  1  0.82021793  0.14764027  0.00416358  1
  O2-  O565  1  0.83879691  0.17933914  0.35097321  1
  O2-  O566  1  0.84038202  0.15774068  0.68440507  1
  O2-  O567  1  0.85819475  0.39995899  0.03533658  1
  O2-  O568  1  0.83497327  0.43017111  0.34730518  1
  O2-  O569  1  0.83686100  0.41942106  0.69030522  1
  O2-  O570  1  0.80909893  0.72612437  0.04516488  1
  O2-  O571  1  0.84631771  0.65353083  0.34615553  1
  O2-  O572  1  0.81630283  0.67743112  0.70132917  1
  O2-  O573  1  0.81680412  0.87189469  0.04361055  1
  O2-  O574  1  0.84845215  0.91406461  0.35128802  1
  O2-  O575  1  0.83853473  0.92020082  0.67976153  1
