# generated using pymatgen
data_H2O
_symmetry_space_group_name_H-M   'P 1'
_cell_length_a   17.99249180
_cell_length_b   17.99854939
_cell_length_c   22.00870334
_cell_angle_alpha   89.96742560
_cell_angle_beta   90.01156081
_cell_angle_gamma   120.01407021
_symmetry_Int_Tables_number   1
_chemical_formula_structural   H2O
_chemical_formula_sum   'H384 O192'
_cell_volume   6171.52143413
_cell_formula_units_Z   192
loop_
 _symmetry_equiv_pos_site_id
 _symmetry_equiv_pos_as_xyz
  1  'x, y, z'
loop_
 _atom_type_symbol
 _atom_type_oxidation_number
  H+  1.0
  O2-  -2.0
loop_
 _atom_site_type_symbol
 _atom_site_label
 _atom_site_symmetry_multiplicity
 _atom_site_fract_x
 _atom_site_fract_y
 _atom_site_fract_z
 _atom_site_occupancy
  H+  H0  1  0.65007180  0.87169196  0.84252075  1
  H+  H1  1  0.37055358  0.13894641  0.68254112  1
  H+  H2  1  0.87426591  0.14731593  0.15339270  1
  H+  H3  1  0.14194687  0.12504478  0.18167915  1
  H+  H4  1  0.86643331  0.23893309  0.82655622  1
  H+  H5  1  0.37436534  0.73624053  0.66516422  1
  H+  H6  1  0.13742377  0.61458857  0.32823094  1
  H+  H7  1  0.84459502  0.86881738  0.32208052  1
  H+  H8  1  0.85749165  0.64210428  0.16262546  1
  H+  H9  1  0.86982020  0.16427858  0.66354695  1
  H+  H10  1  0.61399015  0.47911430  0.66986428  1
  H+  H11  1  0.13561428  0.10505016  0.52693108  1
  H+  H12  1  0.03070991  0.61851677  0.11143810  1
  H+  H13  1  0.38549348  1.04776481  0.50471808  1
  H+  H14  1  0.12664490  0.95848837  0.66460082  1
  H+  H15  1  0.06037088  0.39409327  0.81335749  1
  H+  H16  1  0.22510757  0.35563936  0.50539582  1
  H+  H17  1  0.51758092  0.11692979  0.49271400  1
  H+  H18  1  0.50997904  0.88499240  0.00284021  1
  H+  H19  1  0.21510136  0.51158075  0.55681677  1
  H+  H20  1  0.82279734  0.90039159  0.69547382  1
  H+  H21  1  0.37743296  0.86959736  1.01595461  1
  H+  H22  1  0.38456385  0.76587224  0.33296075  1
  H+  H23  1  0.47433088  0.10884547  0.66646851  1
  H+  H24  1  0.90875187  0.52488066  0.03281544  1
  H+  H25  1  0.95945086  0.38721805  0.85953904  1
  H+  H26  1  0.35966809  0.37989893  1.00777010  1
  H+  H27  1  0.13152750  0.34857394  0.50118945  1
  H+  H28  1  0.26952562  0.35970380  0.16655293  1
  H+  H29  1  0.62670232  -0.03337699  0.47961501  1
  H+  H30  1  0.36178972  0.62591658  0.50496585  1
  H+  H31  1  0.52012469  0.63347020  0.32687416  1
  H+  H32  1  0.08360706  0.87357216  0.34236629  1
  H+  H33  1  0.87929227  0.27208895  0.51218613  1
  H+  H34  1  0.58242651  0.91945116  0.09107388  1
  H+  H35  1  0.16738275  0.33516108  0.93778284  1
  H+  H36  1  0.14923518  0.61849819  0.97837399  1
  H+  H37  1  0.88040858  0.60940733  0.33312631  1
  H+  H38  1  0.27594333  0.11020923  0.77339312  1
  H+  H39  1  0.51858650  0.13728879  0.81789459  1
  H+  H40  1  0.64253558  1.02965410  0.83085910  1
  H+  H41  1  0.86103866  0.24999395  0.67403444  1
  H+  H42  1  0.40108953  0.76284549  0.49738655  1
  H+  H43  1  0.82971230  0.40767585  0.07808595  1
  H+  H44  1  0.14053503  0.86137724  0.16586582  1
  H+  H45  1  0.11752054  0.48475488  -0.00153900  1
  H+  H46  1  0.27677088  0.14396955  0.17150226  1
  H+  H47  1  0.14447570  0.76658214  0.83805112  1
  H+  H48  1  -0.00672756  0.61597530  0.02027920  1
  H+  H49  1  0.25927464  0.13004527  0.48940679  1
  H+  H50  1  0.78128434  0.90303526  0.15083962  1
  H+  H51  1  0.36605120  0.87998758  0.80977477  1
  H+  H52  1  0.62833062  0.60305172  0.48845562  1
  H+  H53  1  0.77382906  0.39388803  0.67505946  1
  H+  H54  1  0.54091232  0.87505833  0.48146743  1
  H+  H55  1  0.85689782  0.48159771  0.16182698  1
  H+  H56  1  0.36129695  0.64368225  0.15023954  1
  H+  H57  1  0.38993530  0.02863547  1.03112165  1
  H+  H58  1  0.38898419  0.02871852  0.16120570  1
  H+  H59  1  0.31043446  0.89135492  0.72030671  1
  H+  H60  1  0.85458699  0.68302489  0.93667064  1
  H+  H61  1  0.12411265  0.62003180  0.67271525  1
  H+  H62  1  0.76393569  0.62195356  0.49359250  1
  H+  H63  1  0.88866231  0.61367327  0.50691205  1
  H+  H64  1  0.02090524  0.12591076  0.52439708  1
  H+  H65  1  0.35948588  0.46633095  0.50406974  1
  H+  H66  1  0.64585624  0.61829047  0.85779243  1
  H+  H67  1  0.03610034  0.89131075  0.15128054  1
  H+  H68  1  0.38289241  0.01906123  0.66193426  1
  H+  H69  1  0.27098797  0.38386606  0.84537378  1
  H+  H70  1  0.91748605  0.79517790  0.86711002  1
  H+  H71  1  0.40940451  0.35646501  0.64696470  1
  H+  H72  1  0.10347901  0.24402489  0.01182024  1
  H+  H73  1  0.85388272  0.69893655  0.64059986  1
  H+  H74  1  0.10936563  0.93157629  0.10335837  1
  H+  H75  1  0.12725868  0.37051571  0.65227414  1
  H+  H76  1  0.85056710  0.71411116  0.49538666  1
  H+  H77  1  0.75492324  0.61381139  0.34181872  1
  H+  H78  1  0.63899899  0.56053164  0.58433088  1
  H+  H79  1  0.64929920  0.87654455  0.15269252  1
  H+  H80  1  0.85999795  0.13720407  0.49527203  1
  H+  H81  1  0.11242063  0.12591910  0.85622825  1
  H+  H82  1  0.12483692  0.38908721  0.15942167  1
  H+  H83  1  0.89446864  0.82891090  0.66682052  1
  H+  H84  1  0.39273771  0.85986365  0.33535340  1
  H+  H85  1  0.12433487  0.15180978  0.33939554  1
  H+  H86  1  0.77013407  0.60897928  0.01143255  1
  H+  H87  1  0.26933775  0.63421503  0.34367826  1
  H+  H88  1  0.84523919  0.60801934  0.64350440  1
  H+  H89  1  0.52676755  0.14571683  0.15494080  1
  H+  H90  1  0.65272327  0.85845720  0.49528668  1
  H+  H91  1  0.60956066  0.14424930  0.67057621  1
  H+  H92  1  0.53479029  0.38463479  0.67608795  1
  H+  H93  1  0.61716366  0.72690443  1.01048326  1
  H+  H94  1  0.18022046  0.08277636  0.60906282  1
  H+  H95  1  0.48199583  0.37258874  0.84521504  1
  H+  H96  1  0.36719184  0.08736791  0.83118001  1
  H+  H97  1  0.53579903  0.89362244  0.82411832  1
  H+  H98  1  0.74561537  0.86408458  0.50658471  1
  H+  H99  1  0.38697420  0.01442701  0.81780354  1
  H+  H100  1  0.38151075  0.27170338  0.99581259  1
  H+  H101  1  0.88314736  0.37486537  1.01048102  1
  H+  H102  1  0.36630601  0.63999949  0.00524665  1
  H+  H103  1  0.62877128  0.08630686  0.49164408  1
  H+  H104  1  0.00190925  0.12571877  0.16660028  1
  H+  H105  1  0.42197740  0.31806246  0.55895982  1
  H+  H106  1  0.59498644  0.61570769  0.16610558  1
  H+  H107  1  0.87007607  0.90018611  0.14272868  1
  H+  H108  1  0.09274859  1.03068586  0.87830002  1
  H+  H109  1  0.36113414  0.58949670  0.89492733  1
  H+  H110  1  0.52494082  0.88153485  0.66891427  1
  H+  H111  1  0.64169735  0.30193338  0.51345263  1
  H+  H112  1  0.99535527  0.38900986  0.17514317  1
  H+  H113  1  0.16547560  0.60383417  0.60775198  1
  H+  H114  1  0.14563440  0.03315778  0.18025708  1
  H+  H115  1  0.73097197  0.35138008  0.32601818  1
  H+  H116  1  0.37114253  0.51717166  0.67340100  1
  H+  H117  1  0.02702100  0.63058485  0.83067342  1
  H+  H118  1  0.14053968  0.52663031  0.32741940  1
  H+  H119  1  0.86388831  0.75802436  0.33089924  1
  H+  H120  1  0.84617977  1.00365973  0.67389089  1
  H+  H121  1  0.86624385  0.24607664  0.34098209  1
  H+  H122  1  0.00931279  0.36791388  0.49113602  1
  H+  H123  1  0.13343466  0.99826164  0.01611553  1
  H+  H124  1  0.18138058  0.58314929  0.88885759  1
  H+  H125  1  0.87841821  0.37124306  0.66146542  1
  H+  H126  1  0.61726482  0.39272954  0.83178659  1
  H+  H127  1  0.14978632  0.36025785  0.83911507  1
  H+  H128  1  0.90696025  0.04145192  0.16180513  1
  H+  H129  1  0.53416983  0.64548192  0.84964707  1
  H+  H130  1  0.22032311  0.87976726  0.49890964  1
  H+  H131  1  0.13621597  0.76952045  0.16289618  1
  H+  H132  1  0.64476567  0.37679702  0.66490194  1
  H+  H133  1  0.88527910  0.36505780  0.50748852  1
  H+  H134  1  0.58493382  0.17544746  0.73200956  1
  H+  H135  1  0.36914124  0.24048500  0.34829571  1
  H+  H136  1  0.60108410  -0.02900695  0.99653360  1
  H+  H137  1  0.11361550  0.39380110  0.00223626  1
  H+  H138  1  0.87632989  0.39641954  0.33769671  1
  H+  H139  1  0.22085681  0.09224532  0.83438147  1
  H+  H140  1  0.37498884  0.65269013  0.81636461  1
  H+  H141  1  0.11299477  0.74038920  0.49001502  1
  H+  H142  1  0.41417280  0.84901232  0.46978319  1
  H+  H143  1  0.98823097  0.83796635  0.65817772  1
  H+  H144  1  0.87384469  0.48372582  0.49366535  1
  H+  H145  1  0.22607202  0.36594548  0.99858709  1
  H+  H146  1  0.61739735  0.23312583  0.15820215  1
  H+  H147  1  0.04442222  0.91208124  0.01621257  1
  H+  H148  1  -0.04953970  0.84944777  0.32978888  1
  H+  H149  1  0.38845302  0.35116708  0.18849761  1
  H+  H150  1  0.44088376  0.34904509  0.28174928  1
  H+  H151  1  0.14180848  0.48837100  0.81347045  1
  H+  H152  1  0.93231031  0.09263266  0.45874725  1
  H+  H153  1  0.39390989  0.37245863  0.84800856  1
  H+  H154  1  0.52418362  0.13770837  0.01146223  1
  H+  H155  1  0.79398203  0.65437772  0.87990669  1
  H+  H156  1  0.13865245  0.26655698  0.17682837  1
  H+  H157  1  0.27345109  0.87265847  0.81448378  1
  H+  H158  1  0.78233734  0.89507807  0.84463161  1
  H+  H159  1  0.75822247  0.12259339  0.00372325  1
  H+  H160  1  0.65428894  0.01958308  0.17786816  1
  H+  H161  1  0.13366507  0.13014660  0.01357586  1
  H+  H162  1  0.98511771  0.13322676  0.84068146  1
  H+  H163  1  0.61107837  0.18964214  0.46936489  1
  H+  H164  1  0.96864837  0.61980863  0.18369785  1
  H+  H165  1  0.11004292  0.23156950  0.66358506  1
  H+  H166  1  0.86740626  0.47935071  0.67576684  1
  H+  H167  1  0.48536581  0.61127283  1.01160988  1
  H+  H168  1  0.60936729  0.13972096  0.82170327  1
  H+  H169  1  0.14484781  0.52726026  0.17227551  1
  H+  H170  1  0.61314967  0.00626573  0.65037542  1
  H+  H171  1  0.51398928  0.86496432  0.33456822  1
  H+  H172  1  0.36974565  0.22930990  0.17642351  1
  H+  H173  1  0.90329688  1.02221702  0.30311715  1
  H+  H174  1  0.87291278  0.15242440  0.82355123  1
  H+  H175  1  0.14379733  0.86901598  0.99014210  1
  H+  H176  1  0.09011208  0.67708381  0.43249474  1
  H+  H177  1  0.28594690  0.14462028  0.67837304  1
  H+  H178  1  0.63125266  0.27220023  0.84002888  1
  H+  H179  1  0.38596663  0.11463346  0.17367431  1
  H+  H180  1  0.12440976  0.39134868  0.33401242  1
  H+  H181  1  0.15842450  0.66168623  0.51687452  1
  H+  H182  1  0.38675025  0.61476507  0.33045067  1
  H+  H183  1  0.67578626  1.07813619  0.27401565  1
  H+  H184  1  -0.01269822  0.37639753  0.32495152  1
  H+  H185  1  0.38853939  0.52686041  0.32955776  1
  H+  H186  1  0.23241959  0.36701837  0.32745234  1
  H+  H187  1  0.11110914  0.72978648  0.33642164  1
  H+  H188  1  0.71367979  0.85349780  0.30371732  1
  H+  H189  1  0.39842716  0.78428908  0.83699922  1
  H+  H190  1  0.92834389  0.84036636  0.08669249  1
  H+  H191  1  0.28513720  0.64862570  0.50670647  1
  H+  H192  1  0.23466149  0.71940958  0.56120964  1
  H+  H193  1  0.89255107  1.04345812  0.84380097  1
  H+  H194  1  0.84753507  0.12514846  0.00262026  1
  H+  H195  1  0.13210769  0.26197555  0.84632879  1
  H+  H196  1  0.46676401  0.35127324  0.49313894  1
  H+  H197  1  0.38088121  0.40207731  0.34757555  1
  H+  H198  1  0.61398424  0.47235476  0.16521727  1
  H+  H199  1  0.11758860  0.63005146  0.82576947  1
  H+  H200  1  0.70320047  0.82565794  0.65039493  1
  H+  H201  1  0.35041029  0.91700693  0.49283392  1
  H+  H202  1  0.76986053  0.13344744  0.49526149  1
  H+  H203  1  0.67540210  0.32922841  0.23743010  1
  H+  H204  1  0.57560170  0.65819852  0.11046271  1
  H+  H205  1  0.32315390  0.42650920  0.78556944  1
  H+  H206  1  0.62636329  0.10807050  0.99053660  1
  H+  H207  1  0.12672710  0.73696461  0.99319390  1
  H+  H208  1  0.66187264  0.57063667  0.94321897  1
  H+  H209  1  0.11088211  0.21724879  0.52681245  1
  H+  H210  1  0.62275516  0.50947927  0.00154193  1
  H+  H211  1  0.73055079  0.12498327  0.33309069  1
  H+  H212  1  0.14802559  0.85639291  0.82949386  1
  H+  H213  1  0.76232030  0.38628188  0.83020774  1
  H+  H214  1  0.70945909  0.59741935  0.63528133  1
  H+  H215  1  0.59419515  0.38535414  0.46860922  1
  H+  H216  1  0.27374824  0.88512220  0.14140481  1
  H+  H217  1  0.18711068  0.87318331  0.66576120  1
  H+  H218  1  0.14040238  0.73552690  0.68576961  1
  H+  H219  1  0.78156251  0.40040564  0.49471640  1
  H+  H220  1  0.90417446  0.61923345  0.86770098  1
  H+  H221  1  0.35156785  0.22211889  0.49015765  1
  H+  H222  1  0.91460839  0.88034493  0.85140127  1
  H+  H223  1  0.59045904  0.70701322  0.65620151  1
  H+  H224  1  1.03459231  0.14567702  0.33219865  1
  H+  H225  1  0.62734230  0.85914599  0.99343722  1
  H+  H226  1  0.88882977  0.52443704  0.33103522  1
  H+  H227  1  0.98317129  0.61671904  0.66032635  1
  H+  H228  1  0.14820743  0.11316933  0.66571830  1
  H+  H229  1  0.17811177  0.84666763  0.56370152  1
  H+  H230  1  0.86586119  0.36792315  0.84884507  1
  H+  H231  1  0.89871064  0.88961859  0.00102253  1
  H+  H232  1  0.47879462  0.09175765  0.31618481  1
  H+  H233  1  0.97796676  0.15246834  0.64048839  1
  H+  H234  1  0.64172146  0.26154226  0.32189908  1
  H+  H235  1  0.05332290  0.90089720  0.81895163  1
  H+  H236  1  0.61479258  0.50836513  0.48558868  1
  H+  H237  1  0.08175884  0.15965752  0.61547048  1
  H+  H238  1  0.88971688  0.52869724  0.84446529  1
  H+  H239  1  0.87994022  0.85691648  0.51608068  1
  H+  H240  1  0.62572501  0.76044751  0.30604054  1
  H+  H241  1  0.61879479  0.63787207  0.01360216  1
  H+  H242  1  0.98228390  0.62200790  0.50289438  1
  H+  H243  1  0.40308390  0.88512275  0.17386152  1
  H+  H244  1  0.14298581  0.03197440  0.32893121  1
  H+  H245  1  0.11571369  0.51788216  0.65780061  1
  H+  H246  1  0.72756767  0.12129583  0.83341441  1
  H+  H247  1  0.27522135  0.14963906  0.33922134  1
  H+  H248  1  0.63297411  0.73694619  0.47960141  1
  H+  H249  1  0.10416878  0.62345534  0.15788388  1
  H+  H250  1  0.48285019  0.36052440  0.18951346  1
  H+  H251  1  0.85522054  0.97973664  -0.00030626  1
  H+  H252  1  0.19228507  0.90344421  0.30183168  1
  H+  H253  1  0.90418860  0.38637348  0.17491083  1
  H+  H254  1  0.32923423  0.66751938  1.06143655  1
  H+  H255  1  0.24094564  0.62165837  0.82869455  1
  H+  H256  1  0.62346784  0.59581088  0.31765567  1
  H+  H257  1  0.88929413  0.77858069  0.14229698  1
  H+  H258  1  0.77182648  0.38764255  0.16618420  1
  H+  H259  1  0.86751074  0.01490842  0.70498043  1
  H+  H260  1  0.46859172  0.59522849  0.53246244  1
  H+  H261  1  0.28539640  0.87990196  0.33662673  1
  H+  H262  1  0.36300431  0.46898730  0.01881772  1
  H+  H263  1  0.38777231  0.11411133  1.01579596  1
  H+  H264  1  0.24926202  0.38782225  0.68289548  1
  H+  H265  1  0.60983650  0.85949493  0.32215914  1
  H+  H266  1  0.32348927  0.37132628  0.70313357  1
  H+  H267  1  1.01134393  0.39135505  0.66733666  1
  H+  H268  1  0.55370075  0.03137380  0.61557938  1
  H+  H269  1  0.64854165  0.53091496  0.84972880  1
  H+  H270  1  0.64373325  0.36368612  0.18065401  1
  H+  H271  1  0.34589560  0.68509660  0.75730313  1
  H+  H272  1  0.64362233  0.26286854  0.99399606  1
  H+  H273  1  0.72140457  0.60886535  0.17338904  1
  H+  H274  1  0.27633441  0.64910276  0.14975080  1
  H+  H275  1  0.53644708  0.90145259  0.15655693  1
  H+  H276  1  0.96952040  0.11766005  0.99167893  1
  H+  H277  1  0.27413102  0.14871282  0.02060363  1
  H+  H278  1  0.39973594  0.26489478  0.66201720  1
  H+  H279  1  0.98626628  0.38052285  0.99914691  1
  H+  H280  1  0.37165509  0.52227197  0.85372967  1
  H+  H281  1  0.61153052  0.87824953  0.66418367  1
  H+  H282  1  0.59426605  0.61995965  0.65645627  1
  H+  H283  1  0.16848019  0.49806306  0.55926748  1
  H+  H284  1  0.65402261  0.06048894  0.55379020  1
  H+  H285  1  0.13162328  0.01630070  0.51147039  1
  H+  H286  1  0.02130880  0.64187917  0.34092922  1
  H+  H287  1  0.82670768  0.16072469  0.09732419  1
  H+  H288  1  0.90720116  0.33741711  0.60068166  1
  H+  H289  1  0.59288422  0.91613317  0.76403435  1
  H+  H290  1  0.53814595  0.66600713  0.46132585  1
  H+  H291  1  0.16772561  0.34171961  0.59815445  1
  H+  H292  1  0.32243976  0.17149796  0.41616949  1
  H+  H293  1  0.17442511  0.83353465  0.25282621  1
  H+  H294  1  0.86456723  0.61921952  0.02475364  1
  H+  H295  1  0.08490689  0.16882154  0.78418714  1
  H+  H296  1  0.54258205  0.39968765  0.41016632  1
  H+  H297  1  0.41836126  0.33273993  0.93487901  1
  H+  H298  1  0.59333840  0.42834187  0.77299161  1
  H+  H299  1  0.16969507  0.83809303  0.92885818  1
  H+  H300  1  0.17539532  0.08973656  0.26787492  1
  H+  H301  1  0.59404522  0.67085694  0.37841345  1
  H+  H302  1  0.93146633  0.58157223  0.59728549  1
  H+  H303  1  0.06601575  0.91346400  0.40083715  1
  H+  H304  1  0.80454139  0.63391919  0.77978825  1
  H+  H305  1  0.57584040  0.40103038  0.11160857  1
  H+  H306  1  0.36590540  0.64360025  0.67188284  1
  H+  H307  1  0.39947990  0.56764075  0.58412471  1
  H+  H308  1  0.45854640  0.60550710  0.17036039  1
  H+  H309  1  0.33662196  0.17925656  0.07820082  1
  H+  H310  1  0.12384922  0.68427821  0.05160630  1
  H+  H311  1  0.14175710  0.27765009  0.32798288  1
  H+  H312  1  0.32840672  0.65843659  0.40398400  1
  H+  H313  1  0.84135561  0.42058417  0.39768995  1
  H+  H314  1  0.23521176  0.61341009  0.98380755  1
  H+  H315  1  0.42568511  0.08836149  0.56927313  1
  H+  H316  1  0.53069414  0.29514585  0.05128860  1
  H+  H317  1  0.67507907  0.36129750  0.56961827  1
  H+  H318  1  0.93963472  0.09440477  0.25378028  1
  H+  H319  1  0.91645321  0.09326845  0.92933624  1
  H+  H320  1  0.61666792  0.12504270  0.32863092  1
  H+  H321  1  0.43218834  0.57391295  0.95164272  1
  H+  H322  1  0.33894850  0.42227859  0.40404969  1
  H+  H323  1  0.12720119  0.17666996  0.11588445  1
  H+  H324  1  0.09798324  0.42447599  0.10063642  1
  H+  H325  1  0.94426668  0.86242344  0.95087548  1
  H+  H326  1  0.09971514  0.45106522  0.48799343  1
  H+  H327  1  0.66634261  0.32776557  0.90174459  1
  H+  H328  1  0.09831783  0.88494802  0.49443087  1
  H+  H329  1  0.74202993  0.10832624  0.18106522  1
  H+  H330  1  0.92905335  0.35431367  0.26566722  1
  H+  H331  1  0.41299933  0.06067896  0.26020493  1
  H+  H332  1  0.42386264  0.84320207  0.58731261  1
  H+  H333  1  0.81716459  0.92541855  0.36420208  1
  H+  H334  1  0.90795251  0.58779355  0.24123581  1
  H+  H335  1  0.80463196  0.62935524  0.74577928  1
  H+  H336  1  0.15357343  0.97262737  0.80153435  1
  H+  H337  1  0.56863123  0.14236550  0.38340730  1
  H+  H338  1  0.36004337  0.37758415  0.49746645  1
  H+  H339  1  0.60414336  0.49872201  0.32054758  1
  H+  H340  1  0.62296824  0.73159023  0.84446194  1
  H+  H341  1  0.58992703  0.89943164  0.38953621  1
  H+  H342  1  0.10037767  0.89862685  0.72182231  1
  H+  H343  1  0.91115455  0.11911503  0.58503586  1
  H+  H344  1  0.82474209  0.66062578  0.09977260  1
  H+  H345  1  0.37399900  0.78157933  0.99946637  1
  H+  H346  1  1.00770434  0.88117377  0.49467523  1
  H+  H347  1  0.16949829  0.58842822  0.23051650  1
  H+  H348  1  0.77574652  0.37732491  0.01297925  1
  H+  H349  1  0.09147280  0.67056737  0.74279865  1
  H+  H350  1  0.46692440  0.60161115  0.66347201  1
  H+  H351  1  0.39857594  0.58571269  0.22671455  1
  H+  H352  1  0.82652870  0.41681645  0.77206710  1
  H+  H353  1  0.08550079  0.41099961  0.39304732  1
  H+  H354  1  0.77732756  0.81117429  0.73039161  1
  H+  H355  1  0.04959743  0.18806214  0.06882374  1
  H+  H356  1  0.91519081  0.81726875  0.56664218  1
  H+  H357  1  0.66868058  0.83267287  0.20746187  1
  H+  H358  1  0.16780516  0.33417460  0.23267974  1
  H+  H359  1  0.65546560  0.08162603  0.92889654  1
  H+  H360  1  0.66166043  0.56885111  0.23294598  1
  H+  H361  1  0.59081823  0.17262420  0.06614129  1
  H+  H362  1  0.42887907  0.85460659  0.23458087  1
  H+  H363  1  0.88122039  0.00395813  0.50055107  1
  H+  H364  1  0.50395603  0.35075441  1.01220412  1
  H+  H365  1  0.32935864  0.38535564  0.10824098  1
  H+  H366  1  0.83051047  0.92752507  0.06244751  1
  H+  H367  1  0.41929621  0.84680160  0.89425505  1
  H+  H368  1  0.32761982  0.92884643  0.42429880  1
  H+  H369  1  0.91039647  0.34128949  0.94434960  1
  H+  H370  1  0.84725374  0.93317283  0.78906214  1
  H+  H371  1  0.64049677  0.28562491  0.65928033  1
  H+  H372  1  0.38102160  0.86392504  0.64398650  1
  H+  H373  1  0.64237264  0.34960401  0.99593068  1
  H+  H374  1  0.81542235  0.64953099  0.40119822  1
  H+  H375  1  0.67224219  0.84115909  0.90606186  1
  H+  H376  1  0.08530089  0.42401437  0.72059982  1
  H+  H377  1  0.72034050  0.86529833  -0.00358302  1
  H+  H378  1  0.37503292  0.97368787  0.33248561  1
  H+  H379  1  0.84132163  0.18472759  0.73563761  1
  H+  H380  1  0.65878037  0.82053559  0.58695182  1
  H+  H381  1  0.84504084  0.90784720  0.45241450  1
  H+  H382  1  0.83773145  0.19147018  0.40213544  1
  H+  H383  1  0.16127872  0.10581455  0.95179612  1
  O2-  O384  1  0.10511099  0.17166248  0.15689315  1
  O2-  O385  1  0.08155578  0.15568638  0.53991723  1
  O2-  O386  1  0.07851085  0.17279356  0.82776767  1
  O2-  O387  1  0.10078402  0.42636988  0.14542355  1
  O2-  O388  1  0.06896252  0.39187763  0.47373042  1
  O2-  O389  1  0.11572999  0.42899038  0.79381556  1
  O2-  O390  1  0.07299956  0.65384490  0.14261606  1
  O2-  O391  1  0.09050277  0.67917983  0.47823626  1
  O2-  O392  1  0.08735290  0.66112791  0.81262468  1
  O2-  O393  1  0.10010042  0.92226860  0.14859081  1
  O2-  O394  1  0.06862410  0.91514209  0.47896013  1
  O2-  O395  1  0.10545432  0.91218484  0.79571791  1
  O2-  O396  1  0.33733380  0.17247821  0.15537064  1
  O2-  O397  1  0.31810288  0.16359526  0.47034129  1
  O2-  O398  1  0.25027253  0.06999979  0.80759494  1
  O2-  O399  1  0.32670691  0.37110878  0.15173568  1
  O2-  O400  1  0.32964152  0.40891067  0.48444747  1
  O2-  O401  1  0.33095289  0.42523033  0.83003038  1
  O2-  O402  1  0.33323683  0.67435429  0.13045132  1
  O2-  O403  1  0.33945931  0.66160792  0.48612147  1
  O2-  O404  1  0.34501569  0.68367930  0.80388634  1
  O2-  O405  1  0.33573665  0.91935545  0.12938299  1
  O2-  O406  1  0.31793609  0.93712070  0.46948668  1
  O2-  O407  1  0.32877231  0.89989355  0.79048701  1
  O2-  O408  1  0.58430976  0.17792286  0.13613781  1
  O2-  O409  1  0.57132222  0.12821734  0.46836078  1
  O2-  O410  1  0.58128693  0.17207572  0.80657743  1
  O2-  O411  1  0.58225229  0.40869146  0.15611665  1
  O2-  O412  1  0.55470122  0.40620618  0.45858748  1
  O2-  O413  1  0.59216438  0.42846202  0.81824880  1
  O2-  O414  1  0.56209212  0.64374699  0.15374975  1
  O2-  O415  1  0.59710729  0.67786235  0.45946362  1
  O2-  O416  1  0.59361026  0.66896412  0.83635833  1
  O2-  O417  1  0.59250818  0.92109488  0.13558855  1
  O2-  O418  1  0.59972078  0.90573730  0.46382743  1
  O2-  O419  1  0.59630580  0.92157965  0.80913516  1
  O2-  O420  1  0.83339229  0.16666462  0.14222548  1
  O2-  O421  1  0.83260290  0.17226276  0.48766451  1
  O2-  O422  1  0.84209468  0.18253157  0.80600722  1
  O2-  O423  1  0.83181085  0.42155429  0.14724715  1
  O2-  O424  1  0.84136833  0.42231140  0.48034261  1
  O2-  O425  1  0.82468801  0.41639915  0.81741386  1
  O2-  O426  1  0.82582515  0.66935845  0.14464201  1
  O2-  O427  1  0.82508144  0.65383009  0.48017925  1
  O2-  O428  1  0.85567106  0.68647308  0.89153725  1
  O2-  O429  1  0.84355707  0.93608861  0.13534613  1
  O2-  O430  1  0.83967712  0.91702047  0.49540382  1
  O2-  O431  1  0.84592755  0.92727590  0.83300878  1
  O2-  O432  1  0.17512335  0.09193897  0.19730879  1
  O2-  O433  1  0.16982278  0.07488658  0.52872586  1
  O2-  O434  1  0.13915215  0.09024010  0.87781771  1
  O2-  O435  1  0.16590625  0.33086390  0.18748196  1
  O2-  O436  1  0.16525486  0.32631857  0.52258789  1
  O2-  O437  1  0.16956066  0.32628580  0.86178449  1
  O2-  O438  1  0.16558946  0.58797622  0.18547666  1
  O2-  O439  1  0.20290073  0.66099578  0.54526443  1
  O2-  O440  1  0.18035633  0.58277767  0.84289325  1
  O2-  O441  1  0.17077261  0.82884896  0.17840909  1
  O2-  O442  1  0.16385420  0.84329659  0.52029042  1
  O2-  O443  1  0.17876808  0.82885008  0.84836484  1
  O2-  O444  1  0.41700672  0.08312506  0.18426209  1
  O2-  O445  1  0.43411990  0.09712044  0.52466378  1
  O2-  O446  1  0.41407516  0.07438396  0.83200870  1
  O2-  O447  1  0.42526061  0.33015077  0.20956698  1
  O2-  O448  1  0.40898674  0.31943088  0.51525591  1
  O2-  O449  1  0.42252809  0.34053732  0.86131569  1
  O2-  O450  1  0.39787285  0.58680034  0.18212294  1
  O2-  O451  1  0.40668722  0.57003309  0.53719527  1
  O2-  O452  1  0.40096255  0.58474754  0.86729414  1
  O2-  O453  1  0.45048444  0.88532634  0.19603203  1
  O2-  O454  1  0.43323981  0.82757389  0.50359391  1
  O2-  O455  1  0.42798579  0.84593506  0.84996979  1
  O2-  O456  1  0.68641871  0.07150533  0.20295010  1
  O2-  O457  1  0.66458999  0.06268274  0.50917597  1
  O2-  O458  1  0.66652926  0.08979276  0.84580807  1
  O2-  O459  1  0.67732081  0.33510005  0.19093991  1
  O2-  O460  1  0.67547217  0.36237684  0.52380601  1
  O2-  O461  1  0.66335427  0.33214884  0.85647169  1
  O2-  O462  1  0.66117093  0.57127961  0.18748120  1
  O2-  O463  1  0.64951630  0.56608913  0.50538077  1
  O2-  O464  1  0.67620989  0.58705877  0.87176843  1
  O2-  O465  1  0.68458343  0.84976856  0.16502335  1
  O2-  O466  1  0.67887326  0.82599220  0.51350095  1
  O2-  O467  1  0.68127271  0.84398164  0.86031756  1
  O2-  O468  1  0.93909731  0.10152029  0.17697727  1
  O2-  O469  1  0.91693438  0.07646607  0.50127364  1
  O2-  O470  1  0.91989153  0.10561956  0.85228657  1
  O2-  O471  1  0.93903988  0.36560119  0.19550887  1
  O2-  O472  1  0.91356689  0.33392082  0.52565259  1
  O2-  O473  1  0.90073418  0.34207325  0.86741910  1
  O2-  O474  1  0.90750036  0.59042587  0.19555187  1
  O2-  O475  1  0.92373879  0.58738054  0.52051920  1
  O2-  O476  1  0.93284649  0.58518257  0.86083680  1
  O2-  O477  1  0.92646718  0.84072419  0.13128122  1
  O2-  O478  1  0.90806620  0.82044037  0.52196759  1
  O2-  O479  1  0.95367955  0.85905882  0.86355151  1
  O2-  O480  1  0.17852821  0.09155151  0.31454497  1
  O2-  O481  1  0.18068976  0.08415390  0.65443303  1
  O2-  O482  1  0.16799791  0.10567636  0.99719991  1
  O2-  O483  1  0.17252308  0.33968228  0.31255886  1
  O2-  O484  1  0.16206451  0.34265940  0.64369469  1
  O2-  O485  1  0.16527436  0.34033602  0.98313547  1
  O2-  O486  1  0.17106580  0.58819681  0.31348365  1
  O2-  O487  1  0.14874665  0.58362035  0.65108182  1
  O2-  O488  1  0.17551745  0.58333536  0.96500500  1
  O2-  O489  1  0.17712407  0.84337846  0.29859541  1
  O2-  O490  1  0.21821285  0.84170796  0.65344786  1
  O2-  O491  1  0.16247360  0.83000128  0.97336278  1
  O2-  O492  1  0.41617314  0.05442349  0.30512979  1
  O2-  O493  1  0.41462598  0.07996329  0.64951497  1
  O2-  O494  1  0.41893426  0.08299718  1.00734427  1
  O2-  O495  1  0.43893827  0.35299340  0.32822489  1
  O2-  O496  1  0.43563758  0.32150474  0.63916304  1
  O2-  O497  1  0.41642636  0.33270988  0.98110976  1
  O2-  O498  1  0.41822048  0.58708089  0.31366310  1
  O2-  O499  1  0.40207305  0.57379793  0.65299340  1
  O2-  O500  1  0.42452372  0.57704084  0.99553829  1
  O2-  O501  1  0.42052984  0.82710531  0.31959611  1
  O2-  O502  1  0.42198775  0.84448323  0.63210064  1
  O2-  O503  1  0.40148176  0.84306420  0.98794231  1
  O2-  O504  1  0.67028173  0.08615600  0.31911820  1
  O2-  O505  1  0.61378380  0.05502030  0.62711971  1
  O2-  O506  1  0.65176742  0.07380751  0.97352523  1
  O2-  O507  1  0.67280548  0.32244870  0.30813159  1
  O2-  O508  1  0.67401975  0.34677561  0.64591386  1
  O2-  O509  1  0.67772013  0.32592748  0.97972757  1
  O2-  O510  1  0.64956700  0.55910506  0.30975415  1
  O2-  O511  1  0.64505589  0.56699423  0.62943310  1
  O2-  O512  1  0.66095748  0.56886675  0.98961150  1
  O2-  O513  1  0.65049613  0.82247788  0.29342482  1
  O2-  O514  1  0.64906423  0.81645726  0.63243459  1
  O2-  O515  1  0.66045259  0.83068211  0.97982537  1
  O2-  O516  1  0.94043352  0.08427770  0.29855372  1
  O2-  O517  1  0.92701596  0.15285591  0.62269648  1
  O2-  O518  1  0.91132833  0.08184450  0.97399425  1
  O2-  O519  1  0.92646567  0.35092211  0.31203849  1
  O2-  O520  1  0.90838602  0.33909643  0.64677098  1
  O2-  O521  1  0.92148074  0.34906594  0.98923855  1
  O2-  O522  1  0.91777358  0.58680258  0.31777564  1
  O2-  O523  1  0.92674127  0.57640711  0.64276390  1
  O2-  O524  1  0.93877696  0.58624361  1.04391424  1
  O2-  O525  1  0.89089159  0.81755590  0.31461574  1
  O2-  O526  1  0.92794878  0.80895391  0.64355969  1
  O2-  O527  1  0.94072570  0.86871680  0.99515235  1
  O2-  O528  1  0.06759648  0.18330128  0.02765933  1
  O2-  O529  1  0.09260245  0.18099193  0.35173095  1
  O2-  O530  1  0.07848844  0.16779487  0.66048807  1
  O2-  O531  1  0.08336986  0.42520707  0.01580576  1
  O2-  O532  1  0.09442279  0.42305085  0.34900224  1
  O2-  O533  1  0.07507224  0.42428153  0.67576140  1
  O2-  O534  1  0.10612913  0.67549241  0.00888048  1
  O2-  O535  1  0.08313186  0.67234967  0.35502699  1
  O2-  O536  1  0.09678224  0.67556818  0.69606641  1
  O2-  O537  1  0.10643508  0.93639063  0.02717239  1
  O2-  O538  1  0.06566081  0.91416405  0.35515556  1
  O2-  O539  1  0.10482092  0.89785658  0.67608672  1
  O2-  O540  1  0.33578284  0.17735283  0.03251779  1
  O2-  O541  1  0.33270688  0.17972863  0.36135285  1
  O2-  O542  1  0.34469209  0.17371554  0.69657772  1
  O2-  O543  1  0.32681231  0.40600147  0.02566720  1
  O2-  O544  1  0.34282624  0.42558613  0.35898112  1
  O2-  O545  1  0.30611551  0.41446756  0.70560322  1
  O2-  O546  1  0.33071086  0.66636340  0.01414954  1
  O2-  O547  1  0.33031775  0.66375775  0.35918713  1
  O2-  O548  1  0.34173681  0.68000106  0.68546868  1
  O2-  O549  1  0.33527180  0.92315952  0.06389649  1
  O2-  O550  1  0.34205212  0.91254008  0.35644330  1
  O2-  O551  1  0.30906586  0.89751146  0.67316300  1
  O2-  O552  1  0.58827553  0.16935113  0.01950970  1
  O2-  O553  1  0.57772205  0.15196383  0.33949671  1
  O2-  O554  1  0.58256578  0.17666796  0.68591761  1
  O2-  O555  1  0.55463278  0.35346714  0.03548775  1
  O2-  O556  1  0.53112612  0.39735550  0.34574665  1
  O2-  O557  1  0.59341003  0.42298626  0.69224755  1
  O2-  O558  1  0.58796704  0.66751104  0.02756602  1
  O2-  O559  1  0.58470063  0.66387435  0.33390998  1
  O2-  O560  1  0.56283117  0.64809900  0.67307216  1
  O2-  O561  1  0.57252252  0.91037701  0.01194943  1
  O2-  O562  1  0.57882638  0.89095666  0.34438731  1
  O2-  O563  1  0.58565014  0.91111932  0.68276024  1
  O2-  O564  1  0.81849507  0.15579164  0.01784844  1
  O2-  O565  1  0.83250299  0.18710572  0.35777150  1
  O2-  O566  1  0.83537765  0.18701207  0.68887294  1
  O2-  O567  1  0.83515313  0.40682528  0.03136525  1
  O2-  O568  1  0.84186904  0.42370698  0.35271931  1
  O2-  O569  1  0.83366093  0.41934853  0.69212242  1
  O2-  O570  1  0.83174379  0.64995749  0.01947132  1
  O2-  O571  1  0.81559032  0.64955155  0.35579819  1
  O2-  O572  1  0.81192486  0.63716493  0.63650273  1
  O2-  O573  1  0.82628154  0.91998500  0.01647057  1
  O2-  O574  1  0.81475591  0.90524579  0.32289754  1
  O2-  O575  1  0.80003660  0.83838167  0.69107474  1
