# generated using pymatgen
data_H2O
_symmetry_space_group_name_H-M   'P 1'
_cell_length_a   17.98923423
_cell_length_b   17.98290424
_cell_length_c   22.00020591
_cell_angle_alpha   90.00088278
_cell_angle_beta   89.96934086
_cell_angle_gamma   119.98499639
_symmetry_Int_Tables_number   1
_chemical_formula_structural   H2O
_chemical_formula_sum   'H384 O192'
_cell_volume   6164.46575569
_cell_formula_units_Z   192
loop_
 _symmetry_equiv_pos_site_id
 _symmetry_equiv_pos_as_xyz
  1  'x, y, z'
loop_
 _atom_type_symbol
 _atom_type_oxidation_number
  H+  1.0
  O2-  -2.0
loop_
 _atom_site_type_symbol
 _atom_site_label
 _atom_site_symmetry_multiplicity
 _atom_site_fract_x
 _atom_site_fract_y
 _atom_site_fract_z
 _atom_site_occupancy
  H+  H0  1  0.39994916  0.12923978  0.31629333  1
  H+  H1  1  0.02784540  0.06671337  0.34827098  1
  H+  H2  1  0.61361620  0.22833448  0.34279707  1
  H+  H3  1  0.86988030  0.10536642  0.98929512  1
  H+  H4  1  0.63998619  0.34399652  1.00827240  1
  H+  H5  1  0.11185212  0.85787319  0.34397918  1
  H+  H6  1  0.26746285  0.11204908  0.49417865  1
  H+  H7  1  0.15948530  0.32972732  -0.05033853  1
  H+  H8  1  0.37327771  0.22610799  0.15057396  1
  H+  H9  1  0.61074868  0.49794243  0.84332517  1
  H+  H10  1  0.61834404  0.74627392  0.33779321  1
  H+  H11  1  0.49229389  0.38239162  0.50849097  1
  H+  H12  1  0.47160772  0.12551451  0.83355460  1
  H+  H13  1  0.08282185  0.89123778  0.43922457  1
  H+  H14  1  0.37917446  0.25343848  0.32647516  1
  H+  H15  1  0.61180904  0.64502920  0.33900351  1
  H+  H16  1  0.61088623  0.99096174  0.71066906  1
  H+  H17  1  0.44482632  0.86989332  0.26581490  1
  H+  H18  1  0.26671565  0.13086738  0.32647618  1
  H+  H19  1  0.11541770  0.72451548  0.15949104  1
  H+  H20  1  0.36247678  0.72669715  0.82925538  1
  H+  H21  1  0.85368894  0.59062352  0.85454854  1
  H+  H22  1  0.60115022  0.36646186  0.83317547  1
  H+  H23  1  0.39666563  0.38819950  0.31954646  1
  H+  H24  1  0.09788370  0.62462091  0.15761308  1
  H+  H25  1  0.64887965  0.53414484  0.51372904  1
  H+  H26  1  0.10400856  0.71922455  0.00868080  1
  H+  H27  1  0.62985487  0.23770118  0.67139848  1
  H+  H28  1  0.02462924  0.68145046  0.64417164  1
  H+  H29  1  0.13583883  0.58892999  0.86496108  1
  H+  H30  1  0.11521306  0.34550783  0.17465999  1
  H+  H31  1  0.88968885  0.52866128  0.66908892  1
  H+  H32  1  0.75813678  0.13876299  0.33135550  1
  H+  H33  1  1.02141055  0.39332761  0.33042996  1
  H+  H34  1  0.95454094  0.12690808  0.34121969  1
  H+  H35  1  1.01225182  0.11847930  0.83759878  1
  H+  H36  1  0.88535614  0.23550020  0.14798627  1
  H+  H37  1  0.12451920  0.10717281  0.67277519  1
  H+  H38  1  0.11197879  0.22063557  0.16778727  1
  H+  H39  1  0.37914148  0.35781491  0.16637626  1
  H+  H40  1  0.27044443  0.37808425  0.85201191  1
  H+  H41  1  0.64920586  0.45935534  0.17742241  1
  H+  H42  1  0.11086982  0.47185125  0.03210440  1
  H+  H43  1  0.16666261  0.14415280  0.68312799  1
  H+  H44  1  0.51483098  0.62528508  1.01053383  1
  H+  H45  1  0.89592965  0.36569595  0.66271424  1
  H+  H46  1  0.87104311  0.26537971  0.83263570  1
  H+  H47  1  0.61912239  0.88338863  0.49521154  1
  H+  H48  1  0.09059727  0.82248098  0.67945608  1
  H+  H49  1  0.37600633  0.47417477  0.49799593  1
  H+  H50  1  0.37591991  0.12834757  0.65843547  1
  H+  H51  1  0.88290211  0.27426823  0.31349376  1
  H+  H52  1  0.47119017  0.36212353  0.16532998  1
  H+  H53  1  0.09512158  0.50183125  0.16855879  1
  H+  H54  1  0.83569991  0.41319620  0.74178221  1
  H+  H55  1  -0.00992650  0.85794948  0.02800073  1
  H+  H56  1  0.12377358  0.10863238  0.82350067  1
  H+  H57  1  0.28348016  0.88699341  1.00321117  1
  H+  H58  1  0.39049463  0.84704951  0.50992910  1
  H+  H59  1  0.39463110  0.60334953  0.51168281  1
  H+  H60  1  0.37932121  1.02915154  0.02019762  1
  H+  H61  1  0.51291821  0.37653134  0.67401759  1
  H+  H62  1  0.43220158  0.25816753  0.47543718  1
  H+  H63  1  0.47705140  0.61270382  0.66725499  1
  H+  H64  1  0.28859595  0.38158731  0.67023536  1
  H+  H65  1  0.63536179  0.29796978  0.16846257  1
  H+  H66  1  -0.03962101  0.58896326  0.00226885  1
  H+  H67  1  0.36507175  0.64132956  0.00628189  1
  H+  H68  1  0.37135457  0.50236370  0.35416622  1
  H+  H69  1  0.65586517  0.31561755  0.90199196  1
  H+  H70  1  0.37230524  0.38299277  0.49374442  1
  H+  H71  1  0.86144213  0.12651408  0.82285491  1
  H+  H72  1  0.19491048  0.40927571  0.53707765  1
  H+  H73  1  -0.02390281  0.84719505  0.51201355  1
  H+  H74  1  0.08840013  -0.04678187  0.49529769  1
  H+  H75  1  0.37614657  0.89913430  0.99985970  1
  H+  H76  1  0.08071016  0.66454239  0.82487112  1
  H+  H77  1  0.59088067  0.16499673  0.72494583  1
  H+  H78  1  0.24510147  0.12367668  0.17347745  1
  H+  H79  1  0.61514483  0.72227357  0.68040329  1
  H+  H80  1  0.14819319  0.80831628  0.56744118  1
  H+  H81  1  0.33475219  0.66535506  0.20712107  1
  H+  H82  1  0.97289875  0.84326143  0.66730282  1
  H+  H83  1  0.61423333  0.84226277  1.00343991  1
  H+  H84  1  0.15311756  0.12035953  0.17954754  1
  H+  H85  1  0.61710703  0.76141214  0.84139727  1
  H+  H86  1  0.78548393  0.38073989  0.68048960  1
  H+  H87  1  0.12937030  0.53150121  0.31805515  1
  H+  H88  1  0.73044855  0.36605953  0.48098954  1
  H+  H89  1  0.15836881  0.40280339  0.31739344  1
  H+  H90  1  0.38364873  0.51769900  -0.00236885  1
  H+  H91  1  0.98691958  0.85444506  0.99398672  1
  H+  H92  1  0.42933864  0.83798453  0.93101824  1
  H+  H93  1  0.12916789  0.46854008  0.84242986  1
  H+  H94  1  1.02630553  0.41306490  0.67770190  1
  H+  H95  1  0.87406739  0.88751267  0.50573335  1
  H+  H96  1  0.62023729  0.85111763  0.83191567  1
  H+  H97  1  0.93652123  0.85577603  0.15760424  1
  H+  H98  1  0.48355937  0.85961149  0.67688008  1
  H+  H99  1  0.23205528  0.60728530  0.50149275  1
  H+  H100  1  0.13320015  0.60498706  0.00806365  1
  H+  H101  1  0.13939701  0.52261918  0.50260689  1
  H+  H102  1  0.16951458  1.01847779  -0.00511623  1
  H+  H103  1  0.58902856  0.94327358  0.04834907  1
  H+  H104  1  0.62160056  0.98790773  0.81341233  1
  H+  H105  1  0.83722387  0.45575922  0.83256126  1
  H+  H106  1  0.92542601  0.37777538  0.15622498  1
  H+  H107  1  0.93443332  0.08153229  0.60643917  1
  H+  H108  1  0.16752192  0.56887787  0.95527259  1
  H+  H109  1  0.08226273  0.08342907  0.53593185  1
  H+  H110  1  0.01463846  0.38164047  0.48935867  1
  H+  H111  1  0.71857640  0.40311866  0.61098992  1
  H+  H112  1  0.85313069  0.46233663  0.01173184  1
  H+  H113  1  0.37913376  0.60840909  0.84485005  1
  H+  H114  1  0.73298507  0.86055752  0.51210142  1
  H+  H115  1  0.37653838  0.51654059  0.84940090  1
  H+  H116  1  0.86201910  0.47296849  0.49193024  1
  H+  H117  1  0.36158637  -0.01168789  0.33826222  1
  H+  H118  1  0.23227725  0.60782837  0.85590647  1
  H+  H119  1  0.63197431  0.02453090  0.32172770  1
  H+  H120  1  0.09312987  0.72576241  0.29044103  1
  H+  H121  1  0.13091281  0.25900299  0.85876617  1
  H+  H122  1  0.37882882  -0.02239152  0.17490314  1
  H+  H123  1  0.26037827  0.86787461  0.63561135  1
  H+  H124  1  0.47763878  0.58464210  0.18074230  1
  H+  H125  1  0.16280889  0.87566987  0.99346443  1
  H+  H126  1  0.75484458  0.87663689  0.83010149  1
  H+  H127  1  0.00642477  0.15088575  0.69212125  1
  H+  H128  1  0.86317266  0.88084903  0.67734579  1
  H+  H129  1  0.38460712  0.60585775  0.66515110  1
  H+  H130  1  0.37496590  0.71433080  0.48982507  1
  H+  H131  1  0.67052754  0.59280946  0.26748801  1
  H+  H132  1  0.60536967  0.88784638  0.34120770  1
  H+  H133  1  0.36583376  0.99314494  0.68100641  1
  H+  H134  1  0.84534637  -0.03358070  0.34308376  1
  H+  H135  1  0.87927415  0.02981518  0.18405371  1
  H+  H136  1  0.93279890  0.78260000  0.79395934  1
  H+  H137  1  0.82626032  0.67470436  0.03321091  1
  H+  H138  1  0.12080463  0.61381646  0.29903800  1
  H+  H139  1  0.88732180  0.10854377  0.65620575  1
  H+  H140  1  0.64619390  0.82478167  -0.06034277  1
  H+  H141  1  0.36377671  0.37888906  1.01881197  1
  H+  H142  1  0.26775899  0.37942333  0.16282483  1
  H+  H143  1  0.38030808  1.00241956  0.50327675  1
  H+  H144  1  0.27742068  0.64141101  0.01295068  1
  H+  H145  1  0.11901717  0.70025694  0.64727787  1
  H+  H146  1  0.27365308  0.64645666  0.67600620  1
  H+  H147  1  0.53602038  0.36485882  0.02829894  1
  H+  H148  1  0.16201109  0.08826269  0.90777174  1
  H+  H149  1  0.27459122  0.88114279  0.50049581  1
  H+  H150  1  0.47818079  0.35409203  0.85666485  1
  H+  H151  1  0.74982655  0.62166883  0.51970748  1
  H+  H152  1  0.24150707  0.05238322  0.63637734  1
  H+  H153  1  0.12751224  0.56815933  0.66319861  1
  H+  H154  1  0.84181791  0.13270137  0.33154730  1
  H+  H155  1  0.16987976  0.86883396  0.16691126  1
  H+  H156  1  0.26355065  0.15162423  0.49064278  1
  H+  H157  1  0.46118313  0.64021031  0.35958358  1
  H+  H158  1  0.97070013  0.60418689  0.51903747  1
  H+  H159  1  0.29658002  0.90441762  0.83776542  1
  H+  H160  1  0.61738244  0.72974168  0.49115495  1
  H+  H161  1  0.60657350  0.70957582  0.16488249  1
  H+  H162  1  0.72706783  0.36696306  0.32854247  1
  H+  H163  1  0.37544950  0.47154519  0.66867360  1
  H+  H164  1  0.94005321  0.58492569  0.85958828  1
  H+  H165  1  0.62486371  0.07287023  0.98038886  1
  H+  H166  1  0.38684660  0.77369455  -0.01146142  1
  H+  H167  1  0.40168159  0.25667214  1.01033767  1
  H+  H168  1  0.29768536  0.88205853  0.17780202  1
  H+  H169  1  0.88354473  0.26747647  0.50555174  1
  H+  H170  1  0.36274314  0.46606532  0.16913241  1
  H+  H171  1  0.50946174  0.62679175  0.83155002  1
  H+  H172  1  0.62520999  0.51614509  0.66764142  1
  H+  H173  1  0.48170018  0.85337821  0.50750692  1
  H+  H174  1  0.09159970  0.69282155  0.47283093  1
  H+  H175  1  0.86324942  0.63011150  0.50210991  1
  H+  H176  1  0.15057592  0.99506375  0.15586909  1
  H+  H177  1  0.76410417  0.63834719  0.34549315  1
  H+  H178  1  0.61438332  0.58901582  0.99967175  1
  H+  H179  1  0.84158425  0.87746499  0.35134316  1
  H+  H180  1  0.62998191  0.17654948  0.15077610  1
  H+  H181  1  0.73389620  0.11598631  0.82939045  1
  H+  H182  1  0.38259187  0.26124135  0.64987674  1
  H+  H183  1  0.77789826  0.38396167  0.16209535  1
  H+  H184  1  0.64162725  0.85750671  0.66427338  1
  H+  H185  1  0.75062336  0.62928494  -0.01322755  1
  H+  H186  1  0.64724717  0.32219192  0.44030761  1
  H+  H187  1  0.15430685  0.07799514  0.33448895  1
  H+  H188  1  0.62997933  0.11209105  0.32237774  1
  H+  H189  1  0.49961147  0.11813159  0.65446331  1
  H+  H190  1  0.87519920  0.60939547  0.67004332  1
  H+  H191  1  0.84320953  0.36799927  0.82728184  1
  H+  H192  1  0.65206136  0.11739272  0.66345008  1
  H+  H193  1  0.74419810  0.35461180  1.00824245  1
  H+  H194  1  0.95487586  0.60920539  0.29884025  1
  H+  H195  1  0.73255535  0.60913178  0.16750713  1
  H+  H196  1  0.65794260  0.17321442  0.98174362  1
  H+  H197  1  0.58692161  0.82748303  0.18590646  1
  H+  H198  1  0.64092538  0.59948577  0.17313703  1
  H+  H199  1  0.43804299  0.89549548  0.17761623  1
  H+  H200  1  0.73256293  0.14027084  0.16511496  1
  H+  H201  1  0.12480408  0.92235403  0.66297098  1
  H+  H202  1  -0.09942617  0.32526355  0.89160477  1
  H+  H203  1  0.60435427  0.38452299  0.67234805  1
  H+  H204  1  0.08670568  0.24060831  0.36719651  1
  H+  H205  1  0.19631134  0.79524250  0.31917431  1
  H+  H206  1  0.13585906  0.35009238  0.85245333  1
  H+  H207  1  0.07590734  0.42541133  0.39179369  1
  H+  H208  1  0.85160903  0.62137819  0.13418716  1
  H+  H209  1  0.37314584  0.71766040  0.67965799  1
  H+  H210  1  0.07454483  0.23650427  0.33413624  1
  H+  H211  1  0.52995906  0.63790080  0.49060846  1
  H+  H212  1  0.92616942  0.33527081  0.25565335  1
  H+  H213  1  0.86546793  0.72231049  0.50306171  1
  H+  H214  1  0.62958342  0.60854908  0.66774751  1
  H+  H215  1  0.22062430  0.11558404  0.81503621  1
  H+  H216  1  0.10178750  0.38025385  0.47873382  1
  H+  H217  1  0.48481411  0.86598081  0.83016447  1
  H+  H218  1  0.71614534  0.85806811  0.32763145  1
  H+  H219  1  0.87633248  0.76863450  0.34541232  1
  H+  H220  1  0.12945471  0.99477597  0.80844208  1
  H+  H221  1  0.14989751  0.34937517  0.64968150  1
  H+  H222  1  0.38871244  0.87909697  0.31948752  1
  H+  H223  1  0.50469049  0.86735608  1.01691347  1
  H+  H224  1  0.86748982  0.60592212  0.32035374  1
  H+  H225  1  0.62590284  0.41014024  0.48568959  1
  H+  H226  1  0.71005597  0.34678162  0.84098585  1
  H+  H227  1  -0.04247232  0.10350747  -0.00683221  1
  H+  H228  1  0.52120585  0.12411296  0.49656242  1
  H+  H229  1  1.02767145  0.86615627  0.35281962  1
  H+  H230  1  0.35934096  0.21944233  0.78598013  1
  H+  H231  1  0.10858871  0.38098127  1.02893976  1
  H+  H232  1  0.35636582  0.07126132  0.52584711  1
  H+  H233  1  0.88381234  0.35688766  0.50405831  1
  H+  H234  1  0.87372461  0.00784785  0.84103210  1
  H+  H235  1  0.12513227  0.45143365  0.69386357  1
  H+  H236  1  0.40087418  0.87219966  0.83722899  1
  H+  H237  1  0.66164001  0.34097653  0.27338963  1
  H+  H238  1  0.76202201  0.62946639  0.68620104  1
  H+  H239  1  0.38693440  1.04048988  0.84295656  1
  H+  H240  1  0.63389669  0.53461046  0.32690251  1
  H+  H241  1  0.10125380  0.23018289  0.69026840  1
  H+  H242  1  0.60838570  0.21330281  0.49399829  1
  H+  H243  1  0.77405540  0.13113170  0.49560982  1
  H+  H244  1  0.86308860  0.38900241  0.33021878  1
  H+  H245  1  0.96279392  0.60803050  0.16517473  1
  H+  H246  1  0.38875354  0.27099480  0.87333715  1
  H+  H247  1  0.18192602  0.31633131  0.59674376  1
  H+  H248  1  0.36241159  0.13636884  0.81326941  1
  H+  H249  1  0.21994905  0.15052573  0.95910084  1
  H+  H250  1  0.75322240  0.88545499  0.01843719  1
  H+  H251  1  0.84098723  0.97577244  0.01643606  1
  H+  H252  1  0.85798237  0.47583487  0.33137826  1
  H+  H253  1  0.87912741  0.76205562  0.67074409  1
  H+  H254  1  0.05873139  0.65609794  0.23693631  1
  H+  H255  1  0.52599654  0.40199648  0.33816533  1
  H+  H256  1  0.81827385  0.69592517  0.85326692  1
  H+  H257  1  0.38809251  0.35512261  0.65429759  1
  H+  H258  1  0.38141562  0.13963785  0.16155977  1
  H+  H259  1  0.58169563  0.65303367  0.10435102  1
  H+  H260  1  0.60596508  0.11397442  0.81252773  1
  H+  H261  1  0.09468457  0.13290668  -0.00278849  1
  H+  H262  1  0.14359289  0.87385844  0.52182279  1
  H+  H263  1  0.87344464  0.22761765  0.66859037  1
  H+  H264  1  0.49329829  0.13387687  0.16559896  1
  H+  H265  1  0.73192960  0.86081284  0.66538293  1
  H+  H266  1  0.88720243  0.26876124  0.98357984  1
  H+  H267  1  0.34063138  0.67149273  0.13443781  1
  H+  H268  1  0.48158073  0.11789778  0.32430664  1
  H+  H269  1  0.09292523  0.22531070  0.52064215  1
  H+  H270  1  0.76799120  0.14525345  1.00041873  1
  H+  H271  1  0.86749208  0.71470197  0.12900237  1
  H+  H272  1  0.42686036  0.33091319  0.56327224  1
  H+  H273  1  0.62549891  0.50460541  0.00316196  1
  H+  H274  1  0.88538861  0.35451655  0.98664298  1
  H+  H275  1  0.83628552  0.74796392  0.94340818  1
  H+  H276  1  0.63815473  0.10078535  0.51617956  1
  H+  H277  1  0.07384476  0.90412485  0.13311084  1
  H+  H278  1  0.21970436  0.35546685  0.00803250  1
  H+  H279  1  0.24583173  0.37342749  0.50140621  1
  H+  H280  1  0.11208614  0.63251335  0.51199951  1
  H+  H281  1  0.07677024  0.66643392  0.89617136  1
  H+  H282  1  0.36329895  0.38843927  0.85593397  1
  H+  H283  1  0.97753502  0.10902617  0.18242098  1
  H+  H284  1  0.64013092  0.01359602  0.51414402  1
  H+  H285  1  0.16925370  0.80694404  0.82516158  1
  H+  H286  1  0.81443328  0.81140897  0.90222743  1
  H+  H287  1  0.81743348  0.89134901  0.16941940  1
  H+  H288  1  0.52238884  0.05431406  0.77739140  1
  H+  H289  1  0.05293363  0.39569841  0.10492734  1
  H+  H290  1  0.91087670  0.83755450  0.29277453  1
  H+  H291  1  0.68943889  0.86411648  0.17870958  1
  H+  H292  1  0.43733078  0.09938389  0.22768066  1
  H+  H293  1  0.37496459  0.63339550  0.33415986  1
  H+  H294  1  0.86837118  0.14208808  0.16044206  1
  H+  H295  1  0.41236420  0.57715593  0.93779374  1
  H+  H296  1  0.81494427  0.65507261  0.74824179  1
  H+  H297  1  0.66649202  0.10528391  0.21967749  1
  H+  H298  1  0.32503633  0.90740371  0.43598769  1
  H+  H299  1  0.56690462  0.39514591  0.77369547  1
  H+  H300  1  0.44394559  0.82232677  0.61105055  1
  H+  H301  1  0.82316789  0.65755648  0.40535557  1
  H+  H302  1  0.15672643  0.73302199  0.40326108  1
  H+  H303  1  0.93241300  0.08098250  0.27569110  1
  H+  H304  1  0.06767153  0.17082957  0.78006228  1
  H+  H305  1  0.32274876  0.14069937  0.71100216  1
  H+  H306  1  0.33250662  0.41218845  0.07413593  1
  H+  H307  1  0.89127823  0.57407126  0.21829339  1
  H+  H308  1  0.17064985  0.83178363  0.93391836  1
  H+  H309  1  0.35832000  0.73968633  0.29990271  1
  H+  H310  1  0.12842460  0.03848046  0.57025660  1
  H+  H311  1  0.80234964  0.92869427  0.10753744  1
  H+  H312  1  0.19950587  0.08969342  0.26445629  1
  H+  H313  1  0.66945942  0.82869722  0.56884076  1
  H+  H314  1  0.07196176  0.66157417  0.06814474  1
  H+  H315  1  0.24810814  0.40283464  0.31924248  1
  H+  H316  1  0.85150894  0.02460470  0.48972274  1
  H+  H317  1  0.03664591  0.88924400  0.81019328  1
  H+  H318  1  0.97325978  0.80659592  0.19339334  1
  H+  H319  1  0.16833437  0.34293081  0.23097228  1
  H+  H320  1  0.00485311  0.14683719  0.50230406  1
  H+  H321  1  0.14826645  0.57152500  0.21858346  1
  H+  H322  1  0.67380279  0.10101769  0.88824007  1
  H+  H323  1  0.42224567  0.35196285  0.26015006  1
  H+  H324  1  0.16721228  0.97301846  0.06104273  1
  H+  H325  1  0.38094212  0.20080642  0.38473992  1
  H+  H326  1  0.16004565  0.88680094  0.83894500  1
  H+  H327  1  0.90210761  0.57210033  0.57223831  1
  H+  H328  1  0.67082660  0.06927345  0.61112239  1
  H+  H329  1  0.58234714  0.16195815  0.39950413  1
  H+  H330  1  0.36136540  0.64660873  0.43617289  1
  H+  H331  1  0.82449528  0.16564437  0.43319333  1
  H+  H332  1  0.07550599  0.41248647  0.78614003  1
  H+  H333  1  0.83958950  0.16012568  0.76105346  1
  H+  H334  1  0.16989840  0.60867829  0.60020152  1
  H+  H335  1  0.15020812  0.68997470  0.39316287  1
  H+  H336  1  0.09884166  0.22112098  0.01089862  1
  H+  H337  1  0.58832695  0.67734502  0.40675164  1
  H+  H338  1  0.64144259  0.32602488  0.58129132  1
  H+  H339  1  0.58767338  0.91646651  0.43751769  1
  H+  H340  1  0.52017292  0.89390851  0.34434758  1
  H+  H341  1  0.82073542  0.90190343  0.77542317  1
  H+  H342  1  0.59595682  0.62231593  0.83302065  1
  H+  H343  1  0.34487240  0.42583378  0.39953569  1
  H+  H344  1  0.90173427  0.06933019  0.89933616  1
  H+  H345  1  0.27891577  0.05768000  0.02689371  1
  H+  H346  1  0.92453462  0.33840913  0.60122074  1
  H+  H347  1  0.73941893  0.60739426  0.83635178  1
  H+  H348  1  0.08979629  0.10218200  0.40548857  1
  H+  H349  1  0.32538606  0.66193871  0.77291058  1
  H+  H350  1  0.16749057  0.72654826  0.75988244  1
  H+  H351  1  0.84151793  0.42022394  0.42834145  1
  H+  H352  1  0.43386244  0.32693646  0.95879218  1
  H+  H353  1  0.27063438  0.90329235  0.33552288  1
  H+  H354  1  0.82552285  0.39820610  0.07149505  1
  H+  H355  1  0.64731109  0.82172711  0.26925132  1
  H+  H356  1  0.13207474  0.73797805  0.75924329  1
  H+  H357  1  0.60536683  0.71201534  0.00946605  1
  H+  H358  1  0.67612691  0.58422420  0.58309324  1
  H+  H359  1  0.20493799  -0.03075071  0.59203480  1
  H+  H360  1  0.60732587  0.39869458  0.08124267  1
  H+  H361  1  0.92006006  0.82439032  0.85392729  1
  H+  H362  1  0.78256250  0.13797241  0.67008475  1
  H+  H363  1  0.91745792  0.82192799  0.57272881  1
  H+  H364  1  0.26856805  0.64921974  0.29725496  1
  H+  H365  1  0.34227987  0.93421744  0.77429728  1
  H+  H366  1  0.08228348  0.15901477  0.10961630  1
  H+  H367  1  0.43020668  0.16930825  0.46669015  1
  H+  H368  1  0.42668502  0.57798951  0.57169945  1
  H+  H369  1  0.43420699  0.07340712  0.59813704  1
  H+  H370  1  0.86357071  0.47167732  0.15462328  1
  H+  H371  1  0.39143114  0.58838234  0.18563151  1
  H+  H372  1  0.86418202  0.97027830  0.67646246  1
  H+  H373  1  0.88940925  0.55801275  0.94971038  1
  H+  H374  1  0.51466297  0.85058602  0.11931106  1
  H+  H375  1  0.59193367  0.44581470  0.43351438  1
  H+  H376  1  0.63711511  0.55529803  0.90388257  1
  H+  H377  1  0.60891574  0.21609864  0.09115350  1
  H+  H378  1  0.82761829  0.16350658  0.06008944  1
  H+  H379  1  0.17715613  0.82730134  0.23116967  1
  H+  H380  1  0.58007135  0.66160976  0.73991848  1
  H+  H381  1  0.10513204  0.91160739  0.75240432  1
  H+  H382  1  0.61343100  0.39904711  0.34255365  1
  H+  H383  1  0.34634823  0.13763650  0.07990693  1
  O2-  O384  1  0.08614462  0.15854777  0.15462657  1
  O2-  O385  1  0.05016025  0.16681610  0.53280288  1
  O2-  O386  1  0.07367372  0.15252378  0.82303595  1
  O2-  O387  1  0.04319643  0.39155992  0.15575969  1
  O2-  O388  1  0.07423924  0.41487250  0.47153710  1
  O2-  O389  1  0.10270656  0.41050483  0.82404485  1
  O2-  O390  1  0.07133375  0.66325956  0.14960861  1
  O2-  O391  1  0.07731095  0.66175215  0.51128711  1
  O2-  O392  1  0.05759776  0.62816393  0.86096439  1
  O2-  O393  1  0.13643313  0.94377631  0.13009927  1
  O2-  O394  1  0.07672144  0.89401080  0.48529481  1
  O2-  O395  1  0.10594082  0.92816876  0.79834571  1
  O2-  O396  1  0.34511502  0.16299357  0.14087133  1
  O2-  O397  1  0.44140288  0.22163336  0.44544309  1
  O2-  O398  1  0.32496820  0.15733227  0.79059280  1
  O2-  O399  1  0.32840012  0.40564025  0.14925700  1
  O2-  O400  1  0.34250744  0.41469967  0.48010845  1
  O2-  O401  1  0.33106450  0.41406132  0.83840216  1
  O2-  O402  1  0.33488046  0.63567519  0.16934823  1
  O2-  O403  1  0.34381706  0.65223528  0.47793299  1
  O2-  O404  1  0.32777523  0.66472113  0.81851477  1
  O2-  O405  1  0.36137768  0.91661190  0.17940028  1
  O2-  O406  1  0.33217946  0.90577071  0.48088642  1
  O2-  O407  1  0.35434747  0.93404553  0.81891043  1
  O2-  O408  1  0.59884938  0.20756983  0.13664153  1
  O2-  O409  1  0.58099495  0.15244125  0.48171963  1
  O2-  O410  1  0.55750619  0.11449423  0.78953161  1
  O2-  O411  1  0.61835594  0.39843174  0.16284758  1
  O2-  O412  1  0.59803929  0.44540092  0.47907495  1
  O2-  O413  1  0.56689725  0.39464357  0.81884099  1
  O2-  O414  1  0.58608680  0.65063501  0.14962639  1
  O2-  O415  1  0.58675525  0.67272716  0.47015382  1
  O2-  O416  1  0.57098415  0.65699354  0.81687768  1
  O2-  O417  1  0.49748626  0.82845009  0.16193868  1
  O2-  O418  1  0.58771141  0.91379089  0.48295633  1
  O2-  O419  1  0.59109245  0.93070048  0.79125468  1
  O2-  O420  1  0.84419792  0.17402836  0.13956033  1
  O2-  O421  1  0.83255293  0.16450141  0.47756467  1
  O2-  O422  1  0.83225346  0.15710113  0.80609223  1
  O2-  O423  1  0.83649119  0.40861180  0.14506676  1
  O2-  O424  1  0.83316837  0.41394122  0.47358736  1
  O2-  O425  1  0.81199650  0.39976955  0.81086834  1
  O2-  O426  1  0.82441320  0.65499024  0.11963104  1
  O2-  O427  1  0.83073587  0.65997453  0.48930456  1
  O2-  O428  1  0.80279921  0.64507301  0.82691237  1
  O2-  O429  1  0.79923074  0.93096119  0.15502468  1
  O2-  O430  1  0.83917618  0.91256686  0.48906868  1
  O2-  O431  1  0.81684207  0.90324434  0.82032877  1
  O2-  O432  1  0.18705667  0.09260363  0.19311539  1
  O2-  O433  1  0.09988510  0.03979875  0.53245496  1
  O2-  O434  1  0.16092906  0.07877514  0.83091814  1
  O2-  O435  1  0.15432503  0.32429069  0.18675822  1
  O2-  O436  1  0.18615660  0.35587285  0.51895871  1
  O2-  O437  1  0.16211639  0.31897684  0.87391371  1
  O2-  O438  1  0.13162411  0.56465394  0.17493007  1
  O2-  O439  1  0.17320312  0.58189653  0.51880983  1
  O2-  O440  1  0.17610797  0.56944860  0.87673121  1
  O2-  O441  1  0.18388931  0.82675985  0.18413246  1
  O2-  O442  1  0.18501626  0.86440544  0.54787525  1
  O2-  O443  1  0.18575865  0.85295030  0.85506303  1
  O2-  O444  1  0.43385020  0.09958903  0.18225333  1
  O2-  O445  1  0.40630279  0.06427897  0.51940184  1
  O2-  O446  1  0.41241012  0.10367256  0.84840313  1
  O2-  O447  1  0.41216060  0.32757691  0.17988980  1
  O2-  O448  1  0.43185542  0.33852324  0.51768253  1
  O2-  O449  1  0.42441801  0.33179148  0.88275290  1
  O2-  O450  1  0.41879844  0.55367856  0.19762239  1
  O2-  O451  1  0.42759912  0.57530357  0.52607278  1
  O2-  O452  1  0.41069319  0.57990982  0.86042760  1
  O2-  O453  1  0.49304945  0.89880317  0.19285570  1
  O2-  O454  1  0.42172440  0.81768395  0.52314263  1
  O2-  O455  1  0.42777537  0.83765063  0.84995300  1
  O2-  O456  1  0.67229303  0.12058405  0.17620315  1
  O2-  O457  1  0.67024132  0.07325696  0.53165521  1
  O2-  O458  1  0.67218020  0.08714899  0.84411499  1
  O2-  O459  1  0.66615009  0.35805614  0.18917422  1
  O2-  O460  1  0.66474701  0.33599510  0.48283478  1
  O2-  O461  1  0.65049100  0.31983341  0.85792297  1
  O2-  O462  1  0.67725699  0.57644972  0.19009158  1
  O2-  O463  1  0.68534085  0.59053561  0.53652303  1
  O2-  O464  1  0.63903190  0.55868292  0.85832946  1
  O2-  O465  1  0.63567210  0.81775409  0.19721355  1
  O2-  O466  1  0.67085226  0.83016473  0.52353658  1
  O2-  O467  1  0.64554695  0.82278319  0.85541813  1
  O2-  O468  1  0.91987512  0.08751349  0.20155974  1
  O2-  O469  1  0.88721075  0.00356173  0.50812832  1
  O2-  O470  1  0.90733265  0.06984229  0.85396747  1
  O2-  O471  1  0.95080379  0.34322537  0.17153743  1
  O2-  O472  1  0.91538994  0.32885624  0.52025400  1
  O2-  O473  1  0.89212123  0.32503749  0.84626067  1
  O2-  O474  1  0.89960633  0.57365165  0.17328387  1
  O2-  O475  1  0.90680284  0.57255028  0.52676181  1
  O2-  O476  1  0.87857390  0.55547524  0.87012157  1
  O2-  O477  1  0.96506725  0.82218754  0.15247092  1
  O2-  O478  1  0.91510766  0.82110301  0.52733486  1
  O2-  O479  1  0.95260747  0.83785087  0.81381336  1
  O2-  O480  1  0.20648345  0.08368399  0.31007143  1
  O2-  O481  1  0.18847759  0.00158650  0.61983861  1
  O2-  O482  1  0.16540539  0.09768609  0.95303123  1
  O2-  O483  1  0.19290110  0.38090748  0.29749738  1
  O2-  O484  1  0.17910972  0.31711338  0.64175247  1
  O2-  O485  1  0.15845797  0.32843805  0.99547974  1
  O2-  O486  1  0.15896690  0.58854426  0.29719176  1
  O2-  O487  1  0.16695133  0.62357986  0.64319615  1
  O2-  O488  1  0.16486992  0.57368892  1.00033665  1
  O2-  O489  1  0.16283023  0.81818753  0.30045359  1
  O2-  O490  1  0.29888537  0.86906501  0.66764379  1
  O2-  O491  1  0.16601923  0.82553070  0.97873184  1
  O2-  O492  1  0.42313089  0.09100843  0.30543236  1
  O2-  O493  1  0.43762047  0.08295623  0.64266829  1
  O2-  O494  1  0.41057981  0.09538267  1.02407402  1
  O2-  O495  1  0.42531359  0.35547229  0.30535484  1
  O2-  O496  1  0.41822947  0.32276994  0.63884034  1
  O2-  O497  1  0.43142941  0.31893224  1.00413014  1
  O2-  O498  1  0.39892843  0.61088880  0.36625519  1
  O2-  O499  1  0.41855352  0.58011079  0.64897058  1
  O2-  O500  1  0.41442801  0.57837093  0.98345904  1
  O2-  O501  1  0.42318613  0.85190356  0.30821897  1
  O2-  O502  1  0.45591300  0.80751113  0.65169741  1
  O2-  O503  1  0.42267123  0.83627206  0.97603586  1
  O2-  O504  1  0.66154157  0.08437925  0.30534431  1
  O2-  O505  1  0.67470258  0.07764986  0.65628287  1
  O2-  O506  1  0.67166235  0.12644336  0.96447931  1
  O2-  O507  1  0.66410435  0.33803717  0.31835833  1
  O2-  O508  1  0.66661229  0.34932353  0.62113877  1
  O2-  O509  1  0.67346515  0.31691213  0.98969379  1
  O2-  O510  1  0.66391539  0.59577693  0.31270410  1
  O2-  O511  1  0.65947042  0.57683352  0.65252531  1
  O2-  O512  1  0.64232814  0.55827109  0.98063015  1
  O2-  O513  1  0.65181413  0.82324042  0.31553426  1
  O2-  O514  1  0.67070873  0.82749007  0.64956670  1
  O2-  O515  1  0.64937499  0.81989855  0.98444976  1
  O2-  O516  1  0.93565537  0.07201797  0.32102785  1
  O2-  O517  1  0.91867049  0.07585139  0.64938299  1
  O2-  O518  1  0.89795025  0.07124248  0.97703761  1
  O2-  O519  1  0.91606932  0.33527686  0.29990979  1
  O2-  O520  1  0.92895548  0.33895361  0.64646046  1
  O2-  O521  1  0.91305426  0.32677031  0.96531785  1
  O2-  O522  1  0.89002872  0.57288625  0.29846258  1
  O2-  O523  1  0.90796985  0.58515813  0.64962421  1
  O2-  O524  1  0.89811590  0.55348578  0.99389199  1
  O2-  O525  1  0.90850396  0.83238051  0.33684148  1
  O2-  O526  1  0.91327604  0.82081665  0.65286975  1
  O2-  O527  1  0.84868607  0.78320486  0.90420336  1
  O2-  O528  1  0.06696259  0.15823143  0.02164621  1
  O2-  O529  1  0.07745320  0.06762483  0.36880326  1
  O2-  O530  1  0.05101350  0.19870944  0.71677033  1
  O2-  O531  1  0.07945295  0.41091849  0.04654799  1
  O2-  O532  1  0.08035634  0.43003095  0.34679043  1
  O2-  O533  1  0.07645429  0.46013604  0.70003112  1
  O2-  O534  1  0.07326420  0.65858322  0.02287332  1
  O2-  O535  1  0.05622085  0.65963140  0.28156884  1
  O2-  O536  1  0.08460559  0.72931023  0.64418243  1
  O2-  O537  1  0.19531941  0.99003797  0.01936239  1
  O2-  O538  1  0.08663862  0.88802875  0.36724528  1
  O2-  O539  1  0.08500605  0.87339039  0.69062943  1
  O2-  O540  1  0.34196853  0.11653102  0.03283410  1
  O2-  O541  1  0.35639359  0.19303132  0.34226973  1
  O2-  O542  1  0.33001464  0.14316450  0.66607538  1
  O2-  O543  1  0.33283538  0.40973025  0.02828365  1
  O2-  O544  1  0.35008714  0.43933444  0.35531277  1
  O2-  O545  1  0.35043051  0.40978767  0.67931856  1
  O2-  O546  1  0.34043414  0.67747979  0.01911399  1
  O2-  O547  1  0.33177490  0.67753590  0.29022687  1
  O2-  O548  1  0.32902026  0.65882348  0.69448246  1
  O2-  O549  1  0.34373942  0.92757455  0.01343926  1
  O2-  O550  1  0.32856252  0.92810400  0.35394100  1
  O2-  O551  1  0.31497875  0.94554290  0.70252769  1
  O2-  O552  1  0.63111913  0.22896060  0.01570997  1
  O2-  O553  1  0.58240382  0.16644158  0.35448445  1
  O2-  O554  1  0.60103998  0.17600563  0.67960336  1
  O2-  O555  1  0.59934936  0.39692153  0.03644645  1
  O2-  O556  1  0.58506337  0.43155475  0.35648522  1
  O2-  O557  1  0.57267257  0.40979710  0.69167149  1
  O2-  O558  1  0.57577965  0.65220548  0.02571769  1
  O2-  O559  1  0.58587518  0.67867032  0.35733613  1
  O2-  O560  1  0.58318283  0.66131041  0.69419822  1
  O2-  O561  1  0.55460949  0.88096194  0.04592955  1
  O2-  O562  1  0.58148728  0.92252879  0.35840919  1
  O2-  O563  1  0.55886490  0.95013032  0.73474308  1
  O2-  O564  1  0.82683624  0.16223838  0.01483459  1
  O2-  O565  1  0.82030047  0.16975129  0.34595604  1
  O2-  O566  1  0.84461656  0.16649394  0.68186760  1
  O2-  O567  1  0.82074992  0.39776187  0.02557048  1
  O2-  O568  1  0.83307652  0.41683015  0.34976318  1
  O2-  O569  1  0.84386729  0.41748682  0.69512005  1
  O2-  O570  1  0.81228172  0.67414333  -0.01007999  1
  O2-  O571  1  0.82468230  0.66367252  0.36044506  1
  O2-  O572  1  0.82152884  0.65937800  0.70294194  1
  O2-  O573  1  0.80874495  0.92081372  0.03967130  1
  O2-  O574  1  0.80597132  0.90535813  0.35211786  1
  O2-  O575  1  0.83138240  0.90975837  0.69146617  1
