# generated using pymatgen
data_H2O
_symmetry_space_group_name_H-M   'P 1'
_cell_length_a   17.99508334
_cell_length_b   17.98843591
_cell_length_c   22.00285889
_cell_angle_alpha   89.98537777
_cell_angle_beta   90.01809997
_cell_angle_gamma   119.99354323
_symmetry_Int_Tables_number   1
_chemical_formula_structural   H2O
_chemical_formula_sum   'H384 O192'
_cell_volume   6168.58053476
_cell_formula_units_Z   192
loop_
 _symmetry_equiv_pos_site_id
 _symmetry_equiv_pos_as_xyz
  1  'x, y, z'
loop_
 _atom_type_symbol
 _atom_type_oxidation_number
  H+  1.0
  O2-  -2.0
loop_
 _atom_site_type_symbol
 _atom_site_label
 _atom_site_symmetry_multiplicity
 _atom_site_fract_x
 _atom_site_fract_y
 _atom_site_fract_z
 _atom_site_occupancy
  H+  H0  1  0.48084688  0.84776659  0.66771259  1
  H+  H1  1  0.89263133  0.16868777  0.02197962  1
  H+  H2  1  0.47214145  0.61446701  0.83545886  1
  H+  H3  1  0.38880905  0.27932570  0.17291624  1
  H+  H4  1  0.87856567  0.86022407  0.17039309  1
  H+  H5  1  0.02482720  0.39633186  0.67328937  1
  H+  H6  1  0.88743223  0.10682639  0.17341826  1
  H+  H7  1  0.23103185  0.85506744  0.51208348  1
  H+  H8  1  0.45580975  0.31349292  0.98540094  1
  H+  H9  1  0.01543903  0.89057248  0.16092761  1
  H+  H10  1  0.10755850  0.71917373  0.16019957  1
  H+  H11  1  0.36920866  0.89041368  0.67518501  1
  H+  H12  1  0.63096910  0.86862739  0.85731955  1
  H+  H13  1  0.98064881  0.38647844  0.53360852  1
  H+  H14  1  0.68272266  0.10559817  0.90712353  1
  H+  H15  1  0.88877967  0.61540192  0.33900443  1
  H+  H16  1  0.38191750  0.89228377  -0.00905375  1
  H+  H17  1  0.98854847  0.87877901  0.65245715  1
  H+  H18  1  0.53623971  0.63884677  0.16622850  1
  H+  H19  1  0.62042844  0.40929669  0.67831006  1
  H+  H20  1  0.88403861  0.77369229  0.17101809  1
  H+  H21  1  0.10131905  0.61778035  0.35106248  1
  H+  H22  1  0.48209983  0.36391159  0.17284024  1
  H+  H23  1  0.63842754  0.05027749  0.66785157  1
  H+  H24  1  0.73563323  0.63140391  -0.00575555  1
  H+  H25  1  0.61168680  0.24288857  -0.00451068  1
  H+  H26  1  0.39502898  0.37354633  0.66146882  1
  H+  H27  1  0.63748900  0.86186000  0.18015396  1
  H+  H28  1  0.02390365  0.38971897  0.00445115  1
  H+  H29  1  0.35291585  0.14471202  0.15703727  1
  H+  H30  1  0.39595434  0.84678375  0.33594139  1
  H+  H31  1  0.52393153  0.38921782  0.34396528  1
  H+  H32  1  0.58506158  0.14093255  0.48592840  1
  H+  H33  1  0.36581936  -0.02166959  0.67238041  1
  H+  H34  1  0.71675172  0.86178565  0.86509554  1
  H+  H35  1  0.13604145  0.78493153  0.84911789  1
  H+  H36  1  0.37306549  0.48797614  0.66591153  1
  H+  H37  1  0.72916861  0.11175951  0.49132231  1
  H+  H38  1  0.76736828  0.39476282  0.49461996  1
  H+  H39  1  0.38694984  0.28696129  0.32589126  1
  H+  H40  1  0.85496361  0.39237238  0.49894746  1
  H+  H41  1  -0.03769290  0.61839582  0.51232273  1
  H+  H42  1  0.39795108  0.54765376  0.50633591  1
  H+  H43  1  0.91580856  0.16549463  0.48717371  1
  H+  H44  1  0.83229740  0.66958843  0.40046350  1
  H+  H45  1  0.07731516  0.65930826  0.44406522  1
  H+  H46  1  0.76278733  0.41107621  0.14629757  1
  H+  H47  1  0.84612829  0.96402398  0.83456963  1
  H+  H48  1  0.63767514  -0.01431386  0.34495079  1
  H+  H49  1  0.63308994  0.28508442  0.84029366  1
  H+  H50  1  0.89496078  0.11660392  0.83544834  1
  H+  H51  1  0.10059052  0.65410242  0.69262298  1
  H+  H52  1  0.61548284  0.86694157  0.50241328  1
  H+  H53  1  0.89793229  0.02758425  0.50146009  1
  H+  H54  1  0.76552219  0.85721354  0.67107112  1
  H+  H55  1  0.91647518  0.59234296  0.92638463  1
  H+  H56  1  0.76556258  0.39139542  0.67760872  1
  H+  H57  1  0.38780090  0.77508298  0.87467249  1
  H+  H58  1  0.73334553  0.07347104  0.48185884  1
  H+  H59  1  0.84494559  0.87584245  0.84075588  1
  H+  H60  1  0.03262867  0.12655792  0.48867270  1
  H+  H61  1  0.01978011  0.13826547  0.81408456  1
  H+  H62  1  0.86465776  0.48538386  -0.00589689  1
  H+  H63  1  0.35860723  0.38949616  1.00384848  1
  H+  H64  1  0.89647608  0.11135800  0.32105131  1
  H+  H65  1  0.93067267  0.08827340  0.56007675  1
  H+  H66  1  0.75367568  0.65112734  0.48900620  1
  H+  H67  1  0.87296342  0.72693660  0.34182010  1
  H+  H68  1  0.11939039  0.13998755  0.33473194  1
  H+  H69  1  0.04395048  0.75349377  0.21640905  1
  H+  H70  1  0.10989921  0.60513099  0.17606837  1
  H+  H71  1  1.02798063  0.13634395  0.33698274  1
  H+  H72  1  0.26518552  0.15662624  0.34333891  1
  H+  H73  1  0.87945189  0.76482530  0.99596523  1
  H+  H74  1  0.48015683  0.85167482  0.51005485  1
  H+  H75  1  0.12896461  1.02318285  0.00335307  1
  H+  H76  1  0.85725533  0.07533757  0.96698717  1
  H+  H77  1  0.60749447  0.50936010  0.32584640  1
  H+  H78  1  0.61570442  0.47662839  0.15884581  1
  H+  H79  1  -0.02798321  0.35443012  0.16875628  1
  H+  H80  1  0.46526403  0.12260355  0.66273453  1
  H+  H81  1  0.57399951  0.89385905  0.78021491  1
  H+  H82  1  0.59820633  0.73469982  0.01365745  1
  H+  H83  1  0.01088219  0.40989080  0.44873296  1
  H+  H84  1  0.48365519  0.84457924  0.17422402  1
  H+  H85  1  0.97693311  0.61867529  0.98657039  1
  H+  H86  1  0.49789053  1.03304015  0.12232955  1
  H+  H87  1  0.27388623  0.65586589  0.83745739  1
  H+  H88  1  0.77705311  0.88439950  0.34691120  1
  H+  H89  1  0.12739094  0.24173878  0.66773437  1
  H+  H90  1  0.91319699  0.29240486  0.51116250  1
  H+  H91  1  0.09745093  0.92785563  0.38998645  1
  H+  H92  1  0.81160429  0.66493612  0.76264243  1
  H+  H93  1  0.97280089  0.35960521  0.31607337  1
  H+  H94  1  0.11611048  0.72509603  0.00750063  1
  H+  H95  1  0.47343324  0.11960992  0.98635191  1
  H+  H96  1  0.65701529  0.76338121  0.51433249  1
  H+  H97  1  0.10299672  0.48435798  0.47096568  1
  H+  H98  1  0.26741402  0.38689753  0.00180178  1
  H+  H99  1  0.01285775  0.62152793  0.35086426  1
  H+  H100  1  0.83715266  0.64001578  0.49734833  1
  H+  H101  1  0.59840072  0.03878558  0.42596239  1
  H+  H102  1  0.98092851  0.10664605  0.65390054  1
  H+  H103  1  0.13591872  1.02929822  0.17524939  1
  H+  H104  1  0.86237679  0.97208997  0.16188421  1
  H+  H105  1  0.35923690  0.64851720  0.84455791  1
  H+  H106  1  0.13201048  0.14435251  0.66982605  1
  H+  H107  1  0.64311928  0.83713828  0.93871182  1
  H+  H108  1  0.14074551  0.03286971  0.32706461  1
  H+  H109  1  0.22520535  0.35238521  0.31131379  1
  H+  H110  1  0.27234823  0.63049754  0.49194445  1
  H+  H111  1  0.77221390  0.88415791  0.16286943  1
  H+  H112  1  0.88198341  0.52769999  0.83579401  1
  H+  H113  1  0.38516698  0.36521559  0.47754765  1
  H+  H114  1  0.08515137  0.42534459  0.76981409  1
  H+  H115  1  0.13354996  0.60911512  0.99586199  1
  H+  H116  1  0.38584238  0.03725424  0.18028271  1
  H+  H117  1  0.13621721  0.12562786  0.49970889  1
  H+  H118  1  0.14240709  0.03784153  0.66674410  1
  H+  H119  1  0.89236526  0.85976186  0.65149995  1
  H+  H120  1  0.27580488  0.90209024  0.82919319  1
  H+  H121  1  0.61374961  0.72659337  0.34957269  1
  H+  H122  1  0.63981166  0.26887406  0.15606174  1
  H+  H123  1  0.89162113  0.28177261  0.67146057  1
  H+  H124  1  0.84393166  -0.04806415  0.66088812  1
  H+  H125  1  0.63703164  0.37676851  0.83826163  1
  H+  H126  1  0.23904606  0.12997796  0.51152170  1
  H+  H127  1  0.67677296  0.11936531  0.32069054  1
  H+  H128  1  0.11417629  0.39494638  0.67240533  1
  H+  H129  1  1.01690254  0.64745411  0.83439819  1
  H+  H130  1  0.60063695  0.62990367  0.34035173  1
  H+  H131  1  0.35764442  0.62064087  0.34235435  1
  H+  H132  1  0.63585934  0.62036027  0.83778592  1
  H+  H133  1  0.96963909  0.85086781  0.98929205  1
  H+  H134  1  0.58263292  0.14096906  0.35405715  1
  H+  H135  1  0.10382579  0.84725950  0.19058229  1
  H+  H136  1  0.65926744  0.01723026  0.18133625  1
  H+  H137  1  0.19798172  0.37886732  0.51141648  1
  H+  H138  1  0.12792735  -0.08974437  0.67281193  1
  H+  H139  1  0.54257686  0.89746497  0.34463006  1
  H+  H140  1  0.33163338  0.41863891  0.47739055  1
  H+  H141  1  0.30839123  0.63376749  0.13586540  1
  H+  H142  1  0.38480197  0.03106632  0.83422162  1
  H+  H143  1  0.62964915  0.35091076  0.16209436  1
  H+  H144  1  0.63953740  0.38058749  -0.01063078  1
  H+  H145  1  0.11538182  0.72202998  0.50297775  1
  H+  H146  1  0.59889050  0.49741502  0.49135680  1
  H+  H147  1  0.88564413  1.01016709  -0.00959486  1
  H+  H148  1  0.36889231  0.64243506  0.49343133  1
  H+  H149  1  0.22985160  0.87205325  0.66214493  1
  H+  H150  1  0.35424831  0.93510097  0.34138897  1
  H+  H151  1  0.85664107  0.39513385  0.67821834  1
  H+  H152  1  0.03546788  0.90431044  0.33318413  1
  H+  H153  1  0.23831316  0.38455196  0.16373055  1
  H+  H154  1  0.86577688  0.88542532  1.00635686  1
  H+  H155  1  0.53841528  0.57747965  0.76958301  1
  H+  H156  1  0.88479416  0.52276212  0.33084490  1
  H+  H157  1  0.38214926  1.02111600  0.50752491  1
  H+  H158  1  0.78945189  0.61878094  0.66383733  1
  H+  H159  1  0.85998178  0.38335983  0.33810099  1
  H+  H160  1  0.38865388  0.52017582  0.32975209  1
  H+  H161  1  0.34365369  0.21557325  0.00087765  1
  H+  H162  1  0.22008995  0.26920368  0.87792036  1
  H+  H163  1  0.38059441  0.61433137  -0.01493622  1
  H+  H164  1  0.65477105  0.06814614  1.03284832  1
  H+  H165  1  0.64758220  0.63655005  -0.00335235  1
  H+  H166  1  0.10554996  0.47355940  0.15644855  1
  H+  H167  1  0.78720170  0.89130646  0.50271885  1
  H+  H168  1  0.62151083  -0.07967950  0.68781922  1
  H+  H169  1  0.13468309  0.26329411  0.31584881  1
  H+  H170  1  0.11133813  -0.01886629  0.82448577  1
  H+  H171  1  0.60883089  0.03033344  0.73645667  1
  H+  H172  1  1.02140364  0.89018967  0.82565781  1
  H+  H173  1  0.52479992  0.89166303  0.84171266  1
  H+  H174  1  0.35839717  0.14224304  0.67204849  1
  H+  H175  1  0.29627983  0.63438229  0.69016013  1
  H+  H176  1  0.03348949  0.88376216  0.48305121  1
  H+  H177  1  0.10836608  0.65085190  0.82529821  1
  H+  H178  1  0.15317953  0.55994825  0.54907383  1
  H+  H179  1  0.89127402  0.86351416  0.32979726  1
  H+  H180  1  0.62921320  0.29452959  0.50950409  1
  H+  H181  1  0.88696149  0.36664187  0.83973089  1
  H+  H182  1  0.13700307  0.11460033  0.82103201  1
  H+  H183  1  0.87577026  0.53018099  0.50392424  1
  H+  H184  1  0.72583084  0.37391668  0.33339587  1
  H+  H185  1  0.14019531  0.53324504  0.67710076  1
  H+  H186  1  0.37125100  0.88831519  0.50122694  1
  H+  H187  1  0.53551074  0.42705623  0.00202728  1
  H+  H188  1  0.61973177  0.15821806  0.99840048  1
  H+  H189  1  0.76760098  0.60157535  0.15560416  1
  H+  H190  1  0.11699495  0.87576476  0.48410612  1
  H+  H191  1  0.89926277  0.63760914  0.18650610  1
  H+  H192  1  0.12961787  0.11343249  1.00369241  1
  H+  H193  1  0.56799446  0.18825908  0.73969766  1
  H+  H194  1  0.36792091  0.23662211  0.67574627  1
  H+  H195  1  0.41132388  0.40035000  0.50051494  1
  H+  H196  1  0.01526434  0.12531915  0.15311923  1
  H+  H197  1  0.88638858  0.26914099  0.31836669  1
  H+  H198  1  0.25891437  0.12584816  0.00967706  1
  H+  H199  1  0.63379152  0.28967104  0.33490798  1
  H+  H200  1  0.64108521  0.86270330  0.33786445  1
  H+  H201  1  0.36344528  0.48525775  0.15896218  1
  H+  H202  1  0.62797310  0.28728402  0.66281099  1
  H+  H203  1  0.66522270  0.80453378  0.57902966  1
  H+  H204  1  0.61795688  0.39690766  0.34678695  1
  H+  H205  1  0.58234560  0.67339189  0.75499751  1
  H+  H206  1  0.10748169  0.13385514  0.15293725  1
  H+  H207  1  0.64827121  0.61825202  0.17036791  1
  H+  H208  1  0.23316481  0.13037214  0.66523329  1
  H+  H209  1  0.88948921  0.37513644  0.99126360  1
  H+  H210  1  0.50907817  0.14573686  0.14748724  1
  H+  H211  1  0.22290047  0.12028354  0.17001748  1
  H+  H212  1  0.57938461  -0.00452827  0.48820550  1
  H+  H213  1  0.53879041  0.93977743  0.12202552  1
  H+  H214  1  0.61432991  0.48829023  0.83235189  1
  H+  H215  1  0.38321029  0.52629937  0.83844382  1
  H+  H216  1  0.37787726  0.72485810  0.67501877  1
  H+  H217  1  0.48722912  0.84336199  0.96840173  1
  H+  H218  1  0.88788306  0.78420493  0.50370111  1
  H+  H219  1  0.62851462  0.50711953  1.00352207  1
  H+  H220  1  0.13880552  0.51251522  0.32093845  1
  H+  H221  1  0.39059241  0.28242841  0.83686919  1
  H+  H222  1  0.86983466  0.22479234  0.16502573  1
  H+  H223  1  0.20095313  0.61651748  0.17776672  1
  H+  H224  1  0.28100405  0.39040577  0.82577449  1
  H+  H225  1  0.84824243  0.52857032  0.66082010  1
  H+  H226  1  0.36734358  0.14712143  0.82719232  1
  H+  H227  1  0.58734367  0.14317189  0.68819116  1
  H+  H228  1  0.32852043  0.43001547  0.09665074  1
  H+  H229  1  0.10442301  0.36119697  0.51027616  1
  H+  H230  1  0.51942541  0.14457096  0.83256473  1
  H+  H231  1  0.08956937  0.92090888  -0.05290794  1
  H+  H232  1  0.61283900  0.15201925  0.83260501  1
  H+  H233  1  0.86244303  0.63546562  0.00075454  1
  H+  H234  1  0.87678007  0.23811625  0.82782998  1
  H+  H235  1  0.11459298  0.47731882  1.00534391  1
  H+  H236  1  0.11545684  0.37689279  0.32023390  1
  H+  H237  1  0.37069486  0.38583921  0.32168346  1
  H+  H238  1  0.13756996  0.87383120  0.84685893  1
  H+  H239  1  0.02956993  0.40256152  0.82946476  1
  H+  H240  1  0.50618158  0.15161993  0.49832169  1
  H+  H241  1  0.78361745  0.12817661  0.33277083  1
  H+  H242  1  0.47468691  0.61333868  0.33801427  1
  H+  H243  1  0.41101102  0.10420869  0.23427127  1
  H+  H244  1  0.23980133  0.86226729  0.99825247  1
  H+  H245  1  0.02033281  0.13947466  0.00199166  1
  H+  H246  1  0.37759154  -0.02111779  0.99752730  1
  H+  H247  1  0.22683228  0.11820446  0.82954041  1
  H+  H248  1  0.24872056  0.84311982  0.13823318  1
  H+  H249  1  0.37336594  0.06124628  0.33048967  1
  H+  H250  1  0.41082633  0.62388296  0.17317520  1
  H+  H251  1  0.17785018  0.61196169  0.76907025  1
  H+  H252  1  0.42463549  0.95380118  0.08311440  1
  H+  H253  1  0.25818432  0.61618039  0.33889958  1
  H+  H254  1  0.37677409  0.51507527  0.98598829  1
  H+  H255  1  0.46835957  0.14095115  0.33225766  1
  H+  H256  1  0.17988216  0.83713697  0.93873501  1
  H+  H257  1  0.79489782  0.14145943  0.67650613  1
  H+  H258  1  0.76821411  0.64142391  0.82674263  1
  H+  H259  1  0.87794523  0.61543069  0.83181745  1
  H+  H260  1  0.41086590  0.86436002  0.17229328  1
  H+  H261  1  0.47990120  0.37369756  0.83880009  1
  H+  H262  1  0.01798309  0.64197323  0.16573656  1
  H+  H263  1  0.49917043  0.34788606  0.52082397  1
  H+  H264  1  0.37191251  0.39937561  0.82280002  1
  H+  H265  1  0.74813514  0.13358089  0.01062711  1
  H+  H266  1  0.89396261  0.02059665  0.32731295  1
  H+  H267  1  0.37826691  0.22407188  0.50477777  1
  H+  H268  1  0.66492990  0.34799567  0.92893736  1
  H+  H269  1  0.49815689  0.62809792  0.65023876  1
  H+  H270  1  0.13631822  0.37438798  0.16509440  1
  H+  H271  1  0.37172910  0.10555552  0.50632309  1
  H+  H272  1  0.16881435  0.83194884  0.56970109  1
  H+  H273  1  0.64567612  0.66685068  0.67051100  1
  H+  H274  1  0.87760342  0.89412947  0.49704727  1
  H+  H275  1  0.38574574  0.77224250  0.51012522  1
  H+  H276  1  0.13061849  0.61441860  0.50121231  1
  H+  H277  1  0.77390019  0.39261730  0.82994199  1
  H+  H278  1  0.33872788  0.17801154  0.76772540  1
  H+  H279  1  0.77512725  0.39673879  -0.00379863  1
  H+  H280  1  0.26923245  0.84117065  0.16755765  1
  H+  H281  1  0.63911385  0.77430698  0.17829021  1
  H+  H282  1  0.89851669  0.11548591  0.65776195  1
  H+  H283  1  0.89105857  0.28734057  0.99913616  1
  H+  H284  1  0.37936810  0.10897558  0.99152252  1
  H+  H285  1  0.13259681  0.75141209  0.34100524  1
  H+  H286  1  0.88359126  0.77378542  0.83403127  1
  H+  H287  1  0.38206965  0.73063927  0.14994943  1
  H+  H288  1  0.92708322  0.08048108  0.88978545  1
  H+  H289  1  0.56234906  0.16364262  0.08478362  1
  H+  H290  1  0.18594317  0.62710490  0.64423938  1
  H+  H291  1  0.91122842  0.32922612  0.22659006  1
  H+  H292  1  0.33031719  0.18135374  0.43977333  1
  H+  H293  1  0.09381914  0.15711626  0.42787908  1
  H+  H294  1  0.13306742  0.27369602  0.99663341  1
  H+  H295  1  0.17734254  0.31827384  0.90589511  1
  H+  H296  1  0.26193211  0.85065212  0.34692514  1
  H+  H297  1  0.66524624  0.57963672  0.23009167  1
  H+  H298  1  0.93454559  0.62002403  0.25066487  1
  H+  H299  1  0.22220277  0.60981774  0.99050163  1
  H+  H300  1  0.66587241  0.82844369  0.27847766  1
  H+  H301  1  0.83898195  0.91918054  0.06514661  1
  H+  H302  1  0.82410100  0.44745201  0.08891740  1
  H+  H303  1  0.33231864  0.92600013  0.76874539  1
  H+  H304  1  0.58348046  0.89515439  0.08799533  1
  H+  H305  1  0.16742306  0.33469069  0.22435460  1
  H+  H306  1  0.91818121  0.33847939  0.89925921  1
  H+  H307  1  0.83343124  0.17150844  0.47896571  1
  H+  H308  1  0.33814150  0.43107068  0.72635426  1
  H+  H309  1  0.66869644  0.60154381  0.90146435  1
  H+  H310  1  0.43225226  0.83217427  0.27445295  1
  H+  H311  1  0.81351474  0.54865022  0.13179740  1
  H+  H312  1  0.16361731  0.58399075  0.27006528  1
  H+  H313  1  0.40646049  0.62258847  0.65496973  1
  H+  H314  1  0.66320492  0.34912927  0.60406617  1
  H+  H315  1  0.22962811  0.37301853  0.65836242  1
  H+  H316  1  0.78192627  0.13023283  0.16650028  1
  H+  H317  1  0.58716128  0.43284107  0.77066199  1
  H+  H318  1  0.12019566  0.87910347  -0.00480343  1
  H+  H319  1  0.41307773  0.08821308  0.89527338  1
  H+  H320  1  0.08969725  0.17806048  0.73096459  1
  H+  H321  1  0.58158068  0.43061767  0.43806271  1
  H+  H322  1  0.13475339  0.36433181  -0.00813329  1
  H+  H323  1  0.08143227  0.91637665  0.10643838  1
  H+  H324  1  0.32361849  0.65206186  0.40449708  1
  H+  H325  1  0.52279634  0.63735116  0.01007205  1
  H+  H326  1  0.83276613  0.41483921  0.39878726  1
  H+  H327  1  0.78768715  0.14966775  0.82941629  1
  H+  H328  1  0.29467773  0.46387020  0.43533345  1
  H+  H329  1  0.07500020  0.66178151  0.06415032  1
  H+  H330  1  0.87108129  0.58351256  0.60016530  1
  H+  H331  1  0.48599720  0.37900447  0.67118575  1
  H+  H332  1  0.35789178  0.67631321  0.04925472  1
  H+  H333  1  0.07544660  0.69553738  0.74438173  1
  H+  H334  1  0.08356176  0.41647429  0.09466490  1
  H+  H335  1  0.84675490  0.17793200  0.08143221  1
  H+  H336  1  0.63968283  0.38823477  0.50992881  1
  H+  H337  1  0.09220488  0.93266976  0.73279207  1
  H+  H338  1  0.44318865  0.31427296  0.58111218  1
  H+  H339  1  0.90983137  0.33755465  0.61164320  1
  H+  H340  1  0.69338935  0.07195140  0.24309433  1
  H+  H341  1  0.53503820  0.62602461  0.49544312  1
  H+  H342  1  0.91714498  0.83413578  0.26892655  1
  H+  H343  1  0.13565722  0.79009803  0.66689505  1
  H+  H344  1  0.82915840  0.64764764  0.06524810  1
  H+  H345  1  0.72087482  0.05281512  0.61071968  1
  H+  H346  1  0.70511959  0.08218922  0.59886011  1
  H+  H347  1  0.86313988  0.17715922  0.38467241  1
  H+  H348  1  0.11416174  0.22511640  0.82024271  1
  H+  H349  1  0.93066590  0.84471745  0.56212098  1
  H+  H350  1  0.42497714  0.58816569  0.23678683  1
  H+  H351  1  0.08710492  0.40939370  0.37946827  1
  H+  H352  1  0.60346633  0.82520649  0.68586186  1
  H+  H353  1  0.42531978  0.33860018  0.26089267  1
  H+  H354  1  0.17179333  0.09511868  0.26707608  1
  H+  H355  1  0.58959333  0.67260219  0.10450714  1
  H+  H356  1  0.42556567  0.83164790  0.60684143  1
  H+  H357  1  0.59080590  0.89743514  0.43996865  1
  H+  H358  1  0.32491452  0.17221137  0.09629528  1
  H+  H359  1  0.64738455  0.04043137  0.85250166  1
  H+  H360  1  0.41813438  0.33644559  0.92716348  1
  H+  H361  1  0.15392973  0.81440217  0.28427444  1
  H+  H362  1  0.58603122  0.42592085  0.09678042  1
  H+  H363  1  0.41488905  0.58011518  0.92140168  1
  H+  H364  1  0.59240988  0.65354834  0.42844458  1
  H+  H365  1  0.84868690  0.17208089  0.73823431  1
  H+  H366  1  0.83961470  0.91766106  0.40434863  1
  H+  H367  1  0.33345270  0.90487045  0.44075748  1
  H+  H368  1  0.56086928  0.18234754  0.41048225  1
  H+  H369  1  0.13798958  0.53956190  0.81881685  1
  H+  H370  1  0.35738767  0.16579506  0.34376031  1
  H+  H371  1  0.55307626  0.52786029  0.27906073  1
  H+  H372  1  0.40763596  0.08582446  0.60207309  1
  H+  H373  1  0.17352730  0.10171290  0.57115379  1
  H+  H374  1  0.44173252  0.60437087  0.56526982  1
  H+  H375  1  0.15893548  0.34121519  0.60374872  1
  H+  H376  1  0.91041573  0.82489194  0.89703729  1
  H+  H377  1  0.62413817  0.50151607  0.68462828  1
  H+  H378  1  0.37256514  0.72194643  -0.01661654  1
  H+  H379  1  0.91927924  0.07454079  0.23112866  1
  H+  H380  1  0.32247027  0.38597055  0.38042724  1
  H+  H381  1  0.83084744  0.42095236  0.76981546  1
  H+  H382  1  0.07450587  0.16510259  0.06508458  1
  H+  H383  1  0.62555682  0.93645996  -0.01156229  1
  O2-  O384  1  0.07348198  0.15793200  0.13466149  1
  O2-  O385  1  0.09365561  0.15360288  0.47359385  1
  O2-  O386  1  0.07958567  0.17192942  0.79563538  1
  O2-  O387  1  0.08459452  0.41463870  0.14088085  1
  O2-  O388  1  0.06984105  0.42311212  0.45592259  1
  O2-  O389  1  0.08941212  0.43497048  0.81419511  1
  O2-  O390  1  0.07457235  0.65903953  0.14463451  1
  O2-  O391  1  0.08161965  0.65964371  0.48970467  1
  O2-  O392  1  0.07833486  0.68491658  0.82241530  1
  O2-  O393  1  0.07823545  0.92029119  0.15044121  1
  O2-  O394  1  0.09156692  0.90763901  0.46520329  1
  O2-  O395  1  0.08263786  0.91876490  0.81212203  1
  O2-  O396  1  0.32391825  0.17570614  0.14176395  1
  O2-  O397  1  0.33066297  0.17015248  0.48420726  1
  O2-  O398  1  0.33907467  0.18041080  0.81311713  1
  O2-  O399  1  0.32209003  0.42834891  0.14144134  1
  O2-  O400  1  0.30415854  0.45435770  0.47763992  1
  O2-  O401  1  0.33940368  0.42825360  0.80887435  1
  O2-  O402  1  0.36813189  0.67557369  0.12747166  1
  O2-  O403  1  0.33150567  0.66253787  0.47448699  1
  O2-  O404  1  0.33661353  0.68807532  0.84689598  1
  O2-  O405  1  0.46064420  0.96887258  0.12066919  1
  O2-  O406  1  0.33784325  0.91494157  0.48558704  1
  O2-  O407  1  0.33520942  0.93503918  0.81339163  1
  O2-  O408  1  0.55828918  0.14529890  0.12799343  1
  O2-  O409  1  0.56663689  0.18450572  0.48206457  1
  O2-  O410  1  0.58104049  0.18031070  0.81825307  1
  O2-  O411  1  0.58256125  0.41768501  0.14146655  1
  O2-  O412  1  0.58346680  0.43617626  0.48334182  1
  O2-  O413  1  0.58292914  0.42800150  0.81655551  1
  O2-  O414  1  0.59567865  0.67303466  0.14978498  1
  O2-  O415  1  0.59606455  0.65282411  0.47701372  1
  O2-  O416  1  0.55869862  0.63243246  0.79018181  1
  O2-  O417  1  0.57429713  0.91149119  0.12911438  1
  O2-  O418  1  0.58009361  0.88986219  0.48470293  1
  O2-  O419  1  0.58112093  0.92186518  0.82075885  1
  O2-  O420  1  0.84234465  0.16337316  0.14851721  1
  O2-  O421  1  0.89554626  0.20541740  0.47178639  1
  O2-  O422  1  0.84682227  0.17644713  0.81263774  1
  O2-  O423  1  0.81431171  0.46343101  0.13000527  1
  O2-  O424  1  0.82778315  0.42163814  0.47868022  1
  O2-  O425  1  0.83457151  0.42070061  0.81550542  1
  O2-  O426  1  0.82095367  0.60951219  0.13577016  1
  O2-  O427  1  0.81580662  0.67625659  0.47907049  1
  O2-  O428  1  0.82572039  0.66838689  0.80658535  1
  O2-  O429  1  0.83161388  0.91084926  0.14639591  1
  O2-  O430  1  0.84438151  0.92398792  0.48330454  1
  O2-  O431  1  0.80753585  0.90164019  0.83704558  1
  O2-  O432  1  0.16439511  0.08997280  0.18898965  1
  O2-  O433  1  0.17642657  0.10076484  0.52590813  1
  O2-  O434  1  0.16471749  0.08486465  0.83956784  1
  O2-  O435  1  0.17288791  0.34789095  0.17904571  1
  O2-  O436  1  0.14163966  0.34360360  0.53075894  1
  O2-  O437  1  0.19351604  0.30280211  0.86568951  1
  O2-  O438  1  0.14361111  0.57714352  0.19282288  1
  O2-  O439  1  0.16159582  0.57793433  0.50664229  1
  O2-  O440  1  0.16998030  0.60450977  0.81327805  1
  O2-  O441  1  0.10528804  0.79852568  0.21044996  1
  O2-  O442  1  0.16969906  0.82243698  0.52486361  1
  O2-  O443  1  0.16880309  0.84568098  0.86436241  1
  O2-  O444  1  0.40796819  0.09792832  0.18908741  1
  O2-  O445  1  0.40688321  0.08134843  0.52298917  1
  O2-  O446  1  0.41714862  0.09321949  0.85009291  1
  O2-  O447  1  0.42476480  0.33572653  0.19296080  1
  O2-  O448  1  0.45653767  0.29509457  0.54244716  1
  O2-  O449  1  0.41845546  0.34301739  0.85343049  1
  O2-  O450  1  0.43084044  0.58673031  0.19195917  1
  O2-  O451  1  0.44169886  0.60646622  0.51844757  1
  O2-  O452  1  0.41533277  0.58577026  0.85683522  1
  O2-  O453  1  0.42303705  0.82006254  0.18796335  1
  O2-  O454  1  0.42074552  0.83074374  0.52664970  1
  O2-  O455  1  0.42888590  0.83676595  0.89172123  1
  O2-  O456  1  0.69128619  0.07564064  0.19713722  1
  O2-  O457  1  0.57691996  0.04188080  0.46605925  1
  O2-  O458  1  0.67936616  0.10235977  0.86239592  1
  O2-  O459  1  0.66795418  0.32784287  0.17160944  1
  O2-  O460  1  0.66676376  0.35416575  0.52423655  1
  O2-  O461  1  0.66696429  0.34629644  0.85414212  1
  O2-  O462  1  0.67296069  0.58265537  0.18529426  1
  O2-  O463  1  0.63726549  0.60353386  0.49758781  1
  O2-  O464  1  0.66710452  0.59370534  0.85629645  1
  O2-  O465  1  0.66803648  0.83369182  0.19617654  1
  O2-  O466  1  0.67501558  0.81876670  0.53417558  1
  O2-  O467  1  0.65434407  0.83643174  0.87913877  1
  O2-  O468  1  0.91438231  0.07171687  0.18568430  1
  O2-  O469  1  0.93469211  0.08957710  0.51462727  1
  O2-  O470  1  0.92592165  0.08481091  0.84462916  1
  O2-  O471  1  0.91160638  0.32191955  0.18181760  1
  O2-  O472  1  0.91921882  0.34501258  0.53242496  1
  O2-  O473  1  0.91845240  0.33689368  0.85374120  1
  O2-  O474  1  0.95183694  0.65212860  0.21103183  1
  O2-  O475  1  0.90000704  0.58940364  0.52027461  1
  O2-  O476  1  0.90994165  0.58867880  0.85016960  1
  O2-  O477  1  0.91304973  0.83287004  0.18548010  1
  O2-  O478  1  0.92633077  0.84505562  0.51559873  1
  O2-  O479  1  0.91450736  0.83264048  0.85208872  1
  O2-  O480  1  0.17203872  0.09678714  0.31256068  1
  O2-  O481  1  0.17086754  0.10059524  0.65082469  1
  O2-  O482  1  0.16347966  0.08474425  0.99427500  1
  O2-  O483  1  0.16466929  0.32318215  0.29690312  1
  O2-  O484  1  0.16661574  0.33777429  0.64901574  1
  O2-  O485  1  0.16678126  0.33395467  0.97961740  1
  O2-  O486  1  0.16982009  0.57706005  0.31462189  1
  O2-  O487  1  0.17492839  0.59769967  0.68313474  1
  O2-  O488  1  0.16058483  0.57543914  0.98203357  1
  O2-  O489  1  0.17227871  0.81053585  0.32609614  1
  O2-  O490  1  0.16970959  0.84852185  0.64736965  1
  O2-  O491  1  0.17905714  0.83225072  0.98457294  1
  O2-  O492  1  0.41007647  0.11683605  0.31166657  1
  O2-  O493  1  0.40522991  0.08625098  0.64753118  1
  O2-  O494  1  0.41212078  0.08238707  0.97435873  1
  O2-  O495  1  0.42374269  0.34557227  0.30784851  1
  O2-  O496  1  0.42639239  0.34178897  0.65493249  1
  O2-  O497  1  0.41683262  0.33402908  0.97354905  1
  O2-  O498  1  0.41549162  0.58278285  0.31979739  1
  O2-  O499  1  0.43717831  0.59319571  0.63633247  1
  O2-  O500  1  0.41009853  0.57755474  0.97020566  1
  O2-  O501  1  0.44067836  0.83601206  0.31875347  1
  O2-  O502  1  0.42251291  0.83082443  0.65212742  1
  O2-  O503  1  0.42578482  0.82363468  0.95810933  1
  O2-  O504  1  0.69680398  0.07833961  0.31827932  1
  O2-  O505  1  0.60041121  0.05298179  0.69831870  1
  O2-  O506  1  0.68607038  0.10256099  0.99762161  1
  O2-  O507  1  0.66408872  0.35061858  0.32346983  1
  O2-  O508  1  0.66339836  0.34824278  0.64951147  1
  O2-  O509  1  0.66518651  0.34616479  0.97483100  1
  O2-  O510  1  0.60837109  0.55771739  0.29984577  1
  O2-  O511  1  0.67332270  0.60533932  0.67153092  1
  O2-  O512  1  0.67489368  0.60543679  0.97833657  1
  O2-  O513  1  0.66558301  0.82577137  0.32365504  1
  O2-  O514  1  0.64963349  0.78598276  0.65560380  1
  O2-  O515  1  0.63345975  0.83345016  0.98975308  1
  O2-  O516  1  0.92688146  0.07906192  0.30893172  1
  O2-  O517  1  0.92243764  0.08249151  0.63774275  1
  O2-  O518  1  0.90862375  0.07029782  0.96971222  1
  O2-  O519  1  0.91076200  0.33155669  0.30689893  1
  O2-  O520  1  0.91618272  0.34184064  0.65659410  1
  O2-  O521  1  0.92038623  0.34395032  0.97825094  1
  O2-  O522  1  0.92042161  0.58554526  0.32217563  1
  O2-  O523  1  0.85296495  0.58096918  0.64286057  1
  O2-  O524  1  0.91618030  0.59025062  0.97206033  1
  O2-  O525  1  0.92267829  0.83509431  0.31366239  1
  O2-  O526  1  0.93244530  0.84270426  0.63314194  1
  O2-  O527  1  0.90822626  0.82401619  0.97796213  1
  O2-  O528  1  0.07919861  0.17145204  0.01826441  1
  O2-  O529  1  0.08915351  0.17100442  0.35152276  1
  O2-  O530  1  0.09768898  0.17877988  0.68295529  1
  O2-  O531  1  0.08428058  0.41540188  0.02006576  1
  O2-  O532  1  0.08786994  0.41060684  0.33433072  1
  O2-  O533  1  0.08661561  0.42834747  0.68568265  1
  O2-  O534  1  0.07883252  0.66352458  0.01895856  1
  O2-  O535  1  0.07336095  0.64806205  0.36857184  1
  O2-  O536  1  0.07958018  0.69410489  0.69917347  1
  O2-  O537  1  0.08343896  0.90674254  -0.00963292  1
  O2-  O538  1  0.09622366  0.94023029  0.34562475  1
  O2-  O539  1  0.10026251  0.94347571  0.68795035  1
  O2-  O540  1  0.32360440  0.15887102  0.01927734  1
  O2-  O541  1  0.32527283  0.19246433  0.36102350  1
  O2-  O542  1  0.33114576  0.17520472  0.68874897  1
  O2-  O543  1  0.33022500  0.42275563  0.01436331  1
  O2-  O544  1  0.33226683  0.40965682  0.33943984  1
  O2-  O545  1  0.33643841  0.42785938  0.68117197  1
  O2-  O546  1  0.34643197  0.66467659  0.00482140  1
  O2-  O547  1  0.32033280  0.64502141  0.35776384  1
  O2-  O548  1  0.35910299  0.66475354  0.68799440  1
  O2-  O549  1  0.35859841  0.92123593  0.01626999  1
  O2-  O550  1  0.32519511  0.88121409  0.36353631  1
  O2-  O551  1  0.33602580  0.91831679  0.68806845  1
  O2-  O552  1  0.58060898  0.18037478  0.00733349  1
  O2-  O553  1  0.55980811  0.17851655  0.36379465  1
  O2-  O554  1  0.56687429  0.18454404  0.69435435  1
  O2-  O555  1  0.59357510  0.44466499  0.01627928  1
  O2-  O556  1  0.58294287  0.42510320  0.36075885  1
  O2-  O557  1  0.59001780  0.43802717  0.69590081  1
  O2-  O558  1  0.58057310  0.67397369  0.02679544  1
  O2-  O559  1  0.58014185  0.66450532  0.36421430  1
  O2-  O560  1  0.60503656  0.69519023  0.67664068  1
  O2-  O561  1  0.58600009  0.87878155  0.00461115  1
  O2-  O562  1  0.60174560  0.92459854  0.36259510  1
  O2-  O563  1  0.57874098  0.86414815  0.70301265  1
  O2-  O564  1  0.85116001  0.18586117  0.03410108  1
  O2-  O565  1  0.85280658  0.16892376  0.34075584  1
  O2-  O566  1  0.85341126  0.17370318  0.69216693  1
  O2-  O567  1  0.83569545  0.42538826  0.01052241  1
  O2-  O568  1  0.83268782  0.41634278  0.35355920  1
  O2-  O569  1  0.82555968  0.42362986  0.69391498  1
  O2-  O570  1  0.83181870  0.66289729  0.02089243  1
  O2-  O571  1  0.84236221  0.66655029  0.35635785  1
  O2-  O572  1  0.76475830  0.65069636  0.68616152  1
  O2-  O573  1  0.84343196  0.92322635  0.02018373  1
  O2-  O574  1  0.83863472  0.91644427  0.35882577  1
  O2-  O575  1  0.82749262  0.89605744  0.67887043  1
