# generated using pymatgen
data_H2O
_symmetry_space_group_name_H-M   'P 1'
_cell_length_a   17.99081942
_cell_length_b   17.99115214
_cell_length_c   21.98737564
_cell_angle_alpha   90.00019585
_cell_angle_beta   89.98907539
_cell_angle_gamma   119.97981067
_symmetry_Int_Tables_number   1
_chemical_formula_structural   H2O
_chemical_formula_sum   'H384 O192'
_cell_volume   6164.56243189
_cell_formula_units_Z   192
loop_
 _symmetry_equiv_pos_site_id
 _symmetry_equiv_pos_as_xyz
  1  'x, y, z'
loop_
 _atom_type_symbol
 _atom_type_oxidation_number
  H+  1.0
  O2-  -2.0
loop_
 _atom_site_type_symbol
 _atom_site_label
 _atom_site_symmetry_multiplicity
 _atom_site_fract_x
 _atom_site_fract_y
 _atom_site_fract_z
 _atom_site_occupancy
  H+  H0  1  0.17975944  0.36195359  0.24451959  1
  H+  H1  1  0.32172617  0.26965991  0.94358165  1
  H+  H2  1  0.88317899  0.36559903  0.17060562  1
  H+  H3  1  0.21023323  0.07323036  0.65412490  1
  H+  H4  1  0.36499349  0.38285929  0.00798923  1
  H+  H5  1  0.62134626  0.70867023  0.29531469  1
  H+  H6  1  0.33227995  0.63585451  0.49247644  1
  H+  H7  1  0.38067027  0.65806893  0.68209828  1
  H+  H8  1  0.37001530  0.13943251  0.17746460  1
  H+  H9  1  1.12954617  0.89239135  0.48527183  1
  H+  H10  1  0.34008609  0.41990623  0.76808940  1
  H+  H11  1  0.64470332  0.76241855  0.66426770  1
  H+  H12  1  0.52076055  0.63906017  0.67384937  1
  H+  H13  1  0.62771215  0.34176768  0.66550329  1
  H+  H14  1  0.77160422  0.88264021  0.00147312  1
  H+  H15  1  0.89899469  0.52584171  0.31053305  1
  H+  H16  1  0.86323543  0.12996926  1.00374386  1
  H+  H17  1  0.10680735  0.37511645  0.49575001  1
  H+  H18  1  0.59005069  0.73197252  0.53512186  1
  H+  H19  1  0.13627093  0.02157949  0.17425359  1
  H+  H20  1  0.52719796  0.63815012  1.00368831  1
  H+  H21  1  0.51918062  0.89339900  0.67999469  1
  H+  H22  1  0.97145175  0.63020952  0.97450903  1
  H+  H23  1  0.39883342  0.78866860  0.66723643  1
  H+  H24  1  0.01605291  0.87514563  0.81755290  1
  H+  H25  1  0.72010809  0.93755255  0.28903063  1
  H+  H26  1  0.16978785  0.79075767  0.66013253  1
  H+  H27  1  0.64023236  0.27492195  0.32397682  1
  H+  H28  1  0.88458881  0.86149448  0.83614238  1
  H+  H29  1  0.39122084  0.52313772  0.17312863  1
  H+  H30  1  0.61505301  0.38306623  0.33892559  1
  H+  H31  1  0.14132253  0.02834210  0.32262109  1
  H+  H32  1  0.88109508  0.26950958  0.32162847  1
  H+  H33  1  0.37819338  0.40707843  0.67081282  1
  H+  H34  1  0.87307006  0.15896635  0.33079907  1
  H+  H35  1  0.58533062  0.74063164  0.14131925  1
  H+  H36  1  0.39741965  0.87810125  0.66304980  1
  H+  H37  1  0.07051349  0.44221109  0.62568182  1
  H+  H38  1  1.04040130  0.65059593  0.48618526  1
  H+  H39  1  0.90650284  0.58912281  0.55608725  1
  H+  H40  1  0.85917609  0.13995759  0.48843244  1
  H+  H41  1  0.01397426  0.12738184  0.65353523  1
  H+  H42  1  0.43290456  0.09634367  0.89656922  1
  H+  H43  1  0.88479720  0.83751631  0.31687954  1
  H+  H44  1  0.36724010  0.24804941  0.99409592  1
  H+  H45  1  0.28362619  0.39332865  0.67289220  1
  H+  H46  1  0.84756076  0.49559174  0.00019796  1
  H+  H47  1  0.10870495  0.36355014  0.34444646  1
  H+  H48  1  0.28388681  0.88603427  0.48035786  1
  H+  H49  1  0.85605561  0.87582209  -0.00264176  1
  H+  H50  1  0.63350617  0.78653466  0.83493812  1
  H+  H51  1  0.87727047  0.35573867  0.84365185  1
  H+  H52  1  0.36205397  0.23700038  0.33756499  1
  H+  H53  1  0.91078377  0.05204097  0.49796874  1
  H+  H54  1  0.36648585  0.39540939  0.49295983  1
  H+  H55  1  0.74137988  0.60053892  0.32427026  1
  H+  H56  1  0.22704568  0.61442798  0.31913542  1
  H+  H57  1  0.14073730  0.77900348  0.88079933  1
  H+  H58  1  0.89757843  0.75805931  0.31638004  1
  H+  H59  1  0.13793616  0.87961368  0.67150537  1
  H+  H60  1  0.96604112  0.09771478  0.99253914  1
  H+  H61  1  0.86318161  0.22840582  0.15621180  1
  H+  H62  1  0.15183202  0.77560257  0.49799580  1
  H+  H63  1  0.37251757  0.63822240  0.16113779  1
  H+  H64  1  0.61622676  0.46480073  0.49424154  1
  H+  H65  1  0.55712506  0.73697681  0.51670752  1
  H+  H66  1  0.64274592  0.62289363  1.00148684  1
  H+  H67  1  0.62483292  0.39812022  1.00505242  1
  H+  H68  1  0.86255264  -0.02189222  0.82884091  1
  H+  H69  1  0.63489805  0.77539160  0.99254905  1
  H+  H70  1  0.03102988  0.47038718  0.67669482  1
  H+  H71  1  0.29699499  0.67295676  0.84455979  1
  H+  H72  1  0.73747947  0.63679411  0.99402606  1
  H+  H73  1  0.61511027  0.90624143  0.49738348  1
  H+  H74  1  0.64016013  0.50316929  0.33217168  1
  H+  H75  1  0.63087623  0.02808167  1.01245129  1
  H+  H76  1  0.17888721  0.83501561  0.38204970  1
  H+  H77  1  0.77420218  0.38488057  0.83090218  1
  H+  H78  1  0.36727897  0.63555638  0.00496381  1
  H+  H79  1  0.87787816  0.76710339  0.67731991  1
  H+  H80  1  0.60439233  0.98558662  0.49005215  1
  H+  H81  1  0.19217746  0.81141303  0.99711559  1
  H+  H82  1  0.63828165  0.62752790  0.16393910  1
  H+  H83  1  0.39157172  0.36337016  0.17015246  1
  H+  H84  1  0.84585487  0.36675438  0.67374796  1
  H+  H85  1  0.60291247  0.36968583  0.49476673  1
  H+  H86  1  0.53210654  0.15820073  0.32026546  1
  H+  H87  1  0.13634382  0.34939381  0.83615052  1
  H+  H88  1  0.83041967  0.44858340  0.48645811  1
  H+  H89  1  0.85386869  0.87556431  0.18780209  1
  H+  H90  1  0.17368834  0.31681368  0.92934983  1
  H+  H91  1  0.53457154  0.58394552  0.44043540  1
  H+  H92  1  0.11446287  0.12430508  0.83238136  1
  H+  H93  1  0.47574436  0.86505189  0.50733553  1
  H+  H94  1  -0.00606335  0.59076569  0.63583710  1
  H+  H95  1  0.88612808  0.38757340  0.33762606  1
  H+  H96  1  0.11667521  0.62576499  0.32893434  1
  H+  H97  1  0.62868293  0.11272286  0.50165634  1
  H+  H98  1  0.29805086  0.77947964  0.21069029  1
  H+  H99  1  0.99968065  0.15889905  0.31502043  1
  H+  H100  1  0.71870719  0.11376751  0.50221322  1
  H+  H101  1  0.96516657  0.09746039  0.16736825  1
  H+  H102  1  0.24833417  0.85734337  0.33307199  1
  H+  H103  1  0.59537141  0.21235803  0.48709816  1
  H+  H104  1  0.23551826  0.61198816  0.16269455  1
  H+  H105  1  0.50985825  0.89403725  0.34116809  1
  H+  H106  1  0.88604958  -0.04210018  0.46176180  1
  H+  H107  1  0.22715877  0.87025820  0.15810193  1
  H+  H108  1  0.14656848  0.27638477  0.50421209  1
  H+  H109  1  0.37048522  0.38843472  0.82573505  1
  H+  H110  1  0.72121800  0.37415759  0.99080134  1
  H+  H111  1  0.13923053  0.33472861  0.66329861  1
  H+  H112  1  0.73288911  0.59686971  0.50339787  1
  H+  H113  1  0.89150498  0.53300633  0.83181149  1
  H+  H114  1  0.83315933  0.48498845  0.64295035  1
  H+  H115  1  0.88555356  0.68976721  0.97867353  1
  H+  H116  1  0.30728437  0.18480718  0.67810072  1
  H+  H117  1  0.64910271  0.87350544  0.15068709  1
  H+  H118  1  0.91440814  0.82796118  0.53605912  1
  H+  H119  1  0.60538643  0.14882538  0.16339031  1
  H+  H120  1  0.22916845  0.11100638  0.17339597  1
  H+  H121  1  0.11330956  0.95922646  0.66807138  1
  H+  H122  1  0.28309877  0.39773498  0.16395359  1
  H+  H123  1  0.41341866  0.30461904  0.65372934  1
  H+  H124  1  0.57735186  0.17938046  0.07065950  1
  H+  H125  1  0.98408485  0.61924960  0.15823801  1
  H+  H126  1  0.92561349  0.46740614  0.38092160  1
  H+  H127  1  0.66302131  0.83772116  0.93454525  1
  H+  H128  1  0.61258999  0.88893996  0.01117710  1
  H+  H129  1  0.22981782  0.61118668  1.00844248  1
  H+  H130  1  0.12198808  0.13991418  0.33651091  1
  H+  H131  1  0.88928907  0.25561969  -0.00379304  1
  H+  H132  1  0.47751561  0.37132558  0.32657914  1
  H+  H133  1  0.09446559  0.85748709  -0.01715026  1
  H+  H134  1  0.76741333  0.86654763  0.68160600  1
  H+  H135  1  0.60067860  1.00106744  0.82017144  1
  H+  H136  1  0.39310318  0.11433607  0.98778812  1
  H+  H137  1  0.90102155  0.94754389  0.49143796  1
  H+  H138  1  0.15389900  0.05743947  0.59405263  1
  H+  H139  1  0.63199830  0.88005813  0.31890715  1
  H+  H140  1  0.83991664  0.91306069  0.36211162  1
  H+  H141  1  0.33393123  0.15453339  0.07399748  1
  H+  H142  1  0.71854689  0.12355744  0.16652869  1
  H+  H143  1  0.10147319  0.20468777  0.16075326  1
  H+  H144  1  0.22807764  0.36801902  0.33520797  1
  H+  H145  1  0.15007979  0.13893322  0.67889423  1
  H+  H146  1  0.38611023  0.85760393  1.00687931  1
  H+  H147  1  0.87850844  0.77013079  0.16109925  1
  H+  H148  1  0.85927823  0.13735677  0.15675925  1
  H+  H149  1  0.81015253  0.83198486  0.48986671  1
  H+  H150  1  0.62627664  0.60830952  0.66006292  1
  H+  H151  1  0.71838502  0.62210922  0.84146636  1
  H+  H152  1  0.94958600  0.33745711  0.65942947  1
  H+  H153  1  0.61785286  0.35752406  0.82878974  1
  H+  H154  1  0.52431255  0.36555868  0.82599777  1
  H+  H155  1  0.01870048  0.68324476  0.82714425  1
  H+  H156  1  0.36346722  0.85591163  0.17246455  1
  H+  H157  1  0.64331234  0.25845832  0.84302383  1
  H+  H158  1  0.57263645  0.15993862  0.42391207  1
  H+  H159  1  0.17555951  0.59602849  0.60836292  1
  H+  H160  1  0.84552851  0.21518652  0.82991718  1
  H+  H161  1  0.87663717  0.66282206  0.48798522  1
  H+  H162  1  0.37653182  -0.00654421  0.66612066  1
  H+  H163  1  0.47669732  0.13777972  0.63475508  1
  H+  H164  1  0.15640960  0.66905810  0.69101775  1
  H+  H165  1  0.61555720  0.38996833  0.15484621  1
  H+  H166  1  0.72840360  0.36458178  0.32310478  1
  H+  H167  1  0.85626984  0.72427002  0.82106316  1
  H+  H168  1  0.84766997  0.01539420  0.33859428  1
  H+  H169  1  0.17088602  0.08747487  0.26306350  1
  H+  H170  1  0.39066195  0.61926910  0.84386542  1
  H+  H171  1  0.23007578  0.09922830  0.84296042  1
  H+  H172  1  0.14908867  0.61717816  0.16119111  1
  H+  H173  1  0.25238039  0.88355933  0.65402935  1
  H+  H174  1  0.27988087  0.38492859  0.00756106  1
  H+  H175  1  0.11887602  0.71589574  0.33519843  1
  H+  H176  1  0.63869366  0.10999520  0.66446401  1
  H+  H177  1  0.75142451  0.96829106  0.57474935  1
  H+  H178  1  0.22107341  0.45304520  0.21608695  1
  H+  H179  1  0.34115727  0.93925061  0.72929117  1
  H+  H180  1  0.11292232  0.12226687  0.16213211  1
  H+  H181  1  0.77170042  0.64306960  0.15393016  1
  H+  H182  1  0.08159161  0.51357852  0.87520607  1
  H+  H183  1  1.01352748  0.87214346  0.52867694  1
  H+  H184  1  0.36028144  0.14011934  0.48694380  1
  H+  H185  1  0.98270930  0.62458317  0.64545441  1
  H+  H186  1  0.03765575  0.15112827  0.49610934  1
  H+  H187  1  0.40741638  0.79079941  0.84678466  1
  H+  H188  1  0.51906805  0.64383315  0.15673037  1
  H+  H189  1  0.75598555  0.36242867  0.67730923  1
  H+  H190  1  0.47609290  0.36420888  0.50074343  1
  H+  H191  1  0.72193224  0.11356419  0.32409401  1
  H+  H192  1  0.86077197  0.64326434  0.14990870  1
  H+  H193  1  0.12189060  0.89408140  0.33421655  1
  H+  H194  1  0.08762979  0.44360316  0.81757363  1
  H+  H195  1  0.14319608  0.27184190  0.33076851  1
  H+  H196  1  0.47272609  0.61982189  0.31896141  1
  H+  H197  1  0.26906328  0.11759551  0.01708248  1
  H+  H198  1  0.82437157  0.71277639  0.46856636  1
  H+  H199  1  0.75757081  0.63407869  0.67110276  1
  H+  H200  1  0.64614431  0.59581532  0.49590757  1
  H+  H201  1  0.40286363  0.14935868  0.29686309  1
  H+  H202  1  0.63030920  0.02619499  0.32487737  1
  H+  H203  1  0.66350107  0.59972390  0.90162712  1
  H+  H204  1  0.35316065  0.73458377  0.34204718  1
  H+  H205  1  0.36029661  0.90360278  0.38919877  1
  H+  H206  1  0.62694081  0.48025656  0.67951454  1
  H+  H207  1  0.61113160  0.14040012  0.33099366  1
  H+  H208  1  0.02860942  0.88347193  0.33150823  1
  H+  H209  1  0.17082696  0.55420409  0.67245557  1
  H+  H210  1  0.95840581  0.34158318  0.83970175  1
  H+  H211  1  0.39228206  0.52438624  0.99325080  1
  H+  H212  1  0.11964471  0.50993908  0.51865081  1
  H+  H213  1  0.83797313  0.62222804  0.66640705  1
  H+  H214  1  0.38564260  0.53384638  0.66632526  1
  H+  H215  1  0.09596199  0.66263884  0.42657548  1
  H+  H216  1  0.77486280  0.39280192  0.15443182  1
  H+  H217  1  0.53724113  0.11185857  0.69631359  1
  H+  H218  1  1.01068851  0.36123825  0.33845127  1
  H+  H219  1  0.06973356  0.66870370  0.69101698  1
  H+  H220  1  0.70444145  0.33602503  0.50826656  1
  H+  H221  1  0.97133650  0.10870328  0.83864645  1
  H+  H222  1  0.86339894  0.24574637  0.66284843  1
  H+  H223  1  0.97276099  0.36695500  0.17002661  1
  H+  H224  1  0.19818225  0.63502551  0.92156627  1
  H+  H225  1  0.44723669  0.62415062  0.51163055  1
  H+  H226  1  0.77067128  0.89025539  0.82907024  1
  H+  H227  1  0.61355040  0.98291619  0.67731661  1
  H+  H228  1  0.73862345  0.90851740  0.51949860  1
  H+  H229  1  0.12450696  0.60019051  0.51612508  1
  H+  H230  1  0.87649453  0.61456330  0.82949095  1
  H+  H231  1  0.63923223  0.87866642  0.83812709  1
  H+  H232  1  0.63232377  0.28179866  0.99762827  1
  H+  H233  1  0.61397752  0.14808295  0.01587300  1
  H+  H234  1  0.86563383  0.48054537  0.15268736  1
  H+  H235  1  0.86945509  0.62564049  0.32757403  1
  H+  H236  1  0.48652643  0.12670865  0.98798745  1
  H+  H237  1  0.53780743  0.39776654  0.67387980  1
  H+  H238  1  0.63215875  0.27835262  0.16876316  1
  H+  H239  1  0.10916145  0.47993168  0.15125860  1
  H+  H240  1  0.38509724  0.27776779  0.50411692  1
  H+  H241  1  0.52368651  0.38636036  0.15293368  1
  H+  H242  1  0.21785997  0.72287149  0.89362148  1
  H+  H243  1  0.98765664  0.61393620  0.31595681  1
  H+  H244  1  0.27580503  0.39215945  0.49337029  1
  H+  H245  1  0.10855906  0.39329557  0.15809625  1
  H+  H246  1  0.76042011  0.12261011  0.67584728  1
  H+  H247  1  0.39353281  0.26687508  0.83265093  1
  H+  H248  1  0.85370134  0.00019055  0.64808376  1
  H+  H249  1  0.85350994  0.22437010  0.48996596  1
  H+  H250  1  0.36609918  0.72470182  0.16258941  1
  H+  H251  1  0.38002050  0.01824655  0.49383732  1
  H+  H252  1  0.06592355  0.68811883  0.05722084  1
  H+  H253  1  0.94009959  0.84292380  0.63306729  1
  H+  H254  1  0.10152954  0.47511670  0.00483940  1
  H+  H255  1  0.35069753  0.73097489  0.49067508  1
  H+  H256  1  0.10003954  0.20373452  1.00990426  1
  H+  H257  1  0.08796606  0.91760304  0.42986022  1
  H+  H258  1  0.52316739  0.88580766  0.01705556  1
  H+  H259  1  0.14270705  1.00920645  0.84123920  1
  H+  H260  1  0.86882535  0.87227920  0.68667228  1
  H+  H261  1  0.23090909  0.35984605  0.83633625  1
  H+  H262  1  0.16508298  0.06635493  0.93885198  1
  H+  H263  1  0.17325672  0.26815472  0.66549743  1
  H+  H264  1  0.87626127  0.35247767  0.50844186  1
  H+  H265  1  0.12091170  0.13977146  0.49480244  1
  H+  H266  1  0.22921166  0.11593040  0.50455945  1
  H+  H267  1  0.84197388  0.12545077  0.83043548  1
  H+  H268  1  0.01857864  0.89222681  0.15913460  1
  H+  H269  1  0.08261421  0.53380247  0.84476710  1
  H+  H270  1  0.37255891  0.88847119  0.48945298  1
  H+  H271  1  0.36358003  0.99760707  0.81995550  1
  H+  H272  1  0.91081207  0.59993888  0.91805122  1
  H+  H273  1  0.87954374  1.02474179  0.36402142  1
  H+  H274  1  0.91876850  0.33236370  0.26177259  1
  H+  H275  1  0.63427935  0.53759038  0.16475437  1
  H+  H276  1  0.38875295  0.77249250  -0.00367388  1
  H+  H277  1  0.36483300  0.22309251  0.16313171  1
  H+  H278  1  0.58094844  0.66718185  0.73386972  1
  H+  H279  1  1.00300253  0.14027175  0.68325499  1
  H+  H280  1  0.12788689  0.73402980  0.15288302  1
  H+  H281  1  0.35926389  0.48602200  0.33981080  1
  H+  H282  1  0.75153002  0.85121852  0.33460522  1
  H+  H283  1  0.39015607  0.52908866  0.83963139  1
  H+  H284  1  0.61602431  0.65349689  0.82843263  1
  H+  H285  1  0.37351238  0.52526030  0.50860032  1
  H+  H286  1  0.35269026  0.12808698  0.66288265  1
  H+  H287  1  0.64705536  0.59808254  0.30689104  1
  H+  H288  1  0.27646222  0.14504557  0.33538523  1
  H+  H289  1  0.71875023  0.11365586  1.00269619  1
  H+  H290  1  0.93779077  0.13069288  0.25652092  1
  H+  H291  1  0.38638804  0.62656885  0.32764495  1
  H+  H292  1  0.17159610  0.58496629  0.25794264  1
  H+  H293  1  0.52032859  0.90339352  0.83059509  1
  H+  H294  1  0.18346781  0.83861390  0.55613694  1
  H+  H295  1  0.70696968  0.84672078  0.22501300  1
  H+  H296  1  0.32554990  0.89791578  0.82367752  1
  H+  H297  1  0.34570929  0.68482717  0.77957557  1
  H+  H298  1  0.38997546  0.84932995  0.27959089  1
  H+  H299  1  0.41938719  0.83918508  0.56825406  1
  H+  H300  1  0.83724536  0.65294899  0.38872362  1
  H+  H301  1  0.33522205  0.42692502  0.39955597  1
  H+  H302  1  0.51851455  0.15310976  0.17549055  1
  H+  H303  1  0.37515982  0.13827888  0.82755736  1
  H+  H304  1  0.33249298  0.17522403  0.42981222  1
  H+  H305  1  0.82754586  0.43284301  0.05683914  1
  H+  H306  1  0.46734567  0.10724974  0.49296151  1
  H+  H307  1  0.78636080  0.80259141  0.42286423  1
  H+  H308  1  0.06270603  0.38386563  0.76073696  1
  H+  H309  1  0.20371516  0.26127240  0.96274331  1
  H+  H310  1  0.41267001  0.58268872  0.23321566  1
  H+  H311  1  0.66241845  0.09399782  0.22650423  1
  H+  H312  1  0.42532299  0.32461532  0.89232786  1
  H+  H313  1  0.92848395  0.59229549  0.21839636  1
  H+  H314  1  0.39079307  0.37601188  0.32511553  1
  H+  H315  1  0.58241503  0.67188558  0.06489004  1
  H+  H316  1  0.07154093  0.41159031  0.06113638  1
  H+  H317  1  0.59092673  0.67732586  0.46514471  1
  H+  H318  1  1.01410644  0.37053690  0.49655626  1
  H+  H319  1  0.83928494  0.16734000  0.06381981  1
  H+  H320  1  0.62756363  0.25065146  0.66860463  1
  H+  H321  1  0.13905783  0.17814408  0.74089943  1
  H+  H322  1  0.34347105  0.66825430  0.06583958  1
  H+  H323  1  0.14661400  0.61675561  1.02294610  1
  H+  H324  1  0.98544869  0.36141258  0.99456917  1
  H+  H325  1  0.66762389  0.34180389  0.22571986  1
  H+  H326  1  0.96566574  0.83572265  0.98262992  1
  H+  H327  1  0.12727320  0.08871714  -0.00261079  1
  H+  H328  1  0.66019533  0.32226675  0.90214171  1
  H+  H329  1  0.65933855  0.57864770  0.60063970  1
  H+  H330  1  0.59185794  0.40166109  0.76556487  1
  H+  H331  1  0.58653408  0.41202785  0.40065532  1
  H+  H332  1  0.09647216  0.94663598  -0.00651007  1
  H+  H333  1  0.90727608  0.08804420  0.56162167  1
  H+  H334  1  0.43224852  0.35490578  0.59201464  1
  H+  H335  1  0.66151973  0.07809507  0.60051061  1
  H+  H336  1  0.82076884  0.15067373  0.73577222  1
  H+  H337  1  0.10637294  0.89079431  0.16003283  1
  H+  H338  1  0.60362454  0.66488902  0.36100578  1
  H+  H339  1  0.29598387  0.66344421  0.67943801  1
  H+  H340  1  0.91319316  0.32117516  0.93437890  1
  H+  H341  1  0.68222275  0.84282120  0.61504039  1
  H+  H342  1  0.60738097  0.15938250  0.75774092  1
  H+  H343  1  0.91278921  0.07853042  0.89883578  1
  H+  H344  1  0.11910470  0.21554031  0.83026490  1
  H+  H345  1  0.81767568  0.39062664  0.43049804  1
  H+  H346  1  0.91810396  0.82190426  0.22313404  1
  H+  H347  1  0.08397976  0.84507202  0.81499680  1
  H+  H348  1  0.10076023  0.72467341  0.78418663  1
  H+  H349  1  0.18434320  0.84715016  0.22327667  1
  H+  H350  1  0.91039224  0.81996922  0.89075908  1
  H+  H351  1  0.83208678  0.91204965  0.74520865  1
  H+  H352  1  0.32461824  0.67209889  0.39904245  1
  H+  H353  1  0.59475438  0.42747721  0.07296294  1
  H+  H354  1  0.89947184  0.31609420  0.56773778  1
  H+  H355  1  0.33016329  0.15250777  0.76969638  1
  H+  H356  1  0.64759496  0.30763351  0.56942767  1
  H+  H357  1  0.17460899  0.33181871  0.56510258  1
  H+  H358  1  0.43173154  0.85115455  0.90474052  1
  H+  H359  1  0.14265829  0.02476486  0.49943221  1
  H+  H360  1  0.08996646  0.90035963  0.73538813  1
  H+  H361  1  0.57757910  0.93218457  0.75003864  1
  H+  H362  1  0.87707483  0.00980062  0.98783919  1
  H+  H363  1  0.06682247  0.38959636  0.40695725  1
  H+  H364  1  0.42378203  0.33743834  0.22922366  1
  H+  H365  1  0.70033809  0.13630987  0.82743467  1
  H+  H366  1  0.97369681  0.68598952  0.55737477  1
  H+  H367  1  0.77047694  0.50171145  0.60315427  1
  H+  H368  1  0.49210527  0.11745438  0.83605771  1
  H+  H369  1  0.07115544  0.14376670  0.06854375  1
  H+  H370  1  0.41119736  0.08739661  0.58103707  1
  H+  H371  1  0.42035401  0.58383615  0.93355909  1
  H+  H372  1  0.63683827  0.49940257  0.01142046  1
  H+  H373  1  0.52555898  0.64929272  0.82631777  1
  H+  H374  1  0.83899451  0.08033393  0.65013635  1
  H+  H375  1  0.81925924  0.66002545  0.76437968  1
  H+  H376  1  0.33768665  0.41754563  0.10170595  1
  H+  H377  1  0.57924900  0.86301068  0.10390412  1
  H+  H378  1  0.87379566  0.01800151  0.18650360  1
  H+  H379  1  0.09375505  0.16980129  0.39771579  1
  H+  H380  1  0.57357413  0.91716116  0.39743081  1
  H+  H381  1  0.82927530  0.16849942  0.39324369  1
  H+  H382  1  0.40614693  0.58987403  0.60592035  1
  H+  H383  1  0.82806670  0.40858303  0.76961096  1
  O2-  O384  1  0.07524527  0.14596008  0.14581735  1
  O2-  O385  1  0.09632729  0.17531196  0.47881966  1
  O2-  O386  1  0.08859353  0.15631988  0.81325425  1
  O2-  O387  1  0.07516750  0.41757340  0.13976277  1
  O2-  O388  1  0.07285124  0.40052206  0.47816458  1
  O2-  O389  1  0.06479805  0.38357051  0.80519005  1
  O2-  O390  1  0.09880267  0.67273091  0.13785345  1
  O2-  O391  1  0.09957250  0.67094079  0.47183950  1
  O2-  O392  1  0.07391245  0.73714306  0.81885745  1
  O2-  O393  1  0.08143157  0.92742365  0.15156148  1
  O2-  O394  1  0.09589303  0.92115593  0.47497680  1
  O2-  O395  1  0.07658961  0.89452190  0.80369622  1
  O2-  O396  1  0.33601907  0.16094835  0.15287346  1
  O2-  O397  1  0.33216472  0.17409004  0.47576705  1
  O2-  O398  1  0.33786968  0.16303142  0.81405378  1
  O2-  O399  1  0.34168641  0.41954996  0.14715662  1
  O2-  O400  1  0.33678773  0.42678267  0.47882482  1
  O2-  O401  1  0.33709052  0.41613397  0.81351813  1
  O2-  O402  1  0.34148106  0.66723673  0.14402162  1
  O2-  O403  1  0.31472649  0.67339665  0.47217959  1
  O2-  O404  1  0.35216431  0.68408632  0.82436044  1
  O2-  O405  1  0.32009158  0.89851011  0.11276105  1
  O2-  O406  1  0.34470941  0.91645450  0.46620589  1
  O2-  O407  1  0.32221995  0.94196422  0.79980302  1
  O2-  O408  1  0.57409712  0.18007034  0.15116828  1
  O2-  O409  1  0.56880834  0.15349290  0.46938496  1
  O2-  O410  1  0.60741114  0.16315936  0.81030244  1
  O2-  O411  1  0.58439940  0.41895782  0.13721849  1
  O2-  O412  1  0.58037839  0.40587406  0.47682038  1
  O2-  O413  1  0.58674614  0.39065563  0.81130027  1
  O2-  O414  1  0.57696529  0.68103425  0.13907631  1
  O2-  O415  1  0.59294049  0.63312886  0.43996342  1
  O2-  O416  1  0.58500533  0.68214374  0.80943840  1
  O2-  O417  1  0.58786112  0.83711052  0.14159258  1
  O2-  O418  1  0.57793498  0.92386382  0.47661178  1
  O2-  O419  1  0.58028375  0.93955495  0.80945987  1
  O2-  O420  1  0.83261046  0.16946671  0.13882856  1
  O2-  O421  1  0.82379092  0.16457018  0.47343382  1
  O2-  O422  1  0.81344672  0.15585555  0.81298424  1
  O2-  O423  1  0.83512661  0.41939935  0.13909184  1
  O2-  O424  1  0.80803866  0.38857281  0.47543800  1
  O2-  O425  1  0.83386983  0.41407962  0.81478729  1
  O2-  O426  1  0.83176890  0.67522515  0.13814004  1
  O2-  O427  1  0.82749315  0.65896385  0.46445877  1
  O2-  O428  1  0.82276995  0.66213026  0.80956724  1
  O2-  O429  1  0.82525015  0.90981751  0.20232742  1
  O2-  O430  1  0.78385151  0.78019670  0.46507633  1
  O2-  O431  1  0.83144522  0.91682210  0.81351782  1
  O2-  O432  1  0.16830947  0.08446703  0.18817176  1
  O2-  O433  1  0.16829782  0.08249622  0.51945454  1
  O2-  O434  1  0.16943454  0.06823592  0.85755996  1
  O2-  O435  1  0.19480273  0.39272793  0.20437241  1
  O2-  O436  1  0.17236124  0.33690231  0.52008437  1
  O2-  O437  1  0.17095157  0.32512560  0.85259468  1
  O2-  O438  1  0.17406902  0.58216181  0.17651621  1
  O2-  O439  1  0.12546584  0.55753561  0.54434548  1
  O2-  O440  1  0.21659213  0.66877682  0.88340261  1
  O2-  O441  1  0.17139071  0.83669370  0.17999629  1
  O2-  O442  1  0.18036615  0.83733396  0.51095221  1
  O2-  O443  1  0.18972582  0.80652161  0.91029206  1
  O2-  O444  1  0.43010498  0.11400208  0.21866321  1
  O2-  O445  1  0.40695291  0.07872230  0.50946326  1
  O2-  O446  1  0.43218858  0.09560430  0.84955570  1
  O2-  O447  1  0.42369810  0.33450534  0.18393871  1
  O2-  O448  1  0.41701122  0.33914201  0.51845519  1
  O2-  O449  1  0.42907689  0.32843811  0.84717142  1
  O2-  O450  1  0.41663486  0.58363620  0.18797880  1
  O2-  O451  1  0.39082968  0.58276512  0.52758630  1
  O2-  O452  1  0.42168574  0.58814516  0.85630761  1
  O2-  O453  1  0.35983800  0.81551644  0.20478414  1
  O2-  O454  1  0.41553185  0.83600032  0.52300875  1
  O2-  O455  1  0.43370743  0.85224519  0.85938719  1
  O2-  O456  1  0.65941043  0.09955111  0.18200544  1
  O2-  O457  1  0.65941501  0.08435678  0.51966229  1
  O2-  O458  1  0.63797477  0.10734085  0.83667600  1
  O2-  O459  1  0.66730325  0.34193292  0.18073798  1
  O2-  O460  1  0.64486563  0.31032717  0.52395802  1
  O2-  O461  1  0.66347868  0.31978867  0.85621193  1
  O2-  O462  1  0.66684037  0.59688240  0.18010069  1
  O2-  O463  1  0.67281558  0.56870824  0.51976324  1
  O2-  O464  1  0.65929395  0.60080061  0.85690040  1
  O2-  O465  1  0.73532121  0.85405232  0.18515755  1
  O2-  O466  1  0.70677952  0.91793868  0.55152555  1
  O2-  O467  1  0.66756887  0.84656797  0.85147193  1
  O2-  O468  1  0.90846982  0.08198170  0.18511913  1
  O2-  O469  1  0.92901506  0.10664984  0.51898147  1
  O2-  O470  1  0.91091982  0.07953353  0.85284325  1
  O2-  O471  1  0.91345848  0.33579112  0.18742006  1
  O2-  O472  1  0.90867578  0.32451461  0.52266682  1
  O2-  O473  1  0.90154951  0.31944223  0.85909589  1
  O2-  O474  1  0.92428422  0.58935680  0.17332775  1
  O2-  O475  1  0.94536860  0.63769969  0.52914966  1
  O2-  O476  1  0.91632049  0.59386308  0.84425285  1
  O2-  O477  1  0.90942828  0.83080314  0.17974975  1
  O2-  O478  1  0.96541549  0.83549284  0.55689074  1
  O2-  O479  1  0.91480093  0.82905105  0.84543031  1
  O2-  O480  1  0.17123492  0.08919955  0.30910346  1
  O2-  O481  1  0.14982087  0.04800372  0.63952804  1
  O2-  O482  1  0.16158629  0.06219138  0.98404436  1
  O2-  O483  1  0.16719988  0.33480549  0.31951112  1
  O2-  O484  1  0.18176026  0.32331062  0.64483932  1
  O2-  O485  1  0.18418270  0.30189225  0.97138482  1
  O2-  O486  1  0.16742646  0.58341858  0.30300097  1
  O2-  O487  1  0.19359682  0.61017826  0.65264897  1
  O2-  O488  1  0.16747086  0.58587473  0.99745818  1
  O2-  O489  1  0.18460240  0.83343936  0.33794914  1
  O2-  O490  1  0.19061620  0.84759336  0.63959176  1
  O2-  O491  1  0.14328046  0.78996877  0.96872854  1
  O2-  O492  1  0.45709703  0.16369020  0.27567133  1
  O2-  O493  1  0.41617582  0.09665991  0.62732609  1
  O2-  O494  1  0.43034317  0.09716237  0.96631467  1
  O2-  O495  1  0.41857336  0.34368065  0.30986227  1
  O2-  O496  1  0.43923690  0.36287319  0.63794121  1
  O2-  O497  1  0.37503204  0.29742909  0.96683299  1
  O2-  O498  1  0.41025185  0.58994731  0.31199739  1
  O2-  O499  1  0.41551192  0.59424041  0.65080715  1
  O2-  O500  1  0.42121215  0.58489963  0.97920086  1
  O2-  O501  1  0.39725767  0.85058721  0.32511419  1
  O2-  O502  1  0.42861758  0.84816910  0.64881521  1
  O2-  O503  1  0.41862133  0.83477723  0.98531441  1
  O2-  O504  1  0.66123163  0.08625035  0.30980746  1
  O2-  O505  1  0.66412237  0.07488508  0.64573546  1
  O2-  O506  1  0.65661571  0.08727820  0.99605402  1
  O2-  O507  1  0.66848973  0.33741451  0.31057787  1
  O2-  O508  1  0.65423379  0.30944153  0.64845804  1
  O2-  O509  1  0.65856358  0.34030850  0.97722300  1
  O2-  O510  1  0.67741208  0.56416348  0.31128999  1
  O2-  O511  1  0.65866996  0.57899939  0.64582959  1
  O2-  O512  1  0.67615891  0.59438534  0.98729450  1
  O2-  O513  1  0.68155791  0.87741494  0.29971683  1
  O2-  O514  1  0.68618716  0.82506788  0.65682747  1
  O2-  O515  1  0.66415590  0.83688912  0.97960375  1
  O2-  O516  1  0.95463652  0.16572811  0.29438311  1
  O2-  O517  1  0.84241422  0.03802949  0.62191704  1
  O2-  O518  1  0.90748435  0.07288440  0.97476143  1
  O2-  O519  1  0.92060536  0.33117489  0.30809127  1
  O2-  O520  1  0.88977634  0.30607029  0.64514822  1
  O2-  O521  1  0.91990582  0.31989152  0.97983853  1
  O2-  O522  1  0.92739502  0.58689801  0.29867769  1
  O2-  O523  1  0.83029585  0.52858258  0.61584442  1
  O2-  O524  1  0.91182087  0.60948356  0.96353226  1
  O2-  O525  1  0.92592391  0.81939181  0.30378892  1
  O2-  O526  1  0.91288154  0.83110372  0.67398487  1
  O2-  O527  1  0.90190227  0.80741323  0.96711062  1
  O2-  O528  1  0.07028499  0.14312343  0.02293577  1
  O2-  O529  1  0.09542947  0.17388690  0.35254607  1
  O2-  O530  1  0.17264264  0.19306915  0.70210886  1
  O2-  O531  1  0.06923330  0.41271245  0.01577735  1
  O2-  O532  1  0.06904772  0.38661865  0.36020959  1
  O2-  O533  1  0.05726099  0.43488236  0.66930469  1
  O2-  O534  1  0.11601661  0.68511422  0.07154859  1
  O2-  O535  1  0.08456183  0.65472177  0.34718050  1
  O2-  O536  1  0.12920115  0.70280442  0.70529052  1
  O2-  O537  1  0.05970511  0.88326913  -0.00463930  1
  O2-  O538  1  0.08756268  0.91929811  0.34907597  1
  O2-  O539  1  0.09815087  0.90152483  0.68827922  1
  O2-  O540  1  0.33032428  0.15541152  0.02845763  1
  O2-  O541  1  0.33599268  0.17664737  0.35225323  1
  O2-  O542  1  0.30872294  0.13279406  0.68836083  1
  O2-  O543  1  0.33957466  0.41705690  0.02348928  1
  O2-  O544  1  0.33177707  0.42510599  0.35412705  1
  O2-  O545  1  0.34285675  0.42930165  0.68956783  1
  O2-  O546  1  0.33709875  0.66569592  0.02066989  1
  O2-  O547  1  0.33098570  0.67379947  0.35293441  1
  O2-  O548  1  0.35451275  0.69235818  0.69747983  1
  O2-  O549  1  0.30716770  0.87106446  0.05678357  1
  O2-  O550  1  0.35596020  0.90062799  0.34334306  1
  O2-  O551  1  0.34757052  0.93466654  0.68329009  1
  O2-  O552  1  0.58578274  0.18315893  0.02562515  1
  O2-  O553  1  0.58430646  0.17444738  0.34601372  1
  O2-  O554  1  0.59754016  0.15617715  0.69879940  1
  O2-  O555  1  0.60280284  0.43589847  0.02458743  1
  O2-  O556  1  0.58863276  0.41732157  0.35495568  1
  O2-  O557  1  0.59536931  0.41863262  0.69264500  1
  O2-  O558  1  0.58745461  0.66988243  0.01915914  1
  O2-  O559  1  0.59376848  0.65368433  0.31670944  1
  O2-  O560  1  0.58141370  0.66292925  0.68796351  1
  O2-  O561  1  0.58227223  0.91373434  0.03418892  1
  O2-  O562  1  0.57102722  0.91651221  0.35201408  1
  O2-  O563  1  0.57939575  0.92518620  0.69903065  1
  O2-  O564  1  0.84109349  0.16853546  0.01787200  1
  O2-  O565  1  0.82834798  0.17195845  0.34803543  1
  O2-  O566  1  0.82192729  0.15017977  0.68998321  1
  O2-  O567  1  0.81852555  0.43477387  0.01244597  1
  O2-  O568  1  0.87159577  0.42847146  0.36053011  1
  O2-  O569  1  0.81807224  0.39948809  0.68862878  1
  O2-  O570  1  0.85551559  0.72050950  -0.00644421  1
  O2-  O571  1  0.83490648  0.65207576  0.34303283  1
  O2-  O572  1  0.81885255  0.65952634  0.68536027  1
  O2-  O573  1  0.83411210  0.91350095  0.01088358  1
  O2-  O574  1  0.80160646  0.85151405  0.35478504  1
  O2-  O575  1  0.83268453  0.90498262  0.69811469  1
