# generated using pymatgen
data_H2O
_symmetry_space_group_name_H-M   'P 1'
_cell_length_a   17.99413801
_cell_length_b   17.98576649
_cell_length_c   21.99894409
_cell_angle_alpha   89.96229029
_cell_angle_beta   90.02061094
_cell_angle_gamma   120.00264748
_symmetry_Int_Tables_number   1
_chemical_formula_structural   H2O
_chemical_formula_sum   'H384 O192'
_cell_volume   6165.67720836
_cell_formula_units_Z   192
loop_
 _symmetry_equiv_pos_site_id
 _symmetry_equiv_pos_as_xyz
  1  'x, y, z'
loop_
 _atom_type_symbol
 _atom_type_oxidation_number
  H+  1.0
  O2-  -2.0
loop_
 _atom_site_type_symbol
 _atom_site_label
 _atom_site_symmetry_multiplicity
 _atom_site_fract_x
 _atom_site_fract_y
 _atom_site_fract_z
 _atom_site_occupancy
  H+  H0  1  -0.03615080  0.07737212  0.17250080  1
  H+  H1  1  0.17237776  0.09025874  0.89511597  1
  H+  H2  1  0.62140835  0.73092278  0.67197713  1
  H+  H3  1  0.42258829  0.57513111  0.21615829  1
  H+  H4  1  0.15655745  0.29067078  0.84447954  1
  H+  H5  1  0.12908456  0.49859589  0.34220809  1
  H+  H6  1  0.39130354  0.77933552  0.33260362  1
  H+  H7  1  0.88383448  0.52249207  0.66318370  1
  H+  H8  1  0.07856723  0.91881783  0.39274650  1
  H+  H9  1  0.27679609  0.64739376  0.16251268  1
  H+  H10  1  0.36005626  0.13099936  0.49942599  1
  H+  H11  1  0.10589122  0.73234013  1.00322721  1
  H+  H12  1  -0.00621158  0.36009024  0.32869509  1
  H+  H13  1  0.13420931  0.25640874  0.32880636  1
  H+  H14  1  0.89219148  0.01488457  0.33379987  1
  H+  H15  1  0.62758416  0.22383128  0.33987643  1
  H+  H16  1  0.08630612  0.44191680  0.76251510  1
  H+  H17  1  0.21923747  0.85549862  0.16357783  1
  H+  H18  1  0.52442527  0.88794155  0.82833554  1
  H+  H19  1  0.42502453  0.88207766  0.64466790  1
  H+  H20  1  0.13725898  0.35408851  0.17152646  1
  H+  H21  1  0.41915660  0.58739182  0.89380235  1
  H+  H22  1  0.97197891  0.87468883  0.32260998  1
  H+  H23  1  0.48051798  0.62860488  -0.01105890  1
  H+  H24  1  0.72517839  0.10831524  0.65948638  1
  H+  H25  1  0.87639583  0.12840341  0.16141050  1
  H+  H26  1  0.63981107  0.21168116  0.80902604  1
  H+  H27  1  0.64254534  0.02115401  0.99355731  1
  H+  H28  1  0.88065401  0.22138338  0.16286625  1
  H+  H29  1  0.90070672  0.10714409  0.33035526  1
  H+  H30  1  0.47421008  0.12289987  0.50226989  1
  H+  H31  1  0.50762504  0.43257819  0.13571027  1
  H+  H32  1  0.85650933  -0.03225609  0.67908349  1
  H+  H33  1  0.88182083  0.28608295  0.64306355  1
  H+  H34  1  0.77980058  0.62742404  0.15871832  1
  H+  H35  1  0.47617949  0.36879225  0.82972248  1
  H+  H36  1  0.11797931  0.39067362  0.83403622  1
  H+  H37  1  0.83506301  0.41545000  0.73595321  1
  H+  H38  1  0.70492001  0.84263137  0.84438205  1
  H+  H39  1  0.84922549  0.87740306  0.35436542  1
  H+  H40  1  0.10011694  0.72258747  0.33712521  1
  H+  H41  1  0.35928694  -0.04411783  0.15029240  1
  H+  H42  1  0.22904727  0.11599581  0.98633617  1
  H+  H43  1  0.71679158  0.85291625  0.33858859  1
  H+  H44  1  0.34732815  0.42435953  0.06278411  1
  H+  H45  1  0.02652465  0.63900507  0.49698370  1
  H+  H46  1  0.36067718  0.48400167  0.15034340  1
  H+  H47  1  0.45095391  -0.03155317  0.20664532  1
  H+  H48  1  0.14670749  0.81853099  0.26202377  1
  H+  H49  1  0.32574477  0.86518599  0.69775669  1
  H+  H50  1  0.27251064  0.65251691  0.33731351  1
  H+  H51  1  0.51194515  0.62930672  0.81929504  1
  H+  H52  1  0.11223322  0.89028462  0.67448264  1
  H+  H53  1  0.62027910  0.28713383  0.86371710  1
  H+  H54  1  0.88238908  0.36222472  0.99708075  1
  H+  H55  1  0.27787724  0.88659503  0.50034567  1
  H+  H56  1  0.46398628  0.34882139  0.65298173  1
  H+  H57  1  0.53201179  0.37962331  0.34950001  1
  H+  H58  1  0.12092342  0.97704376  0.15706935  1
  H+  H59  1  1.00989833  0.36811083  0.16852869  1
  H+  H60  1  0.79307277  0.13131456  0.34444038  1
  H+  H61  1  0.85614612  0.71885859  0.33947286  1
  H+  H62  1  0.73105674  0.10968748  0.99506188  1
  H+  H63  1  0.11549729  0.64028757  0.49828760  1
  H+  H64  1  0.88378309  0.61179110  0.66005332  1
  H+  H65  1  0.89814964  0.60515066  0.16379947  1
  H+  H66  1  0.88677361  0.84911952  0.98466186  1
  H+  H67  1  0.48735655  0.11272559  0.32513183  1
  H+  H68  1  0.63236724  0.40552713  0.14751151  1
  H+  H69  1  0.17488885  0.45553732  0.37643214  1
  H+  H70  1  0.37953487  1.01572094  0.66729027  1
  H+  H71  1  0.34751566  0.92567942  0.40668280  1
  H+  H72  1  0.64138581  0.09975315  0.83716428  1
  H+  H73  1  0.23532119  0.11050067  0.33009623  1
  H+  H74  1  0.66414868  0.58455518  0.22823514  1
  H+  H75  1  0.05226801  0.16936212  0.83391259  1
  H+  H76  1  0.54044405  0.10496009  0.16825138  1
  H+  H77  1  0.38890628  0.52331522  0.83581344  1
  H+  H78  1  0.22014132  0.10285002  0.64443529  1
  H+  H79  1  0.72591429  0.85323089  0.66321093  1
  H+  H80  1  0.60972499  0.48154325  0.50136337  1
  H+  H81  1  0.63673597  0.53304844  0.83484905  1
  H+  H82  1  0.18456934  0.84547500  1.03715359  1
  H+  H83  1  0.62028864  0.14146650  0.00754737  1
  H+  H84  1  0.85369295  -0.01392433  0.48684983  1
  H+  H85  1  0.86717707  0.76772419  0.51276902  1
  H+  H86  1  0.97438337  0.61846417  0.99556625  1
  H+  H87  1  0.11120894  -0.02170102  0.33387042  1
  H+  H88  1  0.03568654  0.12998454  0.34690383  1
  H+  H89  1  0.14053415  0.02444132  0.98783613  1
  H+  H90  1  0.85960356  0.62983595  0.49261076  1
  H+  H91  1  1.03953363  0.33904485  0.65964972  1
  H+  H92  1  0.52068319  0.12662637  0.67123629  1
  H+  H93  1  0.76640045  0.89442784  0.49914465  1
  H+  H94  1  0.09240221  0.41573102  -0.04613398  1
  H+  H95  1  0.77220510  0.63563513  0.82007807  1
  H+  H96  1  0.61739912  0.46965439  0.34355696  1
  H+  H97  1  0.12747410  0.51987395  0.51253523  1
  H+  H98  1  0.12101993  0.89794973  0.48737239  1
  H+  H99  1  0.82179121  0.89323087  -0.07445605  1
  H+  H100  1  0.12036412  0.26268396  0.49555805  1
  H+  H101  1  0.26497123  0.37084825  0.34249779  1
  H+  H102  1  0.96562009  0.60711641  0.34148300  1
  H+  H103  1  0.53187857  0.39937770  0.98649734  1
  H+  H104  1  0.36849707  0.72188077  0.66573888  1
  H+  H105  1  0.88075716  0.51649430  0.34731440  1
  H+  H106  1  0.59501060  0.38164775  0.16925223  1
  H+  H107  1  0.36146066  -0.01174761  0.83362964  1
  H+  H108  1  0.65145636  1.02366484  0.33013266  1
  H+  H109  1  0.86593511  0.95710779  0.20366983  1
  H+  H110  1  0.86810438  0.85790789  0.51476652  1
  H+  H111  1  0.63851503  0.54047414  -0.01744862  1
  H+  H112  1  0.23586973  0.12444511  0.83576213  1
  H+  H113  1  0.89455556  0.86799143  0.27884759  1
  H+  H114  1  0.46193159  0.44743462  0.23373852  1
  H+  H115  1  0.91784014  0.57795487  0.56655385  1
  H+  H116  1  0.77845261  0.39326763  0.01549429  1
  H+  H117  1  0.24602437  0.39038586  0.68034051  1
  H+  H118  1  0.37016615  0.49268920  0.56726905  1
  H+  H119  1  0.12244979  0.77454068  0.66794879  1
  H+  H120  1  0.84346260  0.28068250  0.21162408  1
  H+  H121  1  0.08610099  0.37478245  0.49458163  1
  H+  H122  1  0.86866125  0.87034100  0.18948606  1
  H+  H123  1  0.63996523  0.01529413  0.66577398  1
  H+  H124  1  0.63758204  0.97828482  0.16119515  1
  H+  H125  1  0.59967998  0.72039254  0.82177635  1
  H+  H126  1  0.60658126  0.86913866  0.00830198  1
  H+  H127  1  0.33945335  0.46759736  0.66898286  1
  H+  H128  1  1.02301142  0.38173989  0.83565646  1
  H+  H129  1  0.36224204  0.22987564  0.82097807  1
  H+  H130  1  0.37094120  0.09482786  0.15173914  1
  H+  H131  1  0.12543676  0.12634552  0.50596421  1
  H+  H132  1  0.77703276  0.38488216  0.83374586  1
  H+  H133  1  0.20090018  0.36319476  0.50000413  1
  H+  H134  1  0.87042158  0.71058639  0.15263322  1
  H+  H135  1  0.38817300  0.85802995  0.50834921  1
  H+  H136  1  0.13023834  0.34341586  0.32097535  1
  H+  H137  1  0.36078649  0.64422926  0.00855847  1
  H+  H138  1  0.48340555  0.11648747  0.83694700  1
  H+  H139  1  0.10690447  0.12442385  0.67491417  1
  H+  H140  1  0.35687360  0.22027146  0.64358160  1
  H+  H141  1  0.24306426  0.62148344  0.66026593  1
  H+  H142  1  0.88682972  0.26944186  0.84072864  1
  H+  H143  1  0.65103762  0.86452290  0.18077640  1
  H+  H144  1  0.12668161  0.25864856  0.65126765  1
  H+  H145  1  0.83257810  0.96006556  0.82788869  1
  H+  H146  1  0.59739846  0.51526549  0.13460510  1
  H+  H147  1  0.39740315  0.12782717  -0.00832559  1
  H+  H148  1  0.97483584  0.10635212  0.66574708  1
  H+  H149  1  0.27207252  0.39117420  0.15626786  1
  H+  H150  1  0.12758669  -0.00271361  0.82145303  1
  H+  H151  1  0.97266204  0.36595679  0.99355856  1
  H+  H152  1  0.86689733  0.72693314  -0.01121818  1
  H+  H153  1  0.52633390  0.88340740  0.00846577  1
  H+  H154  1  0.56952367  0.17652384  0.43018331  1
  H+  H155  1  0.88075137  0.01853254  0.98215146  1
  H+  H156  1  0.21150569  0.86243617  0.67220892  1
  H+  H157  1  0.13440595  0.62312659  0.99481251  1
  H+  H158  1  0.61322209  0.88410566  0.34429217  1
  H+  H159  1  0.88681862  0.52550722  0.00001299  1
  H+  H160  1  0.16272414  0.83528565  0.56706036  1
  H+  H161  1  0.85740229  0.87865486  0.67759949  1
  H+  H162  1  0.13493547  0.61159705  0.16648206  1
  H+  H163  1  0.34356991  0.09215313  0.12510915  1
  H+  H164  1  0.12070302  0.88971139  0.00470282  1
  H+  H165  1  0.39448027  0.87142529  0.99116660  1
  H+  H166  1  0.01285943  0.65206609  0.83669698  1
  H+  H167  1  1.02557335  0.13506619  0.99923259  1
  H+  H168  1  0.63794467  0.35662737  0.65037507  1
  H+  H169  1  0.64705948  0.63048533  0.17147481  1
  H+  H170  1  0.63722340  0.85385461  0.66530951  1
  H+  H171  1  0.47810815  0.62100447  0.15784494  1
  H+  H172  1  0.11570466  0.85131151  0.31885431  1
  H+  H173  1  0.85887266  0.72093741  0.67247027  1
  H+  H174  1  0.86581067  0.22366946  1.00828794  1
  H+  H175  1  0.02870073  0.63214752  0.15021568  1
  H+  H176  1  0.76111005  0.34061292  0.51478449  1
  H+  H177  1  0.27042381  0.90021489  0.84149410  1
  H+  H178  1  0.61885942  0.84742176  0.84429946  1
  H+  H179  1  0.63178500  0.60306683  0.32543936  1
  H+  H180  1  0.62059097  0.96762270  0.82741670  1
  H+  H181  1  0.27069430  0.64023470  0.81649722  1
  H+  H182  1  0.58216095  0.41115867  0.59251975  1
  H+  H183  1  0.13302575  0.52202356  0.17353213  1
  H+  H184  1  0.77113877  0.38571241  0.67845988  1
  H+  H185  1  0.36803793  -0.01345662  0.99208603  1
  H+  H186  1  0.08024205  0.66807195  0.06066689  1
  H+  H187  1  0.39857122  0.02435776  0.33328594  1
  H+  H188  1  0.61059361  0.12629732  0.66936220  1
  H+  H189  1  0.15618826  0.62973671  0.65689791  1
  H+  H190  1  0.13218895  0.79437321  0.85707797  1
  H+  H191  1  0.73271575  0.85285114  0.20018924  1
  H+  H192  1  0.29445787  0.26438312  0.12731755  1
  H+  H193  1  0.37046580  0.12927499  0.34296176  1
  H+  H194  1  0.59957515  0.91571771  0.10287450  1
  H+  H195  1  0.47056373  0.36526611  0.50724687  1
  H+  H196  1  0.90130499  0.51482705  0.51092607  1
  H+  H197  1  0.69390510  0.10642831  0.51071938  1
  H+  H198  1  0.88897708  0.51952745  0.84266650  1
  H+  H199  1  0.38971618  0.78010794  0.99546757  1
  H+  H200  1  0.72876266  0.61435357  0.66605198  1
  H+  H201  1  0.39175589  0.39691007  0.18622136  1
  H+  H202  1  0.36791703  0.23697654  0.99204492  1
  H+  H203  1  0.86632602  0.13781887  0.81663953  1
  H+  H204  1  0.13178202  0.15152043  0.82962893  1
  H+  H205  1  0.36615524  0.64990149  0.15969372  1
  H+  H206  1  0.02883747  0.14686621  0.48207994  1
  H+  H207  1  0.05714025  0.39387912  0.68555510  1
  H+  H208  1  0.88337185  0.37760000  0.16308060  1
  H+  H209  1  0.87714181  0.37267877  0.65231871  1
  H+  H210  1  0.28310263  0.39798583  0.83125266  1
  H+  H211  1  0.28700161  0.39349848  1.00541210  1
  H+  H212  1  0.52788363  0.89142833  0.34210651  1
  H+  H213  1  0.63961883  0.37473219  0.00166589  1
  H+  H214  1  0.76644124  0.63530726  -0.01357427  1
  H+  H215  1  0.39638906  0.87978810  0.84380436  1
  H+  H216  1  0.89400835  0.86930116  0.83895393  1
  H+  H217  1  0.60272977  0.71566487  0.34063209  1
  H+  H218  1  0.36787816  -0.02485616  0.50085722  1
  H+  H219  1  0.93699215  0.81134463  0.22251228  1
  H+  H220  1  0.14249454  0.27136809  0.00065909  1
  H+  H221  1  0.62283721  0.39965629  0.83269288  1
  H+  H222  1  0.27766708  0.89614476  -0.00940214  1
  H+  H223  1  0.32433202  0.41225676  0.40222395  1
  H+  H224  1  0.89824666  0.82529781  0.60240938  1
  H+  H225  1  0.22596352  0.12514382  0.17368510  1
  H+  H226  1  0.13813906  0.77630519  0.50818196  1
  H+  H227  1  0.86694820  0.14350372  0.66664569  1
  H+  H228  1  0.65966979  0.10708762  0.17269098  1
  H+  H229  1  0.87618185  0.37664147  0.34928627  1
  H+  H230  1  0.63391117  0.86552058  0.50580137  1
  H+  H231  1  0.73048743  0.61536543  0.51058457  1
  H+  H232  1  0.32734555  0.15348301  0.59020082  1
  H+  H233  1  0.35937167  0.71710408  0.49151153  1
  H+  H234  1  0.26952272  0.63198211  0.49149827  1
  H+  H235  1  0.75122884  0.11115290  0.17230510  1
  H+  H236  1  0.39738820  0.49291006  0.47475353  1
  H+  H237  1  -0.00957819  0.85750890  0.16319856  1
  H+  H238  1  0.60974322  0.22902431  0.49097293  1
  H+  H239  1  0.85242099  0.39975456  0.41426278  1
  H+  H240  1  0.11420995  0.13445269  -0.00138648  1
  H+  H241  1  0.53493470  0.88000457  0.67105005  1
  H+  H242  1  0.95075443  0.05430527  0.84031897  1
  H+  H243  1  0.82760643  0.66080261  0.43491633  1
  H+  H244  1  0.12205094  -0.00463662  0.66392437  1
  H+  H245  1  0.22540295  0.62484073  0.99861267  1
  H+  H246  1  0.86375388  0.38030900  0.83159675  1
  H+  H247  1  0.64026634  0.28389349  0.00478598  1
  H+  H248  1  0.85604701  0.62891879  0.34611066  1
  H+  H249  1  0.12466906  0.90670123  0.82794079  1
  H+  H250  1  0.38378193  0.35195754  0.34257419  1
  H+  H251  1  0.65391345  0.36247462  0.33514886  1
  H+  H252  1  0.09564471  0.17058198  0.40823598  1
  H+  H253  1  1.03060007  0.89114131  1.00358344  1
  H+  H254  1  0.61931298  0.73628778  0.15966436  1
  H+  H255  1  0.65990007  0.33798477  0.18604999  1
  H+  H256  1  0.88808904  0.11155362  0.43044653  1
  H+  H257  1  0.11056451  -0.01934098  0.48744304  1
  H+  H258  1  0.33362062  0.65927681  0.72373428  1
  H+  H259  1  0.14782063  0.36323958  1.00398723  1
  H+  H260  1  0.62195805  0.63534860  0.67372429  1
  H+  H261  1  0.35390260  0.62959611  0.81679261  1
  H+  H262  1  0.63633610  0.26721467  0.66496962  1
  H+  H263  1  0.76150414  0.86077708  -0.01830517  1
  H+  H264  1  0.40184803  0.80232159  0.17718148  1
  H+  H265  1  0.85601883  0.62640970  0.82302393  1
  H+  H266  1  0.79677783  0.37908300  0.16508542  1
  H+  H267  1  0.62775228  0.13505397  0.34036630  1
  H+  H268  1  0.39457367  0.49466509  0.30907921  1
  H+  H269  1  0.63225191  0.61958113  0.83076524  1
  H+  H270  1  0.01115466  0.63013763  0.67480286  1
  H+  H271  1  0.86055743  0.62754006  -0.00652616  1
  H+  H272  1  0.39702606  0.53516685  0.99317604  1
  H+  H273  1  0.14948612  0.11773062  0.33121246  1
  H+  H274  1  0.39585498  0.37186890  0.98390459  1
  H+  H275  1  0.36416303  0.14285888  0.82567214  1
  H+  H276  1  0.14481825  0.64803425  0.84313812  1
  H+  H277  1  0.81719212  0.18128965  0.56714321  1
  H+  H278  1  0.37865404  0.89790987  0.34779754  1
  H+  H279  1  0.36508940  0.25144490  0.15666969  1
  H+  H280  1  0.60050683  -0.02994996  0.49459174  1
  H+  H281  1  0.12522153  0.61498870  0.32644729  1
  H+  H282  1  0.50047007  0.87402076  0.17909262  1
  H+  H283  1  0.90672145  0.52090714  0.16617098  1
  H+  H284  1  0.38163400  0.27492265  0.50438017  1
  H+  H285  1  0.99074254  0.88671168  0.83674179  1
  H+  H286  1  0.09071509  0.08849808  0.15347905  1
  H+  H287  1  0.13114098  0.85478621  0.16519555  1
  H+  H288  1  0.57653079  0.44605511  0.04760069  1
  H+  H289  1  0.58588630  0.41408452  0.44825544  1
  H+  H290  1  0.84032838  0.23953285  0.50985891  1
  H+  H291  1  0.66828716  0.59919088  0.92273663  1
  H+  H292  1  0.43208028  0.83070513  0.58908702  1
  H+  H293  1  0.07451794  0.62511583  0.72341730  1
  H+  H294  1  0.39592691  0.57639775  0.60333694  1
  H+  H295  1  0.17216191  0.32333876  0.22608795  1
  H+  H296  1  0.33369613  0.67603894  0.06882834  1
  H+  H297  1  0.09439571  0.93353215  0.73590433  1
  H+  H298  1  0.06869156  0.70452678  0.77985676  1
  H+  H299  1  0.11819853  0.49231821  -0.00265013  1
  H+  H300  1  0.58197240  0.66471945  0.73492356  1
  H+  H301  1  0.48583561  0.58017192  0.30559112  1
  H+  H302  1  0.07268636  0.42240833  0.43713846  1
  H+  H303  1  0.62207396  0.20250022  0.17138846  1
  H+  H304  1  0.47712768  0.85683937  0.50120191  1
  H+  H305  1  0.43705349  0.04018662  0.24024371  1
  H+  H306  1  0.59172279  0.16358911  0.06999163  1
  H+  H307  1  0.38772420  0.37072789  0.82817625  1
  H+  H308  1  0.91173806  0.07710012  0.89813475  1
  H+  H309  1  0.84398844  0.16291711  0.06691792  1
  H+  H310  1  0.74249579  0.35996625  0.34155197  1
  H+  H311  1  0.42969853  0.09789307  0.89884084  1
  H+  H312  1  0.69604137  0.31275091  0.57081991  1
  H+  H313  1  0.15012572  0.31928267  0.59258623  1
  H+  H314  1  0.58347337  0.14951014  0.75746237  1
  H+  H315  1  0.15637081  0.58506084  0.26606063  1
  H+  H316  1  0.14791344  0.07408277  0.59126205  1
  H+  H317  1  0.67506068  0.07871599  0.89882119  1
  H+  H318  1  0.97161912  0.38589130  0.49824896  1
  H+  H319  1  0.83137031  0.65868957  0.73148400  1
  H+  H320  1  0.92947712  0.83166234  0.92881424  1
  H+  H321  1  0.06209889  0.39777946  0.10770259  1
  H+  H322  1  0.65897712  0.82350862  0.27814494  1
  H+  H323  1  0.41902693  0.33511000  0.28236094  1
  H+  H324  1  0.16787903  0.85425266  0.91532850  1
  H+  H325  1  0.08750235  0.16501184  0.73386683  1
  H+  H326  1  0.87170886  0.12738159  0.49604677  1
  H+  H327  1  0.67263100  0.59269306  0.60495996  1
  H+  H328  1  0.92328448  0.07584185  0.23922794  1
  H+  H329  1  0.61493281  0.47618823  0.64677729  1
  H+  H330  1  0.81351297  0.89957261  0.77077251  1
  H+  H331  1  0.08377004  0.66978889  0.40012283  1
  H+  H332  1  0.64092265  0.06475620  0.56890183  1
  H+  H333  1  0.32527519  0.42701463  0.76522546  1
  H+  H334  1  0.42391267  0.08028808  0.56576419  1
  H+  H335  1  0.32909315  0.67124634  0.39680009  1
  H+  H336  1  0.72210192  0.60649203  0.32570768  1
  H+  H337  1  0.66307373  0.83244230  0.56364280  1
  H+  H338  1  0.81046307  0.93076049  0.08442854  1
  H+  H339  1  0.77817256  0.88357304  0.08628850  1
  H+  H340  1  0.31497709  0.91824854  0.75062296  1
  H+  H341  1  0.06157252  0.12019191  0.09458091  1
  H+  H342  1  0.21172525  0.11671386  0.51024317  1
  H+  H343  1  0.40168906  0.33079028  0.59904537  1
  H+  H344  1  0.63294941  0.67409491  -0.00956712  1
  H+  H345  1  0.68880453  0.08249432  0.27091708  1
  H+  H346  1  0.41810522  0.34026876  0.92108534  1
  H+  H347  1  0.32531308  0.91726540  0.08409997  1
  H+  H348  1  0.55404763  0.64232071  0.39054666  1
  H+  H349  1  0.93048226  0.32492148  0.27041010  1
  H+  H350  1  0.17275481  0.60942055  0.89688234  1
  H+  H351  1  0.59990970  0.42149750  0.76790325  1
  H+  H352  1  0.64067491  0.61525692  0.51824405  1
  H+  H353  1  0.84503954  0.41687717  0.07121548  1
  H+  H354  1  0.59852707  0.69164579  0.09397968  1
  H+  H355  1  0.69004179  0.31721587  0.24739105  1
  H+  H356  1  0.11697573  0.72341216  0.15203981  1
  H+  H357  1  0.82145441  0.91297632  0.41136328  1
  H+  H358  1  0.88326720  0.21874443  0.34516562  1
  H+  H359  1  0.36857968  0.39746549  0.49521953  1
  H+  H360  1  0.83736676  0.17788145  0.72223350  1
  H+  H361  1  0.17488114  0.08378357  0.23610358  1
  H+  H362  1  0.09181514  0.92472580  0.09362280  1
  H+  H363  1  0.91142463  0.32559975  0.90276499  1
  H+  H364  1  0.96573179  0.85977375  0.65891765  1
  H+  H365  1  0.88455364  0.10970499  0.99067978  1
  H+  H366  1  0.33318821  0.18746699  0.05413978  1
  H+  H367  1  0.38318190  0.10441432  0.65148946  1
  H+  H368  1  0.67280567  0.34967587  0.91619430  1
  H+  H369  1  0.16750642  0.58044345  0.57048794  1
  H+  H370  1  0.58682021  0.90732954  0.73518835  1
  H+  H371  1  0.36819404  0.21690886  0.34718022  1
  H+  H372  1  0.42894567  0.84878881  0.90064544  1
  H+  H373  1  0.91745287  0.07457943  0.60640239  1
  H+  H374  1  0.77733272  0.13495007  0.82168280  1
  H+  H375  1  0.48569682  0.12505466  0.99560918  1
  H+  H376  1  0.12292442  0.50799234  0.69301388  1
  H+  H377  1  0.90479321  0.35836558  0.56403704  1
  H+  H378  1  0.58101314  0.91469835  0.43292194  1
  H+  H379  1  0.91089269  0.57785766  0.90263264  1
  H+  H380  1  0.17866905  0.34228406  0.90740715  1
  H+  H381  1  0.43019131  0.84319625  0.27484680  1
  H+  H382  1  0.32993717  0.15860204  0.44069769  1
  H+  H383  1  0.63443674  0.78712963  0.93625999  1
  O2-  O384  1  0.04056997  0.08371018  0.13116429  1
  O2-  O385  1  0.09126566  0.17685107  0.47579926  1
  O2-  O386  1  0.10647882  0.18751334  0.81293394  1
  O2-  O387  1  0.06896101  0.40089647  0.15176944  1
  O2-  O388  1  0.05951759  0.41106787  0.48154558  1
  O2-  O389  1  0.08332651  0.41732864  0.82119778  1
  O2-  O390  1  0.09086662  0.66406557  0.13424673  1
  O2-  O391  1  0.08745328  0.67255848  0.48301405  1
  O2-  O392  1  0.07283044  0.69547924  0.82332610  1
  O2-  O393  1  0.08946003  0.91838638  0.13908456  1
  O2-  O394  1  0.09045953  0.92450215  0.46790277  1
  O2-  O395  1  0.09835781  0.93632697  0.80525837  1
  O2-  O396  1  0.31371548  0.22257156  0.13137466  1
  O2-  O397  1  0.32894057  0.16178037  0.48618857  1
  O2-  O398  1  0.32950604  0.16775214  0.81046086  1
  O2-  O399  1  0.33357452  0.42109844  0.14042987  1
  O2-  O400  1  0.34609017  0.43632954  0.48255884  1
  O2-  O401  1  0.33972737  0.42441538  0.81041767  1
  O2-  O402  1  0.33652255  0.68171441  0.14678357  1
  O2-  O403  1  0.32759450  0.65883761  0.47357953  1
  O2-  O404  1  0.32554241  0.65664508  0.79518565  1
  O2-  O405  1  0.31190302  0.90796099  0.12804640  1
  O2-  O406  1  0.33925026  0.91363336  0.48783481  1
  O2-  O407  1  0.32723189  0.92682280  0.82017374  1
  O2-  O408  1  0.59596280  0.14765616  0.14821910  1
  O2-  O409  1  0.55470132  0.19393260  0.46889792  1
  O2-  O410  1  0.59135082  0.15381051  0.80382543  1
  O2-  O411  1  0.54980727  0.47476145  0.10734445  1
  O2-  O412  1  0.57572675  0.41923491  0.49199995  1
  O2-  O413  1  0.59231374  0.42583781  0.81139370  1
  O2-  O414  1  0.58981084  0.67932922  0.13783752  1
  O2-  O415  1  0.54941456  0.63558604  0.51287124  1
  O2-  O416  1  0.57358011  0.66169779  0.80257570  1
  O2-  O417  1  0.60363435  0.91654728  0.14805596  1
  O2-  O418  1  0.57589856  0.90960289  0.47844292  1
  O2-  O419  1  0.58525157  0.90756673  0.81250761  1
  O2-  O420  1  0.85141683  0.16220684  0.14283106  1
  O2-  O421  1  0.81726182  0.17941232  0.52287219  1
  O2-  O422  1  0.83675234  0.16912116  0.80417255  1
  O2-  O423  1  0.85391930  0.40900866  0.14551008  1
  O2-  O424  1  0.86615723  0.40766451  0.49065281  1
  O2-  O425  1  0.83520362  0.41245432  0.81597722  1
  O2-  O426  1  0.83803968  0.64891810  0.14198293  1
  O2-  O427  1  0.82779656  0.65939969  0.48060552  1
  O2-  O428  1  0.83016035  0.65721185  0.80260706  1
  O2-  O429  1  0.83922768  0.89439747  0.21405476  1
  O2-  O430  1  0.82843196  0.92282513  0.48415486  1
  O2-  O431  1  0.80970778  0.89923442  0.81654447  1
  O2-  O432  1  0.17152960  0.07927905  0.19042483  1
  O2-  O433  1  0.15199120  0.09022362  0.52542639  1
  O2-  O434  1  0.17266053  0.09474189  0.84945203  1
  O2-  O435  1  0.17600240  0.33154539  0.18137040  1
  O2-  O436  1  0.14094939  0.32709705  0.51228620  1
  O2-  O437  1  0.17912825  0.34892066  0.86235192  1
  O2-  O438  1  0.16439950  0.58260876  0.18667579  1
  O2-  O439  1  0.16153074  0.58061395  0.52535110  1
  O2-  O440  1  0.17480801  0.61631079  0.85226345  1
  O2-  O441  1  0.15937988  0.82299144  0.18064500  1
  O2-  O442  1  0.16964241  0.83752851  0.52258901  1
  O2-  O443  1  0.16760930  0.85564497  0.87004671  1
  O2-  O444  1  0.45009229  0.02235004  0.20007958  1
  O2-  O445  1  0.41550149  0.08147056  0.52146153  1
  O2-  O446  1  0.42476540  0.09318023  0.85336260  1
  O2-  O447  1  0.43763085  0.39334017  0.21040573  1
  O2-  O448  1  0.40823368  0.33509108  0.51943926  1
  O2-  O449  1  0.41618952  0.33816686  0.84419839  1
  O2-  O450  1  0.41764468  0.58943939  0.17274832  1
  O2-  O451  1  0.49924946  0.60155179  0.46736308  1
  O2-  O452  1  0.42029854  0.58571575  0.84868152  1
  O2-  O453  1  0.44317230  0.85702110  0.19689699  1
  O2-  O454  1  0.41819969  0.82597829  0.52080327  1
  O2-  O455  1  0.43441719  0.85763976  0.85589016  1
  O2-  O456  1  0.69129304  0.07903882  0.18944431  1
  O2-  O457  1  0.63556414  0.06475724  0.52412599  1
  O2-  O458  1  0.67696668  0.07605464  0.85327733  1
  O2-  O459  1  0.68915655  0.30843630  0.20179746  1
  O2-  O460  1  0.70520215  0.29392861  0.53091531  1
  O2-  O461  1  0.66730466  0.34562786  0.86991536  1
  O2-  O462  1  0.66917956  0.59170073  0.18312769  1
  O2-  O463  1  0.67243111  0.58628832  0.53109702  1
  O2-  O464  1  0.66574175  0.59383672  0.84856360  1
  O2-  O465  1  0.66843414  0.82525078  0.20041986  1
  O2-  O466  1  0.67016839  0.84087671  0.51941144  1
  O2-  O467  1  0.64469693  0.81199006  0.85984881  1
  O2-  O468  1  0.90966162  0.06481822  0.19490290  1
  O2-  O469  1  0.89811161  0.09951077  0.47244943  1
  O2-  O470  1  0.90985818  0.07238485  0.85182146  1
  O2-  O471  1  0.90378523  0.31017497  0.19964865  1
  O2-  O472  1  0.90695992  0.35951183  0.51409633  1
  O2-  O473  1  0.91565718  0.32914589  0.85731741  1
  O2-  O474  1  0.93706620  0.58281811  0.17580967  1
  O2-  O475  1  0.91983088  0.57587929  0.52138737  1
  O2-  O476  1  0.91334699  0.57976604  0.85724538  1
  O2-  O477  1  0.93035859  0.81925447  0.17912845  1
  O2-  O478  1  0.88967718  0.82280728  0.53477168  1
  O2-  O479  1  0.93603613  0.85819080  0.85953882  1
  O2-  O480  1  0.17634694  0.08593737  0.31232758  1
  O2-  O481  1  0.15523238  0.06887594  0.63911549  1
  O2-  O482  1  0.16851952  0.08527556  0.97152269  1
  O2-  O483  1  0.16365880  0.31634369  0.30914534  1
  O2-  O484  1  0.15486477  0.31900518  0.63772361  1
  O2-  O485  1  0.17711042  0.33341361  0.98784578  1
  O2-  O486  1  0.15651142  0.58479866  0.31147274  1
  O2-  O487  1  0.17714874  0.58958952  0.64932505  1
  O2-  O488  1  0.16571496  0.59255791  0.98191559  1
  O2-  O489  1  0.13931505  0.81424570  0.30675139  1
  O2-  O490  1  0.15241034  0.83501716  0.65395980  1
  O2-  O491  1  0.16442628  0.83897804  0.99515601  1
  O2-  O492  1  0.42686423  0.08158724  0.31018825  1
  O2-  O493  1  0.41622435  0.07334470  0.64951498  1
  O2-  O494  1  0.42778246  0.09791291  0.97625105  1
  O2-  O495  1  0.41697045  0.32493821  0.32678668  1
  O2-  O496  1  0.40226727  0.31882513  0.64335636  1
  O2-  O497  1  0.42267609  0.33934654  0.96661159  1
  O2-  O498  1  0.43946653  0.53423077  0.28039164  1
  O2-  O499  1  0.39932523  0.52392969  0.60439722  1
  O2-  O500  1  0.41982477  0.59439049  0.97654153  1
  O2-  O501  1  0.42788934  0.84206393  0.32009890  1
  O2-  O502  1  0.43754004  0.83639028  0.63625216  1
  O2-  O503  1  0.42613245  0.84050048  0.98082443  1
  O2-  O504  1  0.68732357  0.08483549  0.31613916  1
  O2-  O505  1  0.66306348  0.07479318  0.64925834  1
  O2-  O506  1  0.67145655  0.08128898  0.97813948  1
  O2-  O507  1  0.68493265  0.33256894  0.32102755  1
  O2-  O508  1  0.67288647  0.32769309  0.65124537  1
  O2-  O509  1  0.67187429  0.34445262  0.98972794  1
  O2-  O510  1  0.66206323  0.57343626  0.30937208  1
  O2-  O511  1  0.66733584  0.58781616  0.65084271  1
  O2-  O512  1  0.67178347  0.60216733  0.96872327  1
  O2-  O513  1  0.65597209  0.82147440  0.32360220  1
  O2-  O514  1  0.66467755  0.82069239  0.64923637  1
  O2-  O515  1  0.64581776  0.79146999  0.98176693  1
  O2-  O516  1  0.92968056  0.07397538  0.31737965  1
  O2-  O517  1  0.91353593  0.07782270  0.65048577  1
  O2-  O518  1  0.91414264  0.08024374  0.97154249  1
  O2-  O519  1  0.93333219  0.32659716  0.31723198  1
  O2-  O520  1  0.90317681  0.34473916  0.62680235  1
  O2-  O521  1  0.91143897  0.33045740  0.98149117  1
  O2-  O522  1  0.90249176  0.57633739  0.33428416  1
  O2-  O523  1  0.91667619  0.58256249  0.64709822  1
  O2-  O524  1  0.91194345  0.58425030  0.98144008  1
  O2-  O525  1  0.90959399  0.83823322  0.31023335  1
  O2-  O526  1  0.90414443  0.82745511  0.64971193  1
  O2-  O527  1  0.92053999  0.82085900  0.97445429  1
  O2-  O528  1  0.08481860  0.16476274  0.01576769  1
  O2-  O529  1  0.09644890  0.16608433  0.36028676  1
  O2-  O530  1  0.07559251  0.15329795  0.68961487  1
  O2-  O531  1  0.08845468  0.42644900  -0.00303850  1
  O2-  O532  1  0.11747900  0.44260409  0.36431625  1
  O2-  O533  1  0.07655238  0.45433772  0.71471441  1
  O2-  O534  1  0.07453850  0.66882614  0.01468735  1
  O2-  O535  1  0.07594594  0.66259832  0.35541799  1
  O2-  O536  1  0.07201858  0.66277299  0.69252359  1
  O2-  O537  1  0.09123146  0.92622920  0.01626769  1
  O2-  O538  1  0.07245612  0.91781769  0.34707674  1
  O2-  O539  1  0.08844094  0.92881896  0.68878266  1
  O2-  O540  1  0.33741694  0.17766262  0.01044647  1
  O2-  O541  1  0.33761937  0.15571566  0.36071668  1
  O2-  O542  1  0.32455826  0.15467020  0.63462582  1
  O2-  O543  1  0.34871474  0.42630856  0.01722878  1
  O2-  O544  1  0.32536548  0.40328561  0.35771151  1
  O2-  O545  1  0.29715973  0.43600641  0.70162958  1
  O2-  O546  1  0.33122089  0.67502858  0.02309425  1
  O2-  O547  1  0.33236442  0.68031457  0.35165863  1
  O2-  O548  1  0.33438849  0.66102305  0.67733207  1
  O2-  O549  1  0.33951829  0.92469448  0.00336100  1
  O2-  O550  1  0.35309785  0.93273119  0.36198792  1
  O2-  O551  1  0.31013164  0.90933779  0.70397421  1
  O2-  O552  1  0.59202176  0.17219917  0.02494103  1
  O2-  O553  1  0.59326877  0.16228148  0.35192950  1
  O2-  O554  1  0.58151760  0.15737549  0.68607507  1
  O2-  O555  1  0.59029470  0.43429955  0.00480735  1
  O2-  O556  1  0.59329875  0.41109859  0.36182819  1
  O2-  O557  1  0.58504925  0.41330894  0.63712036  1
  O2-  O558  1  0.60022976  0.70248246  0.00553922  1
  O2-  O559  1  0.57320904  0.65196538  0.34791133  1
  O2-  O560  1  0.59040189  0.66738118  0.68783692  1
  O2-  O561  1  0.58807466  0.90963926  0.02183902  1
  O2-  O562  1  0.58957497  0.92172711  0.35676499  1
  O2-  O563  1  0.59366248  0.91050533  0.68969267  1
  O2-  O564  1  0.83835504  0.16233368  0.02118017  1
  O2-  O565  1  0.85396078  0.15755487  0.35841532  1
  O2-  O566  1  0.83643367  0.17534006  0.67684102  1
  O2-  O567  1  0.84072433  0.42116182  0.02556853  1
  O2-  O568  1  0.84408101  0.40175529  0.36907724  1
  O2-  O569  1  0.83345273  0.41883964  0.69076218  1
  O2-  O570  1  0.82941281  0.66250987  0.00073871  1
  O2-  O571  1  0.82380665  0.66072399  0.35695296  1
  O2-  O572  1  0.82984376  0.65921991  0.68490797  1
  O2-  O573  1  0.82240517  0.89881747  -0.03029667  1
  O2-  O574  1  0.82073731  0.91053084  0.36515945  1
  O2-  O575  1  0.82573172  0.90765096  0.69424050  1
