# generated using pymatgen
data_H2O
_symmetry_space_group_name_H-M   'P 1'
_cell_length_a   17.98579301
_cell_length_b   17.98389578
_cell_length_c   22.00252072
_cell_angle_alpha   90.02402978
_cell_angle_beta   89.97236762
_cell_angle_gamma   120.00327056
_symmetry_Int_Tables_number   1
_chemical_formula_structural   H2O
_chemical_formula_sum   'H384 O192'
_cell_volume   6163.14045165
_cell_formula_units_Z   192
loop_
 _symmetry_equiv_pos_site_id
 _symmetry_equiv_pos_as_xyz
  1  'x, y, z'
loop_
 _atom_type_symbol
 _atom_type_oxidation_number
  H+  1.0
  O2-  -2.0
loop_
 _atom_site_type_symbol
 _atom_site_label
 _atom_site_symmetry_multiplicity
 _atom_site_fract_x
 _atom_site_fract_y
 _atom_site_fract_z
 _atom_site_occupancy
  H+  H0  1  0.26915369  0.39191129  0.66646651  1
  H+  H1  1  0.47003337  0.38483476  0.64776817  1
  H+  H2  1  0.47742524  0.36558392  0.99868183  1
  H+  H3  1  0.57159330  0.30726245  0.64040937  1
  H+  H4  1  0.90526828  0.24787774  0.68167583  1
  H+  H5  1  0.39346082  0.61905574  0.67531525  1
  H+  H6  1  0.75635225  0.31609283  0.49921471  1
  H+  H7  1  0.85005267  0.65782326  0.51016372  1
  H+  H8  1  0.73891257  0.37630275  1.00105985  1
  H+  H9  1  0.75583449  0.63504526  0.01512080  1
  H+  H10  1  0.85276162  -0.01132625  0.15534512  1
  H+  H11  1  0.36580643  0.22910643  0.01422782  1
  H+  H12  1  0.26421717  0.11962650  0.16131401  1
  H+  H13  1  0.30285956  0.78116104  0.40156519  1
  H+  H14  1  0.88602386  0.60701247  0.33553377  1
  H+  H15  1  0.86329424  0.37951505  0.16815338  1
  H+  H16  1  0.90897888  0.11966261  0.66287470  1
  H+  H17  1  0.59798990  0.91270830  0.76335390  1
  H+  H18  1  0.76991972  0.62739275  0.34549492  1
  H+  H19  1  0.27802002  0.89519846  0.82417512  1
  H+  H20  1  0.09949145  -0.02459534  0.83631421  1
  H+  H21  1  0.35926609  0.72562431  0.82839481  1
  H+  H22  1  0.61594011  0.21436534  0.16189968  1
  H+  H23  1  0.89481720  0.35236875  0.33269209  1
  H+  H24  1  0.36010023  0.67818822  0.46527891  1
  H+  H25  1  0.90792402  0.82687987  0.93736560  1
  H+  H26  1  0.37425821  0.73014386  1.00652812  1
  H+  H27  1  0.19204318  0.77416948  0.97503688  1
  H+  H28  1  0.11350607  0.12397687  0.15623226  1
  H+  H29  1  0.90545516  0.41081514  0.67230943  1
  H+  H30  1  0.50517328  0.12905730  0.67586305  1
  H+  H31  1  0.23534610  0.68582073  -0.00087589  1
  H+  H32  1  0.61881468  0.39415942  1.01372562  1
  H+  H33  1  0.87517913  0.26440299  1.00705901  1
  H+  H34  1  0.38253607  0.15816978  0.49922963  1
  H+  H35  1  0.72307111  0.11369974  0.98729669  1
  H+  H36  1  0.97813883  0.87562014  0.50319704  1
  H+  H37  1  0.20917242  0.10769587  0.84035351  1
  H+  H38  1  0.35583145  0.12208569  0.16414284  1
  H+  H39  1  0.60627831  0.98174054  -0.00530978  1
  H+  H40  1  0.37192136  0.98420020  0.16475805  1
  H+  H41  1  -0.00599976  0.59827823  0.01175562  1
  H+  H42  1  0.63722088  0.96824313  0.17116446  1
  H+  H43  1  0.12891480  0.27588807  0.84149506  1
  H+  H44  1  0.72657565  0.34982443  0.17708906  1
  H+  H45  1  0.96648310  0.84394460  0.99587296  1
  H+  H46  1  0.97502378  0.85824595  0.84628386  1
  H+  H47  1  0.02450112  0.63711694  0.33309714  1
  H+  H48  1  0.97426742  0.66241840  0.63037875  1
  H+  H49  1  0.76194342  0.90386783  0.68390023  1
  H+  H50  1  0.38722044  0.26009236  0.17706716  1
  H+  H51  1  0.85563472  0.61550928  0.16301090  1
  H+  H52  1  0.83793920  0.92529132  0.73228042  1
  H+  H53  1  0.64314661  0.51209186  0.18181088  1
  H+  H54  1  0.22023117  0.36416310  0.98872145  1
  H+  H55  1  0.35612649  0.47608280  0.99816574  1
  H+  H56  1  0.50044044  0.85417861  0.97749390  1
  H+  H57  1  -0.01703831  0.11467912  0.16498911  1
  H+  H58  1  0.86811268  0.49537947  0.81874853  1
  H+  H59  1  0.28572770  0.89143859  0.15948438  1
  H+  H60  1  0.62227244  0.38526517  0.52236108  1
  H+  H61  1  0.02380440  0.89727764  0.14983059  1
  H+  H62  1  0.75493927  0.61084464  0.16901322  1
  H+  H63  1  0.63342753  0.34812335  0.32028656  1
  H+  H64  1  -0.02096798  0.59529368  0.49163233  1
  H+  H65  1  0.15940750  0.62395721  0.66514903  1
  H+  H66  1  0.78406612  0.35362435  0.64938407  1
  H+  H67  1  0.11429999  0.72859002  0.32945968  1
  H+  H68  1  0.37945329  0.27465126  0.84021324  1
  H+  H69  1  0.14163485  0.52201399  0.17186893  1
  H+  H70  1  0.22144262  0.36213739  0.84085602  1
  H+  H71  1  0.38406813  0.88996513  0.67922439  1
  H+  H72  1  0.34694301  0.08286738  0.65014326  1
  H+  H73  1  0.38781684  0.88302507  0.52378724  1
  H+  H74  1  0.88372023  0.56915998  0.47408922  1
  H+  H75  1  0.62921031  0.52633010  -0.00061585  1
  H+  H76  1  0.52491349  0.16769518  0.65531241  1
  H+  H77  1  0.77419166  0.13314548  0.16422949  1
  H+  H78  1  0.58668847  0.67960537  0.77535271  1
  H+  H79  1  0.23333160  0.62426550  0.31784108  1
  H+  H80  1  0.37123420  0.76334850  0.49533141  1
  H+  H81  1  0.13703218  0.15991456  0.33583558  1
  H+  H82  1  0.13728276  0.26561529  0.32314668  1
  H+  H83  1  -0.02261476  0.36156811  0.17469529  1
  H+  H84  1  0.10629471  0.63074006  0.16391528  1
  H+  H85  1  0.97566446  0.11686184  0.98774837  1
  H+  H86  1  0.39027259  0.12173544  0.99978566  1
  H+  H87  1  0.62789801  0.11106754  0.31923944  1
  H+  H88  1  0.49361090  0.86308667  0.66754694  1
  H+  H89  1  0.47560649  0.10581341  0.17665880  1
  H+  H90  1  0.37759687  0.36213991  0.84111719  1
  H+  H91  1  0.38186521  0.36055194  0.33343334  1
  H+  H92  1  0.58349809  0.41077379  0.26075946  1
  H+  H93  1  0.58496438  0.34243859  0.51241397  1
  H+  H94  1  0.11521538  0.39645286  0.82977663  1
  H+  H95  1  0.02572890  0.12151751  0.68286257  1
  H+  H96  1  0.00625213  0.10603624  0.31969474  1
  H+  H97  1  0.49430104  0.10539068  0.51068412  1
  H+  H98  1  0.87241862  0.44721813  0.48946454  1
  H+  H99  1  0.13913110  1.00075575  0.34137020  1
  H+  H100  1  0.61621280  0.93329437  0.49911072  1
  H+  H101  1  0.47178790  0.11514872  0.84215274  1
  H+  H102  1  0.63083818  0.15889182  0.48753557  1
  H+  H103  1  0.14895266  0.83320690  0.99554853  1
  H+  H104  1  0.35461499  0.47270211  0.35011074  1
  H+  H105  1  0.61433324  0.55049738  0.65345817  1
  H+  H106  1  0.94792164  0.34385873  0.61328752  1
  H+  H107  1  0.64069239  0.01823107  0.83362799  1
  H+  H108  1  0.34119553  0.46807654  0.14025104  1
  H+  H109  1  0.66459568  0.11673588  0.67582827  1
  H+  H110  1  0.86342421  0.09912318  0.52767079  1
  H+  H111  1  0.84077182  0.75778328  0.31671483  1
  H+  H112  1  0.20594645  0.85505909  0.27630443  1
  H+  H113  1  0.71625681  0.64239577  0.50596412  1
  H+  H114  1  0.06006257  0.35435569  0.51908701  1
  H+  H115  1  0.38435091  0.61098371  0.16424237  1
  H+  H116  1  0.63869882  0.52835611  0.85639982  1
  H+  H117  1  0.31492857  0.86956413  0.42108646  1
  H+  H118  1  0.62432993  0.23852638  0.00600313  1
  H+  H119  1  0.92937320  0.08183171  0.22615025  1
  H+  H120  1  0.81954468  0.92685510  0.09714503  1
  H+  H121  1  0.23969152  0.12248631  0.66002449  1
  H+  H122  1  0.23817438  0.38639010  0.48833229  1
  H+  H123  1  0.11224386  0.89433542  0.83199743  1
  H+  H124  1  0.87236946  1.00973345  0.51445805  1
  H+  H125  1  0.38808204  0.02376508  0.84323960  1
  H+  H126  1  0.63629512  0.61609161  0.84514818  1
  H+  H127  1  0.85246614  0.12955784  0.00995365  1
  H+  H128  1  0.12012465  0.85314656  0.50731068  1
  H+  H129  1  0.02430035  0.77968894  0.04394117  1
  H+  H130  1  0.37224560  0.23910074  0.66340261  1
  H+  H131  1  0.88537333  0.88411240  0.16757619  1
  H+  H132  1  0.85879418  0.21825926  0.36470205  1
  H+  H133  1  0.61903251  0.90192912  0.00649235  1
  H+  H134  1  0.61368971  0.88640038  0.82980707  1
  H+  H135  1  0.35928984  0.38745145  -0.00059526  1
  H+  H136  1  0.86296842  0.89064162  1.00733055  1
  H+  H137  1  0.86644648  0.13956414  0.16197853  1
  H+  H138  1  0.61758714  0.34036733  0.64628955  1
  H+  H139  1  0.13294492  0.91020222  0.34179411  1
  H+  H140  1  0.27874594  0.89256676  0.00526796  1
  H+  H141  1  0.84615025  0.63675969  0.66151371  1
  H+  H142  1  0.24013991  0.64385018  0.51001936  1
  H+  H143  1  0.22998613  0.61467828  0.17145153  1
  H+  H144  1  0.85986348  0.46263855  0.34314157  1
  H+  H145  1  0.52677682  0.65654173  0.14926262  1
  H+  H146  1  0.17713438  0.64725998  0.94241626  1
  H+  H147  1  0.21668972  0.35498416  0.16580518  1
  H+  H148  1  0.14198455  0.52598311  0.86899755  1
  H+  H149  1  0.86501592  0.38027248  0.01724436  1
  H+  H150  1  0.88512883  0.28770107  0.82767138  1
  H+  H151  1  0.63261704  0.52200152  0.32006716  1
  H+  H152  1  0.13581966  0.62241432  0.31774659  1
  H+  H153  1  0.90467605  0.47661294  0.03914284  1
  H+  H154  1  0.76625567  0.14228110  0.35887446  1
  H+  H155  1  0.12242891  0.86300244  0.16529375  1
  H+  H156  1  0.37015710  0.72870873  0.16498324  1
  H+  H157  1  0.26627053  0.05578112  0.77723697  1
  H+  H158  1  0.03400160  0.66489350  0.82728327  1
  H+  H159  1  0.11107042  0.13683257  0.00099007  1
  H+  H160  1  0.75742266  0.64124175  0.66715937  1
  H+  H161  1  0.63641633  0.09791987  0.16968313  1
  H+  H162  1  0.39501849  0.85247027  0.32755242  1
  H+  H163  1  0.14898793  0.38348170  0.64965370  1
  H+  H164  1  0.36238023  0.72571942  0.32222072  1
  H+  H165  1  0.36817172  0.89215463  0.82513800  1
  H+  H166  1  0.08848492  0.92597182  0.43638388  1
  H+  H167  1  0.34229374  0.17317147  0.72128497  1
  H+  H168  1  1.01065889  0.38386253  0.67142114  1
  H+  H169  1  0.87645036  0.98394700  0.34759180  1
  H+  H170  1  0.95770830  -0.02057025  0.78084115  1
  H+  H171  1  0.86042493  0.89376136  0.50120352  1
  H+  H172  1  0.01240764  0.81658560  0.65327309  1
  H+  H173  1  0.88728182  0.49046811  0.66067929  1
  H+  H174  1  0.88964719  0.37798953  0.82587646  1
  H+  H175  1  0.60099901  0.75920111  0.50001949  1
  H+  H176  1  0.28426023  0.64138807  0.67402187  1
  H+  H177  1  0.65813219  0.86900736  0.57631030  1
  H+  H178  1  0.71525181  0.24105263  0.66483260  1
  H+  H179  1  0.13130751  0.26140770  0.17245239  1
  H+  H180  1  0.41199687  0.87467175  0.16818262  1
  H+  H181  1  0.53069279  0.66385652  0.69026336  1
  H+  H182  1  0.82795919  0.16599638  0.65349412  1
  H+  H183  1  0.11784967  0.98311445  0.14452173  1
  H+  H184  1  0.47074365  0.61003167  0.84140057  1
  H+  H185  1  0.66704886  0.83951173  0.90943589  1
  H+  H186  1  0.36502906  0.23713038  0.49530849  1
  H+  H187  1  0.85509094  0.60474883  0.98670609  1
  H+  H188  1  0.84745336  0.72204986  0.01494832  1
  H+  H189  1  0.60136877  0.75407479  0.15007663  1
  H+  H190  1  0.88617144  0.02031549  0.66288834  1
  H+  H191  1  0.82268712  0.65070952  0.10294121  1
  H+  H192  1  0.25551441  0.13846926  0.32947473  1
  H+  H193  1  0.42761510  0.83337794  0.88732218  1
  H+  H194  1  0.11724353  0.12890067  0.68857546  1
  H+  H195  1  0.60495061  0.64430345  1.00558977  1
  H+  H196  1  0.13583135  0.49501158  0.67738584  1
  H+  H197  1  0.09764624  0.13949002  0.84054324  1
  H+  H198  1  0.65521745  0.28570331  0.84108970  1
  H+  H199  1  0.36043906  0.47262893  0.68342618  1
  H+  H200  1  0.37863928  0.14169689  0.33642130  1
  H+  H201  1  0.63478495  0.61142355  0.33396650  1
  H+  H202  1  0.72116005  0.88904658  0.51995039  1
  H+  H203  1  0.74005825  0.37743630  0.83667247  1
  H+  H204  1  0.60725232  0.72549720  0.83911947  1
  H+  H205  1  0.11094225  0.38103910  0.16250707  1
  H+  H206  1  0.10222395  0.46974887  0.00432688  1
  H+  H207  1  0.49606212  0.86389491  0.17311718  1
  H+  H208  1  0.10211582  0.71894089  0.48931540  1
  H+  H209  1  0.97205896  0.12797645  0.83784425  1
  H+  H210  1  0.08966968  0.70150413  0.66860968  1
  H+  H211  1  0.22892553  0.83776936  0.34226252  1
  H+  H212  1  0.13086002  0.37079920  0.45752532  1
  H+  H213  1  0.72959002  0.86903682  -0.00549980  1
  H+  H214  1  0.86350876  -0.01968135  1.00115067  1
  H+  H215  1  0.15667275  0.02942339  0.66305944  1
  H+  H216  1  0.89847275  0.90254986  0.82367146  1
  H+  H217  1  0.74106668  0.80487772  0.28697723  1
  H+  H218  1  0.71184918  0.89419228  0.16243617  1
  H+  H219  1  0.59113977  0.43839469  0.62912255  1
  H+  H220  1  0.61557371  0.39030143  0.85673112  1
  H+  H221  1  0.85448223  0.51695824  0.97689388  1
  H+  H222  1  0.25014292  0.87590494  0.50879610  1
  H+  H223  1  0.72020930  0.86012925  0.84690449  1
  H+  H224  1  0.34417841  0.63358868  0.01201665  1
  H+  H225  1  0.88683748  0.62557480  0.82728343  1
  H+  H226  1  0.56908904  0.44228997  0.44882851  1
  H+  H227  1  0.23510389  0.60273195  0.86809237  1
  H+  H228  1  0.14265481  0.61560788  0.51363040  1
  H+  H229  1  0.48203917  0.89496715  0.51292475  1
  H+  H230  1  0.53396852  0.15047729  0.00430655  1
  H+  H231  1  0.52112609  0.37115218  0.17123603  1
  H+  H232  1  0.38176929  0.61059943  0.84092433  1
  H+  H233  1  0.88798713  0.27249720  0.17508219  1
  H+  H234  1  0.63666676  0.78078037  0.99412950  1
  H+  H235  1  0.85137427  0.20345110  0.51576313  1
  H+  H236  1  0.85679859  0.85190669  0.32718864  1
  H+  H237  1  0.09799023  0.71484256  0.15509642  1
  H+  H238  1  0.90510466  0.84482119  0.22440723  1
  H+  H239  1  0.38434072  0.03657971  0.32206350  1
  H+  H240  1  0.47763547  0.61988820  0.35049394  1
  H+  H241  1  0.23152011  0.10984400  0.50818515  1
  H+  H242  1  0.11175462  0.80517404  0.22158979  1
  H+  H243  1  0.49170888  0.42417918  0.49144332  1
  H+  H244  1  -0.03475415  0.35223586  0.00679286  1
  H+  H245  1  0.32986732  -0.03075873  0.49509810  1
  H+  H246  1  0.88041559  0.77439603  0.83869280  1
  H+  H247  1  0.35093991  0.63519638  0.34359987  1
  H+  H248  1  0.62931650  0.25712351  0.33030414  1
  H+  H249  1  0.46353835  0.63336351  0.49468512  1
  H+  H250  1  0.35656994  0.47238005  0.82779363  1
  H+  H251  1  0.61879469  0.56245236  0.50538120  1
  H+  H252  1  0.86366728  0.74905362  0.49407483  1
  H+  H253  1  0.62102455  0.80516045  0.67708279  1
  H+  H254  1  0.50626299  0.12720372  0.33182021  1
  H+  H255  1  0.66194288  0.29604601  0.51329147  1
  H+  H256  1  0.07393826  0.16237190  0.77594845  1
  H+  H257  1  0.53037909  0.88593601  0.33690342  1
  H+  H258  1  0.14735314  0.79288353  0.83632129  1
  H+  H259  1  0.96250742  0.59689873  0.18022483  1
  H+  H260  1  0.33262820  0.47275115  0.48734152  1
  H+  H261  1  0.52486025  0.38754732  0.85579682  1
  H+  H262  1  0.14747244  1.02738781  -0.00044899  1
  H+  H263  1  0.76143299  0.12564608  0.81472774  1
  H+  H264  1  0.83224591  0.40964119  0.10889096  1
  H+  H265  1  0.72102707  0.09778849  0.59320525  1
  H+  H266  1  0.62361327  -0.02944425  0.65943343  1
  H+  H267  1  0.85902242  0.12762299  0.81930778  1
  H+  H268  1  0.76941415  0.64187232  0.82405340  1
  H+  H269  1  0.62242500  0.67502556  0.67952015  1
  H+  H270  1  0.41291278  0.32175157  0.23482585  1
  H+  H271  1  0.37020678  0.99611443  0.00906530  1
  H+  H272  1  0.88581261  0.86042555  0.65677176  1
  H+  H273  1  0.41735840  0.08310028  0.23936568  1
  H+  H274  1  0.47784561  0.86841549  0.82558427  1
  H+  H275  1  1.02811451  0.37470810  0.37226754  1
  H+  H276  1  0.60781024  0.67377357  0.50049552  1
  H+  H277  1  0.90513334  0.34709321  0.50877307  1
  H+  H278  1  0.34715106  -0.03624172  0.66838417  1
  H+  H279  1  0.23058028  0.36420979  0.32291163  1
  H+  H280  1  0.41724828  0.33260614  0.93934756  1
  H+  H281  1  0.11568818  0.97735806  0.49903832  1
  H+  H282  1  0.37086099  0.35750106  0.65901418  1
  H+  H283  1  0.58711162  0.02325760  0.60856813  1
  H+  H284  1  0.46636748  0.61612446  0.99425404  1
  H+  H285  1  0.35566701  0.36069785  0.50693818  1
  H+  H286  1  0.34430062  0.10863783  0.82027834  1
  H+  H287  1  0.60299417  0.11084108  0.81810205  1
  H+  H288  1  0.07280099  0.87485594  0.06791014  1
  H+  H289  1  0.67673394  0.83176447  0.25722262  1
  H+  H290  1  0.61298582  0.37210527  0.16962438  1
  H+  H291  1  0.11327904  0.22731183  0.00259205  1
  H+  H292  1  0.47642373  0.76880271  0.94076383  1
  H+  H293  1  0.33407050  0.16432053  0.07251901  1
  H+  H294  1  0.98138746  0.01969618  0.28631330  1
  H+  H295  1  0.67684486  0.58338386  0.23648338  1
  H+  H296  1  0.63725496  0.02785976  0.32360145  1
  H+  H297  1  0.77169320  0.37163403  0.34122404  1
  H+  H298  1  0.82330928  0.67129782  0.76119748  1
  H+  H299  1  0.83303803  0.67037007  0.40163005  1
  H+  H300  1  0.08067414  0.15687142  0.48588974  1
  H+  H301  1  0.18849346  0.59824578  0.60208586  1
  H+  H302  1  0.84420733  0.39021364  0.42899431  1
  H+  H303  1  0.82209561  0.15665183  0.07078680  1
  H+  H304  1  0.20345983  0.12064024  0.26692704  1
  H+  H305  1  0.51878309  0.38368045  0.31492158  1
  H+  H306  1  0.16647951  0.58723756  0.25577156  1
  H+  H307  1  0.38894891  0.27390317  0.33426311  1
  H+  H308  1  0.62268318  0.89555815  0.34486698  1
  H+  H309  1  0.67161602  0.08561466  0.89106050  1
  H+  H310  1  0.91145527  0.58867363  0.58604391  1
  H+  H311  1  0.48823003  0.16623066  0.55838036  1
  H+  H312  1  0.11828597  0.26306446  0.47651922  1
  H+  H313  1  0.90793258  0.59232316  0.88765762  1
  H+  H314  1  0.15659566  0.33338114  0.93220065  1
  H+  H315  1  0.17499616  0.36879818  0.58391647  1
  H+  H316  1  0.23322527  0.11793377  1.00171972  1
  H+  H317  1  0.68432540  0.34880873  0.93969928  1
  H+  H318  1  0.17028415  0.32831178  0.25705770  1
  H+  H319  1  0.63968162  0.12252517  0.98180818  1
  H+  H320  1  0.12205206  0.79907047  0.56510244  1
  H+  H321  1  0.56652096  0.13707438  0.39143264  1
  H+  H322  1  0.04595960  0.41029333  0.43831820  1
  H+  H323  1  0.41889650  0.59327731  0.29366651  1
  H+  H324  1  0.16428887  0.08830873  0.90563195  1
  H+  H325  1  0.34219942  0.91811753  0.74035678  1
  H+  H326  1  0.31105080  0.40584115  0.40396263  1
  H+  H327  1  0.13189536  0.04088257  0.21321258  1
  H+  H328  1  0.02501979  0.60077667  0.07940644  1
  H+  H329  1  0.02842373  0.39986763  0.82266811  1
  H+  H330  1  0.18798210  0.85323341  0.89484151  1
  H+  H331  1  0.52897286  0.08292948  0.76960684  1
  H+  H332  1  0.08639963  0.66456142  0.42808457  1
  H+  H333  1  0.43224568  0.84752955  0.60986977  1
  H+  H334  1  0.91312714  0.08654537  0.92973447  1
  H+  H335  1  0.65962919  0.62445254  0.60289382  1
  H+  H336  1  0.89303080  0.03435301  0.83201506  1
  H+  H337  1  0.58533224  0.41679822  0.07409332  1
  H+  H338  1  0.58128123  0.93813764  0.43433377  1
  H+  H339  1  0.66306829  0.58795261  0.94030638  1
  H+  H340  1  0.17441415  0.08269914  0.56775912  1
  H+  H341  1  0.08486615  0.41557028  0.10369303  1
  H+  H342  1  0.41462866  0.55709546  0.20582101  1
  H+  H343  1  0.32280796  0.40980709  0.76922088  1
  H+  H344  1  0.86896772  0.76473832  0.65340771  1
  H+  H345  1  0.61732680  0.72610474  0.33906884  1
  H+  H346  1  0.66682182  0.31443895  0.23611173  1
  H+  H347  1  0.11035867  0.38555177  0.00534828  1
  H+  H348  1  0.57675379  0.43433714  0.71946605  1
  H+  H349  1  0.77936861  0.90617858  0.34827769  1
  H+  H350  1  0.58034425  0.68450703  0.06199812  1
  H+  H351  1  0.84118256  0.43471498  0.75992363  1
  H+  H352  1  0.90893733  0.57283318  0.27564352  1
  H+  H353  1  0.34897620  0.17004247  0.40091261  1
  H+  H354  1  0.43643728  0.58578568  0.62576162  1
  H+  H355  1  0.41618328  0.08928241  0.93892160  1
  H+  H356  1  0.92854664  0.32396613  0.27700003  1
  H+  H357  1  0.43101470  0.84071464  0.26215601  1
  H+  H358  1  0.91585999  0.84052572  0.56265384  1
  H+  H359  1  0.04082952  0.60658444  0.69668310  1
  H+  H360  1  0.09967588  0.18916660  0.39557604  1
  H+  H361  1  0.34067773  0.93164016  0.07218437  1
  H+  H362  1  0.66791093  0.07851021  0.23276861  1
  H+  H363  1  0.30572876  0.40433955  0.08526156  1
  H+  H364  1  0.10080726  0.68844688  0.77361840  1
  H+  H365  1  0.58603113  0.42254847  0.75313178  1
  H+  H366  1  0.72353515  0.28678911  0.59074587  1
  H+  H367  1  0.40737879  0.58343999  0.93492510  1
  H+  H368  1  0.82785549  0.92765428  0.44493715  1
  H+  H369  1  0.39792374  0.33992824  0.56478462  1
  H+  H370  1  0.08572368  0.16082565  0.09813442  1
  H+  H371  1  0.32845672  0.66179674  0.77293085  1
  H+  H372  1  0.83415927  0.16342767  0.75273946  1
  H+  H373  1  0.91581619  0.07452498  0.57850980  1
  H+  H374  1  0.58657404  0.68851352  0.40659271  1
  H+  H375  1  0.38160441  0.60478310  0.53624034  1
  H+  H376  1  0.33578571  0.67462238  0.10371605  1
  H+  H377  1  0.38143809  0.05131418  0.59575459  1
  H+  H378  1  0.64980635  0.16762431  0.73196617  1
  H+  H379  1  0.37474056  0.73026951  0.67938893  1
  H+  H380  1  0.87442256  0.50628015  0.18099331  1
  H+  H381  1  0.58651901  0.05713151  0.47592861  1
  H+  H382  1  0.58814173  0.16165292  0.10022206  1
  H+  H383  1  0.10385300  0.43704302  0.73903275  1
  O2-  O384  1  0.08473239  0.15900690  0.14333486  1
  O2-  O385  1  0.11018462  0.20406629  0.45751416  1
  O2-  O386  1  0.06895445  0.16917959  0.82190665  1
  O2-  O387  1  0.08600126  0.41722510  0.14914423  1
  O2-  O388  1  0.02296369  0.38453161  0.52485869  1
  O2-  O389  1  0.09161715  0.43239829  0.81396738  1
  O2-  O390  1  0.06685426  0.65150356  0.15056176  1
  O2-  O391  1  0.07790999  0.65916315  0.47269413  1
  O2-  O392  1  0.09605607  0.69844388  0.81748484  1
  O2-  O393  1  0.08254143  0.91679643  0.13285513  1
  O2-  O394  1  0.08042950  0.91745571  0.48136038  1
  O2-  O395  1  0.07220641  0.91548858  0.82151060  1
  O2-  O396  1  0.32628956  0.15234598  0.14777377  1
  O2-  O397  1  0.34431388  0.17666604  0.48122901  1
  O2-  O398  1  0.29945005  0.11269123  0.79558954  1
  O2-  O399  1  0.30231165  0.40728952  0.13039330  1
  O2-  O400  1  0.30210816  0.41103224  0.47728351  1
  O2-  O401  1  0.32623111  0.41073382  0.81487121  1
  O2-  O402  1  0.33591411  0.66876435  0.14945856  1
  O2-  O403  1  0.33308216  0.71405827  0.46866559  1
  O2-  O404  1  0.33061751  0.66364267  0.81821478  1
  O2-  O405  1  0.34439038  0.92450645  0.14352500  1
  O2-  O406  1  0.31212295  0.90843374  0.49419332  1
  O2-  O407  1  0.34067777  0.92558645  0.80898944  1
  O2-  O408  1  0.58467134  0.15450742  0.14510986  1
  O2-  O409  1  0.57785807  0.10754190  0.47338196  1
  O2-  O410  1  0.56730031  0.13110143  0.79552890  1
  O2-  O411  1  0.58559123  0.40802375  0.16209180  1
  O2-  O412  1  0.54366649  0.47120599  0.47055474  1
  O2-  O413  1  0.58647640  0.42343803  0.86495703  1
  O2-  O414  1  0.58555599  0.69650446  0.13470492  1
  O2-  O415  1  0.57424090  0.69997385  0.48317870  1
  O2-  O416  1  0.57962599  0.66759142  0.82019663  1
  O2-  O417  1  0.60667090  0.90620704  0.15677049  1
  O2-  O418  1  0.57974213  0.95241286  0.47796295  1
  O2-  O419  1  0.58923032  0.91828726  0.80803370  1
  O2-  O420  1  0.83384763  0.16769511  0.14741791  1
  O2-  O421  1  0.80800605  0.14273037  0.52508155  1
  O2-  O422  1  0.82450237  0.15583894  0.79974510  1
  O2-  O423  1  0.82989990  0.40807566  0.15463030  1
  O2-  O424  1  0.84832452  0.38704984  0.47477168  1
  O2-  O425  1  0.83598249  0.43342776  0.80479970  1
  O2-  O426  1  0.82292976  0.64511057  0.14901359  1
  O2-  O427  1  0.82840771  0.68544198  0.48297211  1
  O2-  O428  1  0.82873716  0.67442559  0.80640585  1
  O2-  O429  1  0.81276168  0.92799434  0.14213435  1
  O2-  O430  1  0.82776800  0.92447837  0.49074019  1
  O2-  O431  1  0.90005571  0.95139650  0.79853229  1
  O2-  O432  1  0.15751032  0.06931352  0.17485740  1
  O2-  O433  1  0.17166695  0.07661225  0.52302043  1
  O2-  O434  1  0.15339538  0.08682491  0.86109076  1
  O2-  O435  1  0.15907491  0.32198626  0.18824761  1
  O2-  O436  1  0.13629095  0.34514418  0.49588258  1
  O2-  O437  1  0.16121359  0.33643546  0.85635353  1
  O2-  O438  1  0.16888578  0.58345816  0.18624340  1
  O2-  O439  1  0.18557701  0.60253852  0.53041976  1
  O2-  O440  1  0.18491502  0.57231834  0.89516882  1
  O2-  O441  1  0.14558936  0.82673510  0.18442240  1
  O2-  O442  1  0.14604636  0.81843232  0.52248961  1
  O2-  O443  1  0.18402489  0.85635746  0.85005536  1
  O2-  O444  1  0.41530351  0.07507777  0.19163036  1
  O2-  O445  1  0.45167912  0.11489229  0.53451447  1
  O2-  O446  1  0.41259389  0.08436219  0.85864380  1
  O2-  O447  1  0.42383870  0.32033948  0.19088467  1
  O2-  O448  1  0.39645825  0.34072707  0.51887130  1
  O2-  O449  1  0.40708856  0.33144251  0.85858890  1
  O2-  O450  1  0.41677224  0.57862333  0.16502117  1
  O2-  O451  1  0.39922403  0.59803281  0.49572292  1
  O2-  O452  1  0.40991628  0.57784701  0.85584783  1
  O2-  O453  1  0.43494702  0.83973253  0.18621960  1
  O2-  O454  1  0.42613896  0.86006499  0.53504731  1
  O2-  O455  1  0.41879002  0.84102561  0.84314127  1
  O2-  O456  1  0.66921406  0.07146471  0.18704917  1
  O2-  O457  1  0.77820084  0.15289473  0.58518332  1
  O2-  O458  1  0.67071031  0.08133795  0.84480988  1
  O2-  O459  1  0.66502115  0.31715201  0.19069335  1
  O2-  O460  1  0.70020790  0.27270039  0.51959106  1
  O2-  O461  1  0.68359405  0.34296888  0.85882297  1
  O2-  O462  1  0.67926292  0.57501099  0.19177557  1
  O2-  O463  1  0.65766170  0.62145615  0.52221429  1
  O2-  O464  1  0.67209075  0.59271078  0.86168910  1
  O2-  O465  1  0.65333127  0.86593970  0.18358427  1
  O2-  O466  1  0.66060959  0.86912347  0.53129152  1
  O2-  O467  1  0.66194726  0.83546864  0.86259127  1
  O2-  O468  1  0.92277911  0.08873790  0.18215442  1
  O2-  O469  1  0.90324185  0.07349939  0.53214875  1
  O2-  O470  1  0.90720286  0.09251115  0.84722744  1
  O2-  O471  1  0.91799016  0.33240759  0.19159736  1
  O2-  O472  1  0.93250384  0.31883705  0.53224676  1
  O2-  O473  1  0.92214508  0.34847396  0.83637773  1
  O2-  O474  1  0.90209477  0.56822092  0.19532052  1
  O2-  O475  1  0.91630938  0.55795461  0.50447162  1
  O2-  O476  1  0.91815697  0.59654341  0.84285729  1
  O2-  O477  1  0.92562699  0.86625321  0.18297676  1
  O2-  O478  1  0.91600875  0.84607478  0.51702188  1
  O2-  O479  1  0.91231802  0.83231634  0.85875728  1
  O2-  O480  1  0.19542888  0.11498776  0.31116801  1
  O2-  O481  1  0.17651232  0.08815445  0.64995965  1
  O2-  O482  1  0.17296052  0.08610623  0.98457558  1
  O2-  O483  1  0.17062305  0.33012351  0.30427856  1
  O2-  O484  1  0.18182213  0.36126016  0.62740333  1
  O2-  O485  1  0.15754571  0.33248140  0.97795936  1
  O2-  O486  1  0.16820294  0.59239877  0.30259310  1
  O2-  O487  1  0.19102091  0.59557271  0.64845117  1
  O2-  O488  1  0.18802989  0.68706352  0.97730107  1
  O2-  O489  1  0.18179866  0.83643899  0.31696722  1
  O2-  O490  1  0.06633206  0.75145876  0.62686994  1
  O2-  O491  1  0.19974635  0.83551383  0.97546858  1
  O2-  O492  1  0.41835612  0.09493983  0.30667175  1
  O2-  O493  1  0.34352535  0.03058733  0.63186731  1
  O2-  O494  1  0.41927118  0.08951819  0.98420062  1
  O2-  O495  1  0.41418069  0.33364765  0.31683777  1
  O2-  O496  1  0.40617816  0.33493706  0.64003654  1
  O2-  O497  1  0.41650657  0.33329003  0.98458019  1
  O2-  O498  1  0.41505022  0.58737204  0.33765581  1
  O2-  O499  1  0.42749250  0.58812395  0.66915478  1
  O2-  O500  1  0.40521231  0.58365232  0.98042686  1
  O2-  O501  1  0.43116938  0.83267982  0.30744052  1
  O2-  O502  1  0.43253210  0.84307066  0.65554844  1
  O2-  O503  1  0.45104902  0.80294477  0.95426714  1
  O2-  O504  1  0.66461222  0.08635840  0.30605512  1
  O2-  O505  1  0.63759775  0.03722947  0.63304750  1
  O2-  O506  1  0.66677296  0.08976295  0.96528511  1
  O2-  O507  1  0.66610047  0.31761111  0.31470459  1
  O2-  O508  1  0.73138710  0.29724611  0.63637632  1
  O2-  O509  1  0.67947761  0.34736420  0.98485166  1
  O2-  O510  1  0.66779299  0.58596208  0.31612444  1
  O2-  O511  1  0.65793977  0.61721074  0.64775259  1
  O2-  O512  1  0.65861521  0.58748860  0.98586502  1
  O2-  O513  1  0.69337090  0.81666478  0.29620608  1
  O2-  O514  1  0.65043258  0.86616843  0.66075174  1
  O2-  O515  1  0.66890651  0.84200811  0.97913632  1
  O2-  O516  1  0.95633429  0.05401054  0.30004368  1
  O2-  O517  1  0.92673552  0.07929738  0.64585775  1
  O2-  O518  1  0.91401054  0.08387887  0.97467430  1
  O2-  O519  1  0.92865732  0.32455672  0.32195163  1
  O2-  O520  1  0.94722184  0.34884914  0.65814783  1
  O2-  O521  1  0.90428526  0.32577736  0.99475443  1
  O2-  O522  1  0.91638324  0.57653254  0.32075056  1
  O2-  O523  1  0.91827709  0.60439385  0.62950782  1
  O2-  O524  1  0.88130737  0.57666426  0.96275762  1
  O2-  O525  1  0.84041755  0.80668735  0.29607831  1
  O2-  O526  1  0.90697853  0.82513469  0.63766004  1
  O2-  O527  1  0.90734170  0.82702508  0.98300871  1
  O2-  O528  1  0.07979922  0.16567481  0.01576791  1
  O2-  O529  1  0.09816159  0.18312965  0.34635728  1
  O2-  O530  1  0.07865445  0.14658260  0.70770594  1
  O2-  O531  1  0.08021507  0.41438234  0.02453395  1
  O2-  O532  1  0.07536247  0.41022590  0.40064792  1
  O2-  O533  1  0.10377560  0.43458778  0.69311126  1
  O2-  O534  1  0.00117725  0.56375171  0.04310067  1
  O2-  O535  1  0.08742899  0.66772771  0.34353655  1
  O2-  O536  1  0.09738578  0.65811825  0.69663226  1
  O2-  O537  1  0.05992310  0.83839795  0.02928128  1
  O2-  O538  1  0.10570262  0.94180091  0.35770451  1
  O2-  O539  1  0.06547795  0.81782641  0.66626479  1
  O2-  O540  1  0.33539391  0.16706493  0.02642251  1
  O2-  O541  1  0.34838941  0.17341788  0.35577159  1
  O2-  O542  1  0.34350118  0.17588629  0.67655530  1
  O2-  O543  1  0.32332011  0.41370591  0.00921627  1
  O2-  O544  1  0.32081739  0.41005203  0.35814151  1
  O2-  O545  1  0.32294056  0.41065117  0.69176471  1
  O2-  O546  1  0.33097099  0.67738788  0.02823261  1
  O2-  O547  1  0.31973942  0.66705655  0.33707124  1
  O2-  O548  1  0.34419705  0.66968442  0.69329301  1
  O2-  O549  1  0.34018626  0.93390635  0.02539716  1
  O2-  O550  1  0.30729370  0.83386315  0.38429571  1
  O2-  O551  1  0.34416904  0.91233705  0.69337990  1
  O2-  O552  1  0.59454324  0.17639201  0.01756260  1
  O2-  O553  1  0.56953294  0.15258072  0.34815134  1
  O2-  O554  1  0.69178043  0.17232076  0.70112455  1
  O2-  O555  1  0.58438281  0.41977595  0.02915331  1
  O2-  O556  1  0.58247216  0.41325538  0.30536574  1
  O2-  O557  1  0.55926868  0.45611486  0.65560009  1
  O2-  O558  1  0.57626209  0.67789921  0.01596086  1
  O2-  O559  1  0.58265517  0.67210059  0.36260575  1
  O2-  O560  1  0.59242424  0.70388055  0.69980145  1
  O2-  O561  1  0.57786004  0.92287571  0.01206590  1
  O2-  O562  1  0.58832009  0.92145589  0.35640669  1
  O2-  O563  1  0.60061480  0.90417850  0.68697982  1
  O2-  O564  1  0.81844475  0.15531344  0.02512265  1
  O2-  O565  1  0.81471865  0.16841759  0.38748445  1
  O2-  O566  1  0.86934527  0.18341742  0.68837669  1
  O2-  O567  1  0.84694225  0.42314144  0.03279343  1
  O2-  O568  1  0.83238762  0.40169056  0.35615775  1
  O2-  O569  1  0.86407226  0.43285366  0.67915448  1
  O2-  O570  1  0.81721702  0.66161212  0.03012774  1
  O2-  O571  1  0.83196959  0.66207726  0.35695723  1
  O2-  O572  1  0.81896189  0.66717475  0.68109585  1
  O2-  O573  1  0.83164531  0.92114771  0.01899105  1
  O2-  O574  1  0.83427374  0.93154545  0.37048513  1
  O2-  O575  1  0.82382147  0.92273380  0.68832977  1
