# generated using pymatgen
data_H2O
_symmetry_space_group_name_H-M   'P 1'
_cell_length_a   17.99857054
_cell_length_b   17.99809447
_cell_length_c   22.00685882
_cell_angle_alpha   89.98370130
_cell_angle_beta   89.99676838
_cell_angle_gamma   120.00074906
_symmetry_Int_Tables_number   1
_chemical_formula_structural   H2O
_chemical_formula_sum   'H384 O192'
_cell_volume   6173.76256915
_cell_formula_units_Z   192
loop_
 _symmetry_equiv_pos_site_id
 _symmetry_equiv_pos_as_xyz
  1  'x, y, z'
loop_
 _atom_type_symbol
 _atom_type_oxidation_number
  H+  1.0
  O2-  -2.0
loop_
 _atom_site_type_symbol
 _atom_site_label
 _atom_site_symmetry_multiplicity
 _atom_site_fract_x
 _atom_site_fract_y
 _atom_site_fract_z
 _atom_site_occupancy
  H+  H0  1  0.48231840  0.86439506  0.82945932  1
  H+  H1  1  0.95967652  0.82446588  0.17744446  1
  H+  H2  1  0.52532752  0.13820149  0.35164940  1
  H+  H3  1  0.64555726  0.13039739  0.32721165  1
  H+  H4  1  0.61900247  0.35282164  0.83938858  1
  H+  H5  1  0.15182355  0.61370846  0.19686699  1
  H+  H6  1  0.78887536  0.38305547  -0.04481921  1
  H+  H7  1  0.47408840  0.61014116  0.32525471  1
  H+  H8  1  0.39169497  0.86238429  0.17537073  1
  H+  H9  1  0.47992661  0.85949168  0.17610826  1
  H+  H10  1  0.97347860  0.86405218  0.66152662  1
  H+  H11  1  0.64010161  0.85981638  0.33112345  1
  H+  H12  1  0.63999198  0.11943089  -0.01622537  1
  H+  H13  1  0.62795452  0.24636296  0.16982259  1
  H+  H14  1  0.97452385  0.61744865  0.97145019  1
  H+  H15  1  0.77664399  0.38632383  0.34123073  1
  H+  H16  1  0.36503727  0.38674521  0.36411672  1
  H+  H17  1  0.64197187  0.02704498  0.83388021  1
  H+  H18  1  0.86769595  0.13019014  0.82018883  1
  H+  H19  1  0.38285689  0.53274629  -0.00232097  1
  H+  H20  1  0.13927268  0.52545551  0.83272089  1
  H+  H21  1  0.11457960  0.64019955  0.82032917  1
  H+  H22  1  0.87930822  0.61559699  0.81631850  1
  H+  H23  1  0.62102643  0.14059810  0.81435486  1
  H+  H24  1  0.47050881  0.09155082  0.98910267  1
  H+  H25  1  0.64235071  0.86354952  0.50390604  1
  H+  H26  1  0.66300454  0.04583139  0.98603893  1
  H+  H27  1  0.72142842  0.85306348  0.16902879  1
  H+  H28  1  0.86851195  0.14111399  0.48943209  1
  H+  H29  1  0.60836803  0.63609368  0.15981009  1
  H+  H30  1  0.10018712  -0.02419903  0.82898636  1
  H+  H31  1  0.74148028  0.36512510  0.19241814  1
  H+  H32  1  0.76063971  0.63236712  0.66427646  1
  H+  H33  1  0.85796264  0.35538059  0.67258472  1
  H+  H34  1  0.10997139  0.12802505  0.33740981  1
  H+  H35  1  0.32320440  0.86625320  0.02265014  1
  H+  H36  1  0.52904173  0.87810676  0.34165752  1
  H+  H37  1  0.89790450  0.26419826  0.83953223  1
  H+  H38  1  0.17372559  0.59825906  0.92132116  1
  H+  H39  1  0.14140277  0.77896579  0.83190835  1
  H+  H40  1  0.33936285  0.67881985  0.06153367  1
  H+  H41  1  0.88780667  0.52786782  0.95910344  1
  H+  H42  1  0.54282842  0.89665455  1.00317295  1
  H+  H43  1  0.83506159  0.91817152  0.43465588  1
  H+  H44  1  0.60223870  0.72129487  0.67398004  1
  H+  H45  1  0.17395613  0.08414514  0.22786023  1
  H+  H46  1  0.63732094  0.26786395  0.33604205  1
  H+  H47  1  0.76007647  0.62534836  0.16274293  1
  H+  H48  1  -0.02148751  0.86404925  -0.00656337  1
  H+  H49  1  0.38384478  0.26031070  0.15522354  1
  H+  H50  1  0.86561350  -0.02399218  0.33838271  1
  H+  H51  1  0.40099315  0.78864455  0.51625605  1
  H+  H52  1  0.98364208  0.11533189  0.82504811  1
  H+  H53  1  0.89555905  0.87182206  0.50340789  1
  H+  H54  1  0.23986183  0.36647589  0.83669188  1
  H+  H55  1  0.05561999  0.82407743  0.13967977  1
  H+  H56  1  0.36733500  0.63922638  0.15751947  1
  H+  H57  1  0.14784976  0.85424120  0.19174277  1
  H+  H58  1  0.86409491  0.63417815  -0.00266970  1
  H+  H59  1  0.28065793  0.88760861  0.18129767  1
  H+  H60  1  0.09001123  0.48791159  0.48200867  1
  H+  H61  1  0.46939816  0.61730309  0.65980933  1
  H+  H62  1  0.38246786  0.36506306  0.52147617  1
  H+  H63  1  0.46213020  0.61235901  0.50028050  1
  H+  H64  1  0.38011409  0.64883658  0.35746780  1
  H+  H65  1  0.64288078  0.11354992  0.65513570  1
  H+  H66  1  0.85234571  0.87717175  0.14931035  1
  H+  H67  1  0.36810607  0.13913721  0.50313377  1
  H+  H68  1  0.36301206  0.19598894  -0.00663644  1
  H+  H69  1  0.17390142  0.33298818  0.27359010  1
  H+  H70  1  0.41429447  0.31594359  0.21521716  1
  H+  H71  1  0.93723527  0.09283398  0.12701861  1
  H+  H72  1  0.64088471  0.36985614  0.63559861  1
  H+  H73  1  0.02605477  0.38182345  0.33799131  1
  H+  H74  1  0.84568206  0.71387601  0.16129320  1
  H+  H75  1  0.38954571  0.40277954  0.81891814  1
  H+  H76  1  0.63491760  0.85896327  0.65898173  1
  H+  H77  1  0.09797692  -0.02542373  0.67657089  1
  H+  H78  1  0.09722851  0.67520184  0.30039510  1
  H+  H79  1  0.42648998  0.88240682  0.96900538  1
  H+  H80  1  0.89745910  0.65700129  0.49403685  1
  H+  H81  1  0.44766766  0.33944956  0.88067061  1
  H+  H82  1  0.39145670  0.11243040  0.17400503  1
  H+  H83  1  0.61936622  0.97603324  0.67533440  1
  H+  H84  1  0.13560272  0.11537473  0.82817817  1
  H+  H85  1  0.52877682  0.88940540  0.67831932  1
  H+  H86  1  0.36670002  0.72395745  0.82317792  1
  H+  H87  1  0.37369243  0.90366583  0.66875291  1
  H+  H88  1  0.42237258  0.07943599  0.88742086  1
  H+  H89  1  0.97780144  0.11684813  0.50010814  1
  H+  H90  1  -0.10120904  0.31226043  0.02378929  1
  H+  H91  1  0.53283886  0.14343648  0.66181083  1
  H+  H92  1  0.14614900  0.51813135  0.33739400  1
  H+  H93  1  0.15624396  0.64506163  0.48169768  1
  H+  H94  1  0.13692997  0.87546993  0.49526925  1
  H+  H95  1  0.77876951  0.88518866  0.33912190  1
  H+  H96  1  0.41695699  0.58674747  0.89952328  1
  H+  H97  1  0.91291679  0.83432583  0.23488185  1
  H+  H98  1  0.61729842  0.53038765  0.21897902  1
  H+  H99  1  0.91354384  0.33535482  0.56441467  1
  H+  H100  1  0.53121188  0.14296404  0.50318408  1
  H+  H101  1  0.33823515  0.69224833  0.44211973  1
  H+  H102  1  0.23233548  0.86088816  0.64853668  1
  H+  H103  1  0.89887728  0.52821123  0.50340107  1
  H+  H104  1  0.85604653  0.48472604  0.81376719  1
  H+  H105  1  0.97130951  0.36854803  0.66408683  1
  H+  H106  1  0.19021826  0.58205202  0.28309373  1
  H+  H107  1  0.02646809  0.64273267  0.81406793  1
  H+  H108  1  0.89538410  0.00368184  0.98293405  1
  H+  H109  1  0.22990416  0.63262180  0.98265746  1
  H+  H110  1  0.92642747  0.39159987  -0.02198255  1
  H+  H111  1  0.40688773  0.58977657  0.56008667  1
  H+  H112  1  0.86918734  0.14266839  0.33616070  1
  H+  H113  1  0.60662446  0.21587096  0.99960217  1
  H+  H114  1  0.42183978  0.08238916  0.56556258  1
  H+  H115  1  0.11227082  0.23297590  0.48934031  1
  H+  H116  1  0.10581500  0.47746757  0.67352056  1
  H+  H117  1  0.38904793  0.61386921  0.83781036  1
  H+  H118  1  0.98635175  0.61094381  0.33597147  1
  H+  H119  1  0.62712900  0.01034351  0.18076028  1
  H+  H120  1  0.27031008  0.11525670  0.99978653  1
  H+  H121  1  0.17432046  0.58338009  0.60479584  1
  H+  H122  1  0.20909774  0.86776616  0.99480263  1
  H+  H123  1  0.89689692  0.35055557  0.84165017  1
  H+  H124  1  0.40604832  0.87710452  0.51363664  1
  H+  H125  1  0.36836361  0.97558029  0.81968602  1
  H+  H126  1  0.87339619  0.60041279  0.18549790  1
  H+  H127  1  0.64524747  0.57341226  0.60180481  1
  H+  H128  1  0.88167540  0.64825789  0.34041873  1
  H+  H129  1  0.12297478  0.37657601  1.00214326  1
  H+  H130  1  0.02688139  0.38934914  0.01206707  1
  H+  H131  1  0.90623268  0.78730359  0.50339113  1
  H+  H132  1  0.15864358  0.13458700  0.17383201  1
  H+  H133  1  0.52025136  0.12591530  0.15762543  1
  H+  H134  1  0.36230246  0.30911626  0.95644027  1
  H+  H135  1  0.88405150  0.76285684  -0.00399295  1
  H+  H136  1  1.03070357  0.38267672  0.82894777  1
  H+  H137  1  0.47330235  0.61146113  0.17482051  1
  H+  H138  1  0.27558369  0.89965516  0.35219225  1
  H+  H139  1  0.62135346  0.33256914  0.16578411  1
  H+  H140  1  0.26870308  0.39811595  0.67115561  1
  H+  H141  1  0.92014244  0.08310069  0.26425076  1
  H+  H142  1  0.14401215  0.79182509  0.48629651  1
  H+  H143  1  -0.01407321  0.58095445  0.65918269  1
  H+  H144  1  0.89939963  0.87221467  0.32663579  1
  H+  H145  1  0.53601268  0.89238498  0.49745988  1
  H+  H146  1  0.08738580  0.92451110  0.42402671  1
  H+  H147  1  0.37565676  0.48256278  0.82774064  1
  H+  H148  1  0.86264725  0.84175091  0.83591886  1
  H+  H149  1  0.40088231  0.16151723  0.80398985  1
  H+  H150  1  0.88832263  0.02744084  0.50226766  1
  H+  H151  1  0.38578543  0.52111845  0.32990656  1
  H+  H152  1  0.38800010  0.62387723  -0.00651899  1
  H+  H153  1  0.28569300  0.89093336  0.49258395  1
  H+  H154  1  0.60661423  0.12004794  0.15676165  1
  H+  H155  1  0.99596771  0.59906891  0.50881811  1
  H+  H156  1  0.87576024  0.85295333  0.99072180  1
  H+  H157  1  0.13411755  0.01158140  0.31718007  1
  H+  H158  1  0.51453230  0.36192832  0.14715764  1
  H+  H159  1  0.37743956  0.41252339  0.01778050  1
  H+  H160  1  0.02888643  0.89912134  0.48576211  1
  H+  H161  1  0.37254780  0.39029340  0.15903804  1
  H+  H162  1  0.81385720  0.89744855  0.04993108  1
  H+  H163  1  0.24373460  0.62436625  0.17568509  1
  H+  H164  1  0.13021497  0.24521817  0.16443136  1
  H+  H165  1  0.60906387  0.44359320  0.14067614  1
  H+  H166  1  0.77992528  0.13457344  0.82101837  1
  H+  H167  1  0.61522732  0.64285650  0.34101455  1
  H+  H168  1  0.42475374  0.25947784  0.80635368  1
  H+  H169  1  0.41089080  0.13811301  0.65191074  1
  H+  H170  1  0.55086054  0.45912048  0.01405263  1
  H+  H171  1  0.51498233  0.37566929  0.51345536  1
  H+  H172  1  0.23086427  0.35923878  -0.00379699  1
  H+  H173  1  0.38959776  0.02312776  0.17993139  1
  H+  H174  1  0.87974213  0.73784545  0.33543665  1
  H+  H175  1  0.84578646  0.41563025  -0.10351853  1
  H+  H176  1  0.14045805  0.11231276  0.66136726  1
  H+  H177  1  0.84523150  0.84137415  0.67095277  1
  H+  H178  1  0.60982879  0.63605789  0.99876763  1
  H+  H179  1  0.88548381  0.27124940  0.66139036  1
  H+  H180  1  0.61469237  0.60308779  0.50955620  1
  H+  H181  1  0.39085582  1.03841190  0.65975606  1
  H+  H182  1  0.35807683  0.48018131  0.50290412  1
  H+  H183  1  0.52052697  0.63638694  0.00258486  1
  H+  H184  1  0.14341133  0.26776630  -0.00648159  1
  H+  H185  1  0.27900291  0.13413798  0.15339168  1
  H+  H186  1  0.15944064  0.37848168  0.17583707  1
  H+  H187  1  0.83791656  0.16964655  0.72898259  1
  H+  H188  1  1.02755017  0.14075654  0.66780843  1
  H+  H189  1  0.62501751  0.97961744  0.49242368  1
  H+  H190  1  0.84283011  0.71128449  0.81555375  1
  H+  H191  1  0.61778031  0.37659024  0.35124953  1
  H+  H192  1  0.39232105  0.01983163  0.33435462  1
  H+  H193  1  0.09166797  0.16739841  0.06726440  1
  H+  H194  1  0.93187313  0.33874940  0.17188856  1
  H+  H195  1  0.62668105  0.76308611  -0.03082184  1
  H+  H196  1  0.10367243  0.88930498  0.82563980  1
  H+  H197  1  0.48491124  0.11128064  0.82945695  1
  H+  H198  1  0.84831439  0.96369320  0.14564814  1
  H+  H199  1  0.39703617  0.02242226  0.50612386  1
  H+  H200  1  0.61791464  0.59577862  0.66563018  1
  H+  H201  1  0.77224345  0.18919548  0.01383396  1
  H+  H202  1  0.33772355  0.66546825  0.76410933  1
  H+  H203  1  0.37804460  0.53166518  0.65737723  1
  H+  H204  1  0.63151106  0.76622335  0.17298483  1
  H+  H205  1  0.71719277  0.60330916  0.81998808  1
  H+  H206  1  0.91682513  0.19992911  0.98815307  1
  H+  H207  1  0.24260503  0.36978534  0.17932257  1
  H+  H208  1  0.77573509  0.88749293  0.49422954  1
  H+  H209  1  0.60773796  0.72496648  0.49212582  1
  H+  H210  1  0.73464230  0.11721402  0.50343176  1
  H+  H211  1  0.35271808  0.96588907  0.01047638  1
  H+  H212  1  0.77610608  0.39431779  0.50422111  1
  H+  H213  1  0.52717778  0.64370680  0.83368119  1
  H+  H214  1  0.97995235  0.11292573  0.32323402  1
  H+  H215  1  0.83151704  0.41389101  0.40235065  1
  H+  H216  1  0.36783264  0.64536350  0.67144753  1
  H+  H217  1  0.58858310  0.46957201  0.83889832  1
  H+  H218  1  0.62242924  0.46697281  0.35833516  1
  H+  H219  1  0.21951343  0.10144696  0.32157970  1
  H+  H220  1  0.86402747  0.96883374  0.81641815  1
  H+  H221  1  0.62130065  0.23070065  0.65448812  1
  H+  H222  1  0.39133147  0.86290846  0.83078644  1
  H+  H223  1  0.13538323  1.02432983  -0.01961278  1
  H+  H224  1  0.38031917  0.08789513  0.98754663  1
  H+  H225  1  0.39207866  0.78361527  0.66556431  1
  H+  H226  1  -0.02676602  0.36864903  0.50503301  1
  H+  H227  1  0.22898375  0.61428676  0.83031870  1
  H+  H228  1  0.37136917  0.73043729  0.15919049  1
  H+  H229  1  0.29780749  0.80132011  0.47200189  1
  H+  H230  1  0.07615725  0.66604374  0.03858958  1
  H+  H231  1  0.61446507  0.87689607  0.16731185  1
  H+  H232  1  0.13521178  0.37364322  0.50603240  1
  H+  H233  1  0.35382408  0.10851023  0.34759396  1
  H+  H234  1  0.13781892  0.03214551  0.49969568  1
  H+  H235  1  0.09888611  1.01641521  0.13992755  1
  H+  H236  1  0.38981730  0.27132243  0.36563521  1
  H+  H237  1  0.37262021  0.48161134  0.16649957  1
  H+  H238  1  0.12026543  0.72459257  0.21319085  1
  H+  H239  1  0.84049937  0.37134552  0.19692512  1
  H+  H240  1  0.33523509  0.15338809  0.09174638  1
  H+  H241  1  0.76729692  0.87290025  -0.01649966  1
  H+  H242  1  0.61415634  0.88768940  0.83612698  1
  H+  H243  1  0.98951381  0.87016860  0.32095150  1
  H+  H244  1  0.89011901  0.36467732  0.32946069  1
  H+  H245  1  0.11549621  0.23110504  0.66848769  1
  H+  H246  1  0.15049125  0.50157809  0.15891512  1
  H+  H247  1  0.12726403  0.36465305  0.65927933  1
  H+  H248  1  0.53469803  0.35937100  0.66977624  1
  H+  H249  1  0.83742766  0.20508044  0.17401513  1
  H+  H250  1  0.11609544  0.14531766  0.49143501  1
  H+  H251  1  0.38725489  0.86535821  0.32971020  1
  H+  H252  1  0.64841436  0.35779667  -0.01851337  1
  H+  H253  1  0.77727949  0.14030501  0.66948058  1
  H+  H254  1  0.12810918  0.63172978  0.34391721  1
  H+  H255  1  0.14831730  0.11705859  0.99145963  1
  H+  H256  1  0.63130484  0.76681802  0.86935361  1
  H+  H257  1  0.64586938  0.11712880  0.50831133  1
  H+  H258  1  0.10001297  0.88704364  1.00135063  1
  H+  H259  1  0.45897184  0.33691672  -0.02319405  1
  H+  H260  1  0.86582493  0.10132923  0.16139622  1
  H+  H261  1  0.27217140  0.06184301  0.38872373  1
  H+  H262  1  0.61492181  0.73138755  0.33703785  1
  H+  H263  1  0.73388793  0.62062356  -0.01716715  1
  H+  H264  1  0.76428918  0.39482907  0.81956684  1
  H+  H265  1  0.11576517  0.23154953  0.81794290  1
  H+  H266  1  0.73530023  0.13237208  0.32120580  1
  H+  H267  1  0.37412557  0.73680116  0.00064730  1
  H+  H268  1  0.84091816  0.46893916  0.19854317  1
  H+  H269  1  1.03399588  0.12786055  1.00664402  1
  H+  H270  1  0.63075274  0.27027788  0.82658505  1
  H+  H271  1  0.76790998  0.78080252  0.71289606  1
  H+  H272  1  0.13937921  0.26711711  0.32953895  1
  H+  H273  1  0.00134805  0.94370254  0.13924696  1
  H+  H274  1  0.39082749  0.74234012  0.35386847  1
  H+  H275  1  0.89611280  0.12078088  0.65590691  1
  H+  H276  1  0.06998464  0.86420135  0.15887006  1
  H+  H277  1  0.63506387  0.36461183  0.53798744  1
  H+  H278  1  0.65554637  0.52966019  0.96919846  1
  H+  H279  1  0.11774631  0.64489021  -0.01849556  1
  H+  H280  1  0.88814742  0.18712331  -0.03953150  1
  H+  H281  1  0.67115311  0.59260726  0.39101665  1
  H+  H282  1  0.12486018  0.77716928  -0.01753574  1
  H+  H283  1  0.59475776  0.91483045  0.76967814  1
  H+  H284  1  0.03131603  0.63568037  0.20523609  1
  H+  H285  1  0.12675404  0.72562227  0.66235868  1
  H+  H286  1  0.85934435  0.38613962  0.49615486  1
  H+  H287  1  0.47939040  0.35669221  0.37236117  1
  H+  H288  1  0.58103437  0.66299805  0.09701926  1
  H+  H289  1  0.58921359  0.90735234  0.40001575  1
  H+  H290  1  0.42188521  0.08181879  0.27489163  1
  H+  H291  1  0.60780080  0.46118859  0.66097006  1
  H+  H292  1  0.88979144  0.27420128  0.32881458  1
  H+  H293  1  0.06460869  0.41396452  0.14919349  1
  H+  H294  1  0.67494357  0.09364517  0.88922454  1
  H+  H295  1  0.67379344  0.08069179  0.59860105  1
  H+  H296  1  0.61946340  0.23143129  0.51188394  1
  H+  H297  1  0.57749523  0.67134368  0.73742550  1
  H+  H298  1  0.56159573  0.39241655  0.05242003  1
  H+  H299  1  0.38277180  0.27640519  0.51613926  1
  H+  H300  1  0.07647189  0.41838707  0.43281016  1
  H+  H301  1  0.41371536  0.58092747  0.23550886  1
  H+  H302  1  0.90269298  0.32236505  0.24361564  1
  H+  H303  1  0.08324606  0.16247574  0.39707758  1
  H+  H304  1  0.81088052  0.19762442  0.07982741  1
  H+  H305  1  0.90614147  0.57894546  0.24892395  1
  H+  H306  1  0.66957843  0.59038256  0.88327331  1
  H+  H307  1  0.65889767  0.31828109  0.92028609  1
  H+  H308  1  0.04569579  0.15444993  0.17187591  1
  H+  H309  1  0.57520662  0.66804663  0.43205901  1
  H+  H310  1  0.67638134  0.61204396  0.25430703  1
  H+  H311  1  0.33352440  0.42730403  0.72686936  1
  H+  H312  1  0.58857050  0.91226538  0.10823104  1
  H+  H313  1  0.16188669  0.07715234  0.60314590  1
  H+  H314  1  0.11323799  0.37740362  0.34346732  1
  H+  H315  1  0.59123143  0.17125920  0.75485359  1
  H+  H316  1  0.05999474  0.91688112  0.73673601  1
  H+  H317  1  0.94944150  0.84040593  0.83840549  1
  H+  H318  1  0.06744906  0.93552558  0.05183540  1
  H+  H319  1  0.81777711  0.65716636  0.75167803  1
  H+  H320  1  0.17106677  0.85671567  0.26032684  1
  H+  H321  1  0.15972913  0.33882160  0.59951966  1
  H+  H322  1  0.82064753  0.89553542  0.76639464  1
  H+  H323  1  0.38552330  0.29439882  0.61106858  1
  H+  H324  1  0.76820081  0.37207027  0.66469535  1
  H+  H325  1  0.42946037  0.84461076  0.60703893  1
  H+  H326  1  0.84047961  0.17204723  0.39678954  1
  H+  H327  1  0.83066498  0.65698746  0.06009458  1
  H+  H328  1  0.58757482  0.17286687  0.41045244  1
  H+  H329  1  0.91451635  0.59521200  0.87661308  1
  H+  H330  1  0.81044807  0.41060952  0.08014669  1
  H+  H331  1  0.33721473  0.16728449  0.44524340  1
  H+  H332  1  0.17105647  0.82711012  0.59074868  1
  H+  H333  1  0.27635231  0.38474240  0.34874137  1
  H+  H334  1  0.27843880  0.64386703  0.67514511  1
  H+  H335  1  0.85349284  0.71952032  0.66220632  1
  H+  H336  1  0.11147372  0.72655937  0.11029374  1
  H+  H337  1  0.33733432  0.23546255  0.27446462  1
  H+  H338  1  0.16869547  0.84002727  0.89018282  1
  H+  H339  1  0.17114668  0.09196909  0.88634462  1
  H+  H340  1  0.41554142  0.23230436  0.71558051  1
  H+  H341  1  0.31389028  0.26040517  0.27636024  1
  H+  H342  1  0.71256212  0.83787305  0.65880367  1
  H+  H343  1  0.22337644  0.37110447  0.50915159  1
  H+  H344  1  0.57930593  0.15713213  0.06006822  1
  H+  H345  1  0.85818673  0.43895505  0.08320649  1
  H+  H346  1  0.32951167  0.41666447  0.44673834  1
  H+  H347  1  0.90426269  0.09525668  0.97894999  1
  H+  H348  1  0.57935047  0.39828388  0.45657956  1
  H+  H349  1  0.33738100  0.91226936  0.41093578  1
  H+  H350  1  0.41564251  0.83323663  0.27044021  1
  H+  H351  1  0.33683589  0.92621185  0.72619699  1
  H+  H352  1  0.11084568  0.81812849  0.35258320  1
  H+  H353  1  0.32230494  0.91434334  0.11448101  1
  H+  H354  1  0.43454761  0.83100720  0.91568669  1
  H+  H355  1  0.86621965  0.22962559  0.49054613  1
  H+  H356  1  0.61500404  0.64240644  0.82653348  1
  H+  H357  1  0.08590003  0.17341147  0.75696602  1
  H+  H358  1  0.74905043  0.62347364  0.34710275  1
  H+  H359  1  0.07652278  0.41694777  0.73260966  1
  H+  H360  1  0.67129890  0.83115146  0.27074904  1
  H+  H361  1  0.92839379  0.07401908  0.88461389  1
  H+  H362  1  0.92398724  0.09071586  0.59719666  1
  H+  H363  1  0.22658447  0.11920945  0.50923318  1
  H+  H364  1  0.65682115  0.31896453  0.27352914  1
  H+  H365  1  0.33462772  0.42575293  0.07568096  1
  H+  H366  1  0.14623555  0.71460515  0.11014748  1
  H+  H367  1  0.27829166  0.88720127  0.82096016  1
  H+  H368  1  0.86449886  0.68488944  0.43623869  1
  H+  H369  1  0.55181265  0.97103109  0.04310084  1
  H+  H370  1  0.09704109  0.67231459  0.72567574  1
  H+  H371  1  0.66032426  0.08434829  0.23453580  1
  H+  H372  1  0.75056242  0.11626889  0.16523958  1
  H+  H373  1  0.08370624  0.60295562  0.43453689  1
  H+  H374  1  0.66583692  0.82813662  0.56307831  1
  H+  H375  1  0.92244741  0.83845447  0.59637497  1
  H+  H376  1  0.81627886  0.39410414  0.73349884  1
  H+  H377  1  0.17783155  0.33510895  0.89432896  1
  H+  H378  1  0.11640588  0.42942008  0.06191080  1
  H+  H379  1  0.61754880  0.51539643  0.51560572  1
  H+  H380  1  0.14184976  0.61719718  0.66110165  1
  H+  H381  1  0.12340343  0.39133900  0.82329917  1
  H+  H382  1  0.92552978  0.55465368  0.60429908  1
  H+  H383  1  0.89271839  0.52493548  0.33903716  1
  O2-  O384  1  0.09983353  0.18354787  0.14944064  1
  O2-  O385  1  0.08447947  0.17300880  0.47330888  1
  O2-  O386  1  0.08300627  0.17154014  0.80323385  1
  O2-  O387  1  0.12498573  0.44166581  0.13825253  1
  O2-  O388  1  0.07433262  0.42689468  0.47772790  1
  O2-  O389  1  0.08922410  0.41839107  0.81035469  1
  O2-  O390  1  0.09108630  0.66138940  0.21926328  1
  O2-  O391  1  0.09625142  0.59649053  0.47680162  1
  O2-  O392  1  0.08907048  0.67471109  0.80477698  1
  O2-  O393  1  0.04942783  0.97964886  0.11261549  1
  O2-  O394  1  0.08978242  0.92904230  0.46970428  1
  O2-  O395  1  0.06516959  0.91278598  0.81898563  1
  O2-  O396  1  0.33941818  0.16285244  0.13699069  1
  O2-  O397  1  0.33869366  0.17109238  0.49001856  1
  O2-  O398  1  0.39274274  0.20568305  0.78325700  1
  O2-  O399  1  0.34132753  0.42115664  0.14865820  1
  O2-  O400  1  0.32792165  0.41631262  0.49194623  1
  O2-  O401  1  0.34758159  0.42194565  0.81263490  1
  O2-  O402  1  0.33945597  0.67103103  0.14112077  1
  O2-  O403  1  0.31819719  0.69914471  0.48492827  1
  O2-  O404  1  0.33620849  0.66274359  0.81007859  1
  O2-  O405  1  0.33589882  0.91715187  0.15852687  1
  O2-  O406  1  0.33806253  0.89581113  0.47450170  1
  O2-  O407  1  0.33900293  0.91447101  0.80586097  1
  O2-  O408  1  0.57962760  0.15348059  0.13982415  1
  O2-  O409  1  0.59281849  0.17572840  0.49019707  1
  O2-  O410  1  0.58874580  0.16947650  0.80028987  1
  O2-  O411  1  0.57373100  0.38368254  0.12853736  1
  O2-  O412  1  0.57703794  0.40101571  0.50141965  1
  O2-  O413  1  0.56274754  0.40726027  0.85131508  1
  O2-  O414  1  0.57746860  0.66345738  0.14249110  1
  O2-  O415  1  0.57303703  0.66457917  0.47709296  1
  O2-  O416  1  0.58875856  0.67978365  0.82139990  1
  O2-  O417  1  0.58382307  0.90780704  0.15313855  1
  O2-  O418  1  0.59482159  0.91850659  0.47914359  1
  O2-  O419  1  0.58913929  0.91852775  0.81498327  1
  O2-  O420  1  0.81314856  0.15017031  0.15145401  1
  O2-  O421  1  0.83717778  0.17039429  0.47328939  1
  O2-  O422  1  0.84059961  0.16451949  0.80640463  1
  O2-  O423  1  0.80731117  0.40302357  0.20361230  1
  O2-  O424  1  0.83019079  0.41769538  0.48088194  1
  O2-  O425  1  0.82608578  0.42019104  0.80832169  1
  O2-  O426  1  0.81894015  0.65386751  0.14621776  1
  O2-  O427  1  0.86929838  0.68958128  0.48077385  1
  O2-  O428  1  0.81495172  0.65079231  0.79817368  1
  O2-  O429  1  0.82019971  0.90295078  0.13108714  1
  O2-  O430  1  0.83684267  0.92108251  0.47982879  1
  O2-  O431  1  0.82549440  0.90648121  0.81068115  1
  O2-  O432  1  0.18017350  0.09436655  0.18244641  1
  O2-  O433  1  0.16404858  0.09101695  0.51750838  1
  O2-  O434  1  0.16228296  0.08165082  0.84241354  1
  O2-  O435  1  0.18112788  0.34153479  0.19283352  1
  O2-  O436  1  0.16042016  0.33890229  0.52031610  1
  O2-  O437  1  0.17847909  0.33883471  0.84948561  1
  O2-  O438  1  0.18631207  0.58444787  0.19458028  1
  O2-  O439  1  0.26037033  0.73228075  0.47130525  1
  O2-  O440  1  0.16828494  0.58721832  0.84511070  1
  O2-  O441  1  0.18073187  0.83867275  0.21928511  1
  O2-  O442  1  0.16813024  0.84504984  0.50926469  1
  O2-  O443  1  0.17375674  0.84029831  0.84546473  1
  O2-  O444  1  0.42247619  0.08495160  0.19224370  1
  O2-  O445  1  0.42291688  0.08277510  0.51967670  1
  O2-  O446  1  0.42345752  0.08267042  0.84255394  1
  O2-  O447  1  0.41716930  0.32257987  0.17099479  1
  O2-  O448  1  0.41155002  0.33342393  0.53669224  1
  O2-  O449  1  0.46975513  0.36591847  0.83992811  1
  O2-  O450  1  0.41274409  0.57956494  0.18918512  1
  O2-  O451  1  0.40228517  0.58039907  0.51553167  1
  O2-  O452  1  0.42065347  0.58536535  0.85445193  1
  O2-  O453  1  0.41835229  0.82846782  0.18938111  1
  O2-  O454  1  0.43815327  0.84917924  0.53108958  1
  O2-  O455  1  0.42177316  0.83186683  0.84501867  1
  O2-  O456  1  0.65490052  0.07339379  0.18853386  1
  O2-  O457  1  0.67526516  0.08508984  0.52076012  1
  O2-  O458  1  0.67280831  0.08963685  0.84392758  1
  O2-  O459  1  0.65115125  0.30660384  0.18765593  1
  O2-  O460  1  0.67262484  0.33933442  0.54977396  1
  O2-  O461  1  0.65788612  0.32903608  0.84569768  1
  O2-  O462  1  0.66045163  0.59045320  0.21253800  1
  O2-  O463  1  0.64564314  0.57610133  0.52833867  1
  O2-  O464  1  0.65756951  0.57813243  0.83944943  1
  O2-  O465  1  0.66449893  0.82564393  0.18964513  1
  O2-  O466  1  0.67072979  0.83047811  0.51768838  1
  O2-  O467  1  0.64213012  0.82227484  0.88906960  1
  O2-  O468  1  0.90339391  0.07355088  0.16429567  1
  O2-  O469  1  0.91744171  0.08907684  0.51515695  1
  O2-  O470  1  0.92263639  0.08066286  0.84077146  1
  O2-  O471  1  0.88212030  0.31342207  0.19847738  1
  O2-  O472  1  0.91197303  0.33444658  0.51938259  1
  O2-  O473  1  0.92907333  0.32382632  0.85662123  1
  O2-  O474  1  0.89911062  0.56780374  0.20351479  1
  O2-  O475  1  0.93757559  0.58758495  0.51810169  1
  O2-  O476  1  0.91412939  0.58891276  0.83180180  1
  O2-  O477  1  0.90741088  0.82554972  0.18864978  1
  O2-  O478  1  0.93318143  0.84919944  0.51730605  1
  O2-  O479  1  0.88754650  0.80476703  0.84757189  1
  O2-  O480  1  0.16156783  0.07433868  0.30286521  1
  O2-  O481  1  0.16308404  0.07488210  0.64784083  1
  O2-  O482  1  0.17569202  0.08617087  0.97282726  1
  O2-  O483  1  0.17043154  0.32950549  0.31867097  1
  O2-  O484  1  0.16057841  0.33757632  0.64492229  1
  O2-  O485  1  0.17202307  0.32873697  0.97878681  1
  O2-  O486  1  0.17916514  0.58005576  0.32697013  1
  O2-  O487  1  0.17127507  0.58196176  0.64900570  1
  O2-  O488  1  0.17085046  0.60518008  0.96632976  1
  O2-  O489  1  0.14383600  0.87386722  0.33230718  1
  O2-  O490  1  0.17397802  0.81863509  0.63478666  1
  O2-  O491  1  0.15237066  0.84053213  0.97444495  1
  O2-  O492  1  0.42151455  0.08180876  0.32010196  1
  O2-  O493  1  0.42820072  0.09584444  0.63996101  1
  O2-  O494  1  0.41035818  0.05640326  0.97386731  1
  O2-  O495  1  0.41659659  0.33047108  0.37934469  1
  O2-  O496  1  0.36365989  0.26455540  0.65121005  1
  O2-  O497  1  0.40769101  0.29478496  0.95276904  1
  O2-  O498  1  0.41374706  0.57900798  0.31016976  1
  O2-  O499  1  0.41061194  0.59340278  0.64268570  1
  O2-  O500  1  0.41699178  0.59100802  0.98020983  1
  O2-  O501  1  0.41861163  0.83628041  0.31545400  1
  O2-  O502  1  0.42599860  0.84510498  0.65269677  1
  O2-  O503  1  0.44078519  0.83755299  0.96212146  1
  O2-  O504  1  0.67886849  0.11215569  0.30169249  1
  O2-  O505  1  0.67283679  0.08131801  0.64423422  1
  O2-  O506  1  0.68209649  0.10286830  0.96819069  1
  O2-  O507  1  0.66749171  0.32761196  0.31757680  1
  O2-  O508  1  0.67505661  0.33844470  0.61735927  1
  O2-  O509  1  0.66792271  0.31962189  0.96587717  1
  O2-  O510  1  0.68321209  0.58928884  0.34802057  1
  O2-  O511  1  0.64695672  0.56655145  0.64754601  1
  O2-  O512  1  0.67402577  0.59063068  0.96622226  1
  O2-  O513  1  0.67396903  0.83098117  0.31578955  1
  O2-  O514  1  0.65526909  0.82161385  0.64053666  1
  O2-  O515  1  0.66568601  0.82205168  0.95287414  1
  O2-  O516  1  0.91864748  0.08450919  0.30865709  1
  O2-  O517  1  0.92800121  0.09237905  0.64214579  1
  O2-  O518  1  0.93548739  0.06464925  0.97118232  1
  O2-  O519  1  0.91901203  0.33461943  0.31109321  1
  O2-  O520  1  0.91007970  0.33403014  0.64815362  1
  O2-  O521  1  0.94893571  0.36979235  1.01023850  1
  O2-  O522  1  0.92456055  0.58508233  0.32287252  1
  O2-  O523  1  0.93068398  0.53360064  0.64445543  1
  O2-  O524  1  0.91280437  0.59149776  0.95924897  1
  O2-  O525  1  0.92736004  0.84176191  0.30715404  1
  O2-  O526  1  0.91390487  0.82809832  0.64094168  1
  O2-  O527  1  0.91245552  0.82525183  0.98216941  1
  O2-  O528  1  0.09356164  0.16576062  0.02221609  1
  O2-  O529  1  0.08124336  0.16018825  0.35120329  1
  O2-  O530  1  0.08791255  0.17140036  0.68463124  1
  O2-  O531  1  0.09965679  0.41423484  0.01815142  1
  O2-  O532  1  0.08384591  0.40928148  0.35699917  1
  O2-  O533  1  0.07054511  0.41635594  0.68721552  1
  O2-  O534  1  0.07873266  0.67037069  -0.00568630  1
  O2-  O535  1  0.09477323  0.66366633  0.34462162  1
  O2-  O536  1  0.09812847  0.66554087  0.68081698  1
  O2-  O537  1  0.06653454  0.91770878  0.00836494  1
  O2-  O538  1  0.09140611  0.91656031  0.34626051  1
  O2-  O539  1  0.05955864  0.91481345  0.69174865  1
  O2-  O540  1  0.33155315  0.14026914  0.01500285  1
  O2-  O541  1  0.30799920  0.11679058  0.36844696  1
  O2-  O542  1  0.43326771  0.24950188  0.67079929  1
  O2-  O543  1  0.33324909  0.42588980  0.02945022  1
  O2-  O544  1  0.33531818  0.42106065  0.36511284  1
  O2-  O545  1  0.32998509  0.43387157  0.68271796  1
  O2-  O546  1  0.33832469  0.67734252  0.01606763  1
  O2-  O547  1  0.38196251  0.69537109  0.38203901  1
  O2-  O548  1  0.33887779  0.67641613  0.68978452  1
  O2-  O549  1  0.31096413  0.91156813  0.03354036  1
  O2-  O550  1  0.33598122  0.92206127  0.36237457  1
  O2-  O551  1  0.34172487  0.93343686  0.68113996  1
  O2-  O552  1  0.57620850  0.15541626  0.01464196  1
  O2-  O553  1  0.58632602  0.17201132  0.36507997  1
  O2-  O554  1  0.59441836  0.17413428  0.67517388  1
  O2-  O555  1  0.55450218  0.40702406  0.00963057  1
  O2-  O556  1  0.59068500  0.40676774  0.37195082  1
  O2-  O557  1  0.59673372  0.40143249  0.66952609  1
  O2-  O558  1  0.58215973  0.66687544  0.01639282  1
  O2-  O559  1  0.58018730  0.66918612  0.35057310  1
  O2-  O560  1  0.57295140  0.66269860  0.69272345  1
  O2-  O561  1  0.58350053  0.94243863  0.03109212  1
  O2-  O562  1  0.58921588  0.90180210  0.35502128  1
  O2-  O563  1  0.59020212  0.91658912  0.69232706  1
  O2-  O564  1  0.80928366  0.23140888  0.04475270  1
  O2-  O565  1  0.84221136  0.17586359  0.35106092  1
  O2-  O566  1  0.83838768  0.17476047  0.68350975  1
  O2-  O567  1  0.84896856  0.41982718  -0.05874248  1
  O2-  O568  1  0.83674153  0.41654762  0.35688591  1
  O2-  O569  1  0.80306349  0.36046677  0.69432776  1
  O2-  O570  1  0.83463603  0.66478256  0.01532256  1
  O2-  O571  1  0.84961244  0.67815651  0.35212696  1
  O2-  O572  1  0.81937328  0.66216507  0.68154234  1
  O2-  O573  1  0.82400045  0.89916093  0.00520798  1
  O2-  O574  1  0.84010667  0.91608845  0.35341101  1
  O2-  O575  1  0.79436210  0.83823048  0.69531562  1
