# generated using pymatgen
data_H2O
_symmetry_space_group_name_H-M   'P 1'
_cell_length_a   17.97408070
_cell_length_b   17.97271823
_cell_length_c   21.98972622
_cell_angle_alpha   90.00672297
_cell_angle_beta   90.02958714
_cell_angle_gamma   119.99268885
_symmetry_Int_Tables_number   1
_chemical_formula_structural   H2O
_chemical_formula_sum   'H384 O192'
_cell_volume   6152.37500112
_cell_formula_units_Z   192
loop_
 _symmetry_equiv_pos_site_id
 _symmetry_equiv_pos_as_xyz
  1  'x, y, z'
loop_
 _atom_type_symbol
 _atom_type_oxidation_number
  H+  1.0
  O2-  -2.0
loop_
 _atom_site_type_symbol
 _atom_site_label
 _atom_site_symmetry_multiplicity
 _atom_site_fract_x
 _atom_site_fract_y
 _atom_site_fract_z
 _atom_site_occupancy
  H+  H0  1  0.04701346  0.39966877  0.68475799  1
  H+  H1  1  0.09067226  0.42146422  0.78252508  1
  H+  H2  1  0.63565443  0.26193033  0.99245904  1
  H+  H3  1  0.22060217  0.11296035  0.66339718  1
  H+  H4  1  0.10463021  0.38664015  0.34214413  1
  H+  H5  1  0.67686732  0.53560226  1.00375535  1
  H+  H6  1  0.38728723  0.11107370  0.81764385  1
  H+  H7  1  0.71898053  0.10290966  0.51057689  1
  H+  H8  1  0.98011624  0.12288105  0.98755311  1
  H+  H9  1  0.64251058  0.86521601  -0.03477792  1
  H+  H10  1  0.27592960  0.58665776  0.27154978  1
  H+  H11  1  0.22117615  0.61031654  0.51807081  1
  H+  H12  1  0.85953438  0.38439817  0.82496372  1
  H+  H13  1  0.76461737  0.13997266  0.16414032  1
  H+  H14  1  0.62947276  0.12132203  0.17514807  1
  H+  H15  1  0.16232519  0.87417221  0.83183733  1
  H+  H16  1  0.62707081  0.09886621  0.50897161  1
  H+  H17  1  0.89772996  0.62973330  0.83748318  1
  H+  H18  1  0.35314971  0.13490235  0.66473869  1
  H+  H19  1  0.69190661  0.93143114  0.69082367  1
  H+  H20  1  0.86648064  0.38939007  0.15177586  1
  H+  H21  1  0.62785595  0.20470929  0.67677319  1
  H+  H22  1  0.84767020  0.04548621  0.65830653  1
  H+  H23  1  -0.01860866  0.37939147  0.85514603  1
  H+  H24  1  0.35891890  0.47408636  0.68338915  1
  H+  H25  1  0.10757735  0.88447924  0.34358261  1
  H+  H26  1  0.50784490  0.63729401  0.15338620  1
  H+  H27  1  0.66060586  0.31714814  0.89496093  1
  H+  H28  1  0.13543605  1.01961664  0.66695955  1
  H+  H29  1  0.86979833  0.86281039  -0.00174390  1
  H+  H30  1  0.39943368  0.03267470  0.98131698  1
  H+  H31  1  0.87685903  0.64068953  0.67110738  1
  H+  H32  1  0.33544212  0.10860822  0.14645068  1
  H+  H33  1  0.08699202  0.17574396  0.76256943  1
  H+  H34  1  0.13495973  0.23594063  0.00033975  1
  H+  H35  1  0.70321400  0.04536139  0.65526111  1
  H+  H36  1  0.22074447  0.85483953  0.50746128  1
  H+  H37  1  0.91156667  0.13240571  0.83003477  1
  H+  H38  1  0.28271529  0.73859658  0.40848173  1
  H+  H39  1  0.22395641  0.86865846  0.65253330  1
  H+  H40  1  0.27427953  0.64031259  1.00928030  1
  H+  H41  1  0.12638339  0.93834233  0.16211143  1
  H+  H42  1  0.35854688  0.22211745  0.50610968  1
  H+  H43  1  0.37332354  0.52282561  0.84437996  1
  H+  H44  1  0.61193090  0.46494746  0.33863563  1
  H+  H45  1  0.60296764  0.97314307  0.84189212  1
  H+  H46  1  0.12973865  0.39077514  0.68852384  1
  H+  H47  1  0.16754746  0.09602904  0.27629353  1
  H+  H48  1  0.58120327  0.90460213  0.12190181  1
  H+  H49  1  0.26411622  0.64931064  0.16246054  1
  H+  H50  1  0.61206484  0.97382475  -0.02799704  1
  H+  H51  1  0.58696705  0.66901538  0.05989850  1
  H+  H52  1  0.62171383  0.47064000  0.83560669  1
  H+  H53  1  0.42826412  0.43770939  0.16590002  1
  H+  H54  1  0.25993897  0.63353030  0.83102541  1
  H+  H55  1  0.90499394  0.08220029  0.27631669  1
  H+  H56  1  0.05755371  0.17947312  0.12108828  1
  H+  H57  1  0.48364811  0.87105942  0.33681691  1
  H+  H58  1  0.07629357  0.22593042  0.18606698  1
  H+  H59  1  0.13326669  0.48352684  0.01370871  1
  H+  H60  1  0.02108554  0.39350633  0.15235616  1
  H+  H61  1  0.38252056  0.77153769  0.98529867  1
  H+  H62  1  0.78839437  0.80136195  0.61781161  1
  H+  H63  1  0.10396602  0.13077495  0.34907154  1
  H+  H64  1  0.14191420  0.86737060  -0.03509965  1
  H+  H65  1  0.47847822  0.61557287  0.99321441  1
  H+  H66  1  0.27595751  0.13851688  -0.01194458  1
  H+  H67  1  0.11199970  0.88461090  0.49533361  1
  H+  H68  1  0.37746024  0.63512692  0.17319001  1
  H+  H69  1  0.25248429  0.53876860  0.27465424  1
  H+  H70  1  0.98265408  0.35338640  0.50929641  1
  H+  H71  1  0.89197847  0.34848244  0.51421483  1
  H+  H72  1  0.23422955  0.37095058  0.12551744  1
  H+  H73  1  0.14301174  0.27912855  0.84207333  1
  H+  H74  1  0.08287037  0.62357617  0.32927482  1
  H+  H75  1  0.87157803  0.73657221  0.48645250  1
  H+  H76  1  0.25723156  0.41150841  0.14402656  1
  H+  H77  1  0.82857893  0.67442687  0.38705595  1
  H+  H78  1  0.62893445  0.61515707  0.80590677  1
  H+  H79  1  0.18561975  0.10258287  0.87812827  1
  H+  H80  1  0.41107547  0.36535644  0.99245157  1
  H+  H81  1  0.36404563  0.88711281  0.99039970  1
  H+  H82  1  0.39763012  0.61461384  0.52462609  1
  H+  H83  1  0.72694030  0.61782542  0.31767903  1
  H+  H84  1  0.13490812  0.02498601  0.95401349  1
  H+  H85  1  0.71667782  0.61363576  0.17365876  1
  H+  H86  1  0.88453900  0.39289170  0.67670571  1
  H+  H87  1  0.61161652  -0.03789938  0.50784479  1
  H+  H88  1  0.63264648  0.61227285  0.32238127  1
  H+  H89  1  0.80230978  0.65433197  0.09768294  1
  H+  H90  1  0.47256365  0.37368232  0.66217472  1
  H+  H91  1  0.75469670  0.35617042  0.66043168  1
  H+  H92  1  0.01300754  0.62691203  0.49449157  1
  H+  H93  1  0.39063986  0.36583874  0.50671403  1
  H+  H94  1  0.52157915  0.65086114  0.66092714  1
  H+  H95  1  0.59705499  0.39907768  0.67427138  1
  H+  H96  1  0.59527983  0.88166896  0.84927076  1
  H+  H97  1  0.88498917  0.10909939  0.50475167  1
  H+  H98  1  0.38708454  0.22053924  0.20952748  1
  H+  H99  1  0.61059739  0.77352220  0.14778434  1
  H+  H100  1  0.46533937  0.10036888  0.51888911  1
  H+  H101  1  0.29766978  0.64195835  0.74117240  1
  H+  H102  1  0.12926923  0.02183233  0.32879486  1
  H+  H103  1  0.87027095  -0.02396762  0.49309748  1
  H+  H104  1  0.75283182  0.79453643  0.84928718  1
  H+  H105  1  0.74256681  0.60207011  0.84393781  1
  H+  H106  1  0.64182368  0.28102747  0.16918752  1
  H+  H107  1  0.77221632  0.89419325  0.99720453  1
  H+  H108  1  0.36204329  0.89100092  0.34830925  1
  H+  H109  1  0.49900939  0.12474438  0.34352488  1
  H+  H110  1  0.13592105  0.26961524  0.67026377  1
  H+  H111  1  0.02623613  0.87942213  0.68079579  1
  H+  H112  1  0.39093665  0.60057018  0.33230229  1
  H+  H113  1  0.11188197  0.73348464  0.00081122  1
  H+  H114  1  0.85271830  0.71684534  0.66773662  1
  H+  H115  1  0.12856048  0.76814153  0.50346697  1
  H+  H116  1  0.36632131  0.22501234  1.00242354  1
  H+  H117  1  0.24885740  0.36279840  0.99600693  1
  H+  H118  1  0.73562128  0.60943263  0.50132845  1
  H+  H119  1  0.36488775  0.23121055  0.66389337  1
  H+  H120  1  0.52945471  0.13913201  1.00803160  1
  H+  H121  1  0.87660329  0.61673842  0.98751453  1
  H+  H122  1  0.53161098  0.40972805  0.13938011  1
  H+  H123  1  0.14454069  0.99664239  0.81819512  1
  H+  H124  1  0.61919112  0.72097938  0.34684857  1
  H+  H125  1  0.27878954  0.39424472  0.50297890  1
  H+  H126  1  0.64369579  0.37047869  0.17310879  1
  H+  H127  1  0.97246737  0.35627470  0.31589099  1
  H+  H128  1  0.85996700  0.97580835  0.34384391  1
  H+  H129  1  0.13305852  0.27295206  0.34705641  1
  H+  H130  1  0.89238044  -0.00476417  0.81044145  1
  H+  H131  1  0.60736688  0.09562668  0.33238503  1
  H+  H132  1  0.55256232  0.39645128  0.00265763  1
  H+  H133  1  0.60198260  0.66557676  0.69928728  1
  H+  H134  1  0.00696291  0.63205545  0.15502445  1
  H+  H135  1  0.38671064  1.01528509  0.81207353  1
  H+  H136  1  0.85075496  0.16187415  0.97851736  1
  H+  H137  1  0.13099145  0.61317274  0.84557538  1
  H+  H138  1  0.13423539  0.35910014  0.53467936  1
  H+  H139  1  0.70822127  0.32967522  0.33131171  1
  H+  H140  1  0.82760966  0.23114954  0.67657514  1
  H+  H141  1  0.62718161  0.64326802  0.00547871  1
  H+  H142  1  0.61180812  0.87323345  0.51362116  1
  H+  H143  1  0.11158809  -0.02618762  0.49863681  1
  H+  H144  1  0.59683355  0.63731817  0.16048779  1
  H+  H145  1  0.74861056  0.89008366  0.14900715  1
  H+  H146  1  0.58414163  0.65519654  0.44129654  1
  H+  H147  1  0.34710577  0.62862078  0.82784374  1
  H+  H148  1  1.00832680  0.11841113  0.50271084  1
  H+  H149  1  0.61268606  0.88170430  0.35749000  1
  H+  H150  1  0.63705171  0.38923463  0.00326751  1
  H+  H151  1  0.73483985  0.86333044  0.34436409  1
  H+  H152  1  0.15380068  0.13022936  0.81939991  1
  H+  H153  1  0.35191584  0.74261459  0.16480506  1
  H+  H154  1  0.13607577  0.64510217  0.68272494  1
  H+  H155  1  0.57879684  0.90561550  0.41696169  1
  H+  H156  1  0.47797198  0.36086725  0.50674169  1
  H+  H157  1  0.84437924  0.34845552  0.34129491  1
  H+  H158  1  0.28455836  0.88971407  0.80591974  1
  H+  H159  1  0.86167859  0.21538732  0.49974217  1
  H+  H160  1  0.29488526  0.92966430  0.13559324  1
  H+  H161  1  0.27285910  0.61351849  0.37000355  1
  H+  H162  1  0.75262130  0.14466686  -0.01772676  1
  H+  H163  1  0.12276272  0.60951136  0.16313117  1
  H+  H164  1  0.09902889  0.12661665  0.67174384  1
  H+  H165  1  0.16696815  0.82497088  0.28118776  1
  H+  H166  1  0.88071020  0.27375096  0.16059731  1
  H+  H167  1  0.21738295  1.12178246  0.17002058  1
  H+  H168  1  0.86409687  0.85512993  0.66248518  1
  H+  H169  1  0.61229258  0.11124420  0.68214529  1
  H+  H170  1  0.86028243  0.57029920  0.52494681  1
  H+  H171  1  1.03586665  0.14526140  0.82479827  1
  H+  H172  1  0.47225130  0.35299708  0.34033138  1
  H+  H173  1  0.22151684  0.11218274  0.51672126  1
  H+  H174  1  0.69171844  0.58277192  0.90644203  1
  H+  H175  1  0.63016062  0.34961342  0.83717379  1
  H+  H176  1  0.61072988  0.37523260  0.33900324  1
  H+  H177  1  0.81465989  0.36214350  0.40795362  1
  H+  H178  1  0.46346525  0.88065026  0.16694615  1
  H+  H179  1  0.85092915  0.28108913  0.98948689  1
  H+  H180  1  0.77338486  0.36530302  0.50077624  1
  H+  H181  1  0.09370307  0.35139285  0.19362369  1
  H+  H182  1  0.90086293  0.52459294  0.66656573  1
  H+  H183  1  0.89063973  1.03635880  -0.01270748  1
  H+  H184  1  0.28902839  0.14635991  0.81437037  1
  H+  H185  1  0.36119387  0.38208446  0.34918679  1
  H+  H186  1  0.12300755  0.73405312  0.82430529  1
  H+  H187  1  0.26588664  0.72156586  0.37717344  1
  H+  H188  1  0.85691894  0.73601400  0.32856928  1
  H+  H189  1  0.60452952  0.21124319  0.49858969  1
  H+  H190  1  0.13418109  0.61241389  0.50353987  1
  H+  H191  1  0.97986305  0.86206730  0.51179354  1
  H+  H192  1  0.98110354  0.63012734  0.32157613  1
  H+  H193  1  0.58663729  0.94774044  0.68442891  1
  H+  H194  1  0.85846477  0.72376635  0.82487171  1
  H+  H195  1  0.93127883  0.83013179  1.02258805  1
  H+  H196  1  0.52549138  0.88221315  -0.03188358  1
  H+  H197  1  0.09914963  0.51464128  0.31687791  1
  H+  H198  1  0.86359501  0.45254648  0.49852150  1
  H+  H199  1  0.39612814  0.33951985  0.16431305  1
  H+  H200  1  0.23262855  0.36685622  0.84521842  1
  H+  H201  1  0.47089693  0.85344412  0.52258841  1
  H+  H202  1  0.23306405  0.81313844  0.19749119  1
  H+  H203  1  0.38088344  0.47815647  0.01220795  1
  H+  H204  1  0.81462545  0.70252856  -0.00001946  1
  H+  H205  1  0.37177971  0.91325914  0.15367223  1
  H+  H206  1  0.73313699  0.90801391  0.63822556  1
  H+  H207  1  0.12439451  0.72709659  0.67376556  1
  H+  H208  1  0.07667529  0.91585121  0.40072911  1
  H+  H209  1  0.66698276  0.06142614  1.03487773  1
  H+  H210  1  0.35600810  0.96608439  0.50396188  1
  H+  H211  1  0.88453687  0.26730046  0.31064404  1
  H+  H212  1  0.48344051  0.36490691  0.84133021  1
  H+  H213  1  0.87877724  0.11330126  0.33645093  1
  H+  H214  1  0.48486166  0.11153044  0.82227750  1
  H+  H215  1  0.60237388  0.21471422  0.82700020  1
  H+  H216  1  0.62989490  0.52034893  0.17231569  1
  H+  H217  1  0.61204303  0.49294859  0.67475006  1
  H+  H218  1  0.95911111  0.10437531  0.18648321  1
  H+  H219  1  0.36686299  0.47254221  0.33860787  1
  H+  H220  1  0.35250986  0.21836302  0.36016904  1
  H+  H221  1  0.86841423  0.60164775  0.16575059  1
  H+  H222  1  0.01277165  0.88491771  -0.05243675  1
  H+  H223  1  0.52893206  0.63287410  0.33840121  1
  H+  H224  1  0.46620641  0.85624266  0.83454508  1
  H+  H225  1  0.64521763  0.75556015  0.52091295  1
  H+  H226  1  0.60797802  0.43349972  0.09370043  1
  H+  H227  1  0.26083314  0.13189753  0.35508097  1
  H+  H228  1  0.36614829  0.10446729  0.33510120  1
  H+  H229  1  0.62216729  0.09877914  0.85105211  1
  H+  H230  1  0.46522035  0.83014880  0.67308697  1
  H+  H231  1  0.36728508  0.38638998  0.83509928  1
  H+  H232  1  0.09975381  0.71631048  0.16311784  1
  H+  H233  1  0.13260621  0.52407549  0.84986877  1
  H+  H234  1  0.17965208  0.86027344  0.18060617  1
  H+  H235  1  0.14088513  0.11544454  0.97033699  1
  H+  H236  1  0.39512144  0.52464668  0.51654590  1
  H+  H237  1  0.08670934  0.66808926  0.76842975  1
  H+  H238  1  0.52844095  0.15765770  0.15705340  1
  H+  H239  1  0.38830021  0.61266346  1.00244596  1
  H+  H240  1  0.07264872  0.14770229  0.43923801  1
  H+  H241  1  0.21587709  0.99670030  0.13217533  1
  H+  H242  1  0.77742286  0.38924832  0.15238989  1
  H+  H243  1  0.87688458  0.51589968  0.16630132  1
  H+  H244  1  0.36561736  0.72419566  0.51812235  1
  H+  H245  1  0.81884014  0.16082121  0.43943935  1
  H+  H246  1  0.36765619  0.01647475  0.33063559  1
  H+  H247  1  0.39685657  0.11853367  0.98854361  1
  H+  H248  1  0.13598559  0.61776532  0.99920148  1
  H+  H249  1  0.94003180  0.85257130  0.16620759  1
  H+  H250  1  0.36566126  0.59722346  0.66685511  1
  H+  H251  1  0.88949952  0.24850824  0.83017528  1
  H+  H252  1  0.36990987  0.75004763  0.66709215  1
  H+  H253  1  0.37142149  0.88879592  0.80434482  1
  H+  H254  1  0.61698873  0.13086932  0.01180239  1
  H+  H255  1  0.62060022  0.46810752  0.49542512  1
  H+  H256  1  0.11768939  0.39102248  0.84222959  1
  H+  H257  1  0.99303319  0.63201274  0.84168502  1
  H+  H258  1  0.88087129  0.62931643  0.31476100  1
  H+  H259  1  0.43508152  0.33049353  0.93409838  1
  H+  H260  1  0.86732875  0.01781247  0.18199782  1
  H+  H261  1  0.07522744  0.91196195  -0.10959710  1
  H+  H262  1  0.61897500  1.01266947  0.33631964  1
  H+  H263  1  0.01148545  0.13154322  0.67128913  1
  H+  H264  1  0.41763450  0.34037640  0.60007269  1
  H+  H265  1  0.67624985  0.57790369  0.60056254  1
  H+  H266  1  0.01555526  0.13375156  0.35061808  1
  H+  H267  1  0.23143744  0.87047649  0.98317338  1
  H+  H268  1  0.84200682  0.39328990  0.05286886  1
  H+  H269  1  0.11904226  0.16453299  0.05000681  1
  H+  H270  1  0.88524869  0.86898780  0.32654555  1
  H+  H271  1  0.66005407  0.33261982  0.67461982  1
  H+  H272  1  0.22937213  0.35756853  0.67687258  1
  H+  H273  1  0.73304537  0.60405838  0.66130084  1
  H+  H274  1  0.39929666  1.04980640  0.17129179  1
  H+  H275  1  0.11633892  0.48828588  0.49079049  1
  H+  H276  1  0.83939266  0.71775363  0.15613686  1
  H+  H277  1  0.72909323  0.34256006  0.98305174  1
  H+  H278  1  0.64305255  0.75231194  0.62283282  1
  H+  H279  1  0.63992957  0.35244701  0.51023882  1
  H+  H280  1  0.64559451  0.77901678  0.98266115  1
  H+  H281  1  0.83160307  0.88047449  0.15966877  1
  H+  H282  1  0.15147662  0.15575949  0.18583883  1
  H+  H283  1  0.85078527  0.13731606  0.16845469  1
  H+  H284  1  0.36128127  0.38609604  0.67827360  1
  H+  H285  1  0.21970972  0.85521066  0.34294350  1
  H+  H286  1  0.40728617  0.09471130  0.23517843  1
  H+  H287  1  0.52934795  0.62782921  0.50331360  1
  H+  H288  1  0.90373215  0.82710881  0.56403956  1
  H+  H289  1  0.89537917  0.22353521  0.76246075  1
  H+  H290  1  0.18273393  0.34073936  0.58465689  1
  H+  H291  1  0.01144784  0.89459194  0.09302320  1
  H+  H292  1  0.40092375  0.82323462  0.92171821  1
  H+  H293  1  0.09496532  0.91781320  0.77285255  1
  H+  H294  1  0.65309279  0.07181462  0.91017549  1
  H+  H295  1  0.33415840  0.67690020  0.06759946  1
  H+  H296  1  0.78850801  0.22904647  0.37276205  1
  H+  H297  1  0.91522522  0.33536315  0.21781772  1
  H+  H298  1  0.06399401  0.65673181  0.43180696  1
  H+  H299  1  0.22310045  0.36170123  0.33991947  1
  H+  H300  1  0.67305833  0.83585855  0.28765413  1
  H+  H301  1  0.92079903  0.56973692  0.57611680  1
  H+  H302  1  0.09593744  0.72142130  0.33981335  1
  H+  H303  1  0.34159925  0.94004265  0.70940020  1
  H+  H304  1  0.82505185  0.92544147  0.06039498  1
  H+  H305  1  0.84100093  0.66440566  0.76512558  1
  H+  H306  1  0.41494524  0.85538808  0.23199113  1
  H+  H307  1  0.29958969  0.22118638  0.21513094  1
  H+  H308  1  0.61516021  0.84445188  0.19200872  1
  H+  H309  1  0.34811403  0.93094054  0.04833530  1
  H+  H310  1  0.41874880  0.58989072  0.26516039  1
  H+  H311  1  0.59048397  0.21057473  0.34116198  1
  H+  H312  1  0.15704639  0.82565888  0.59843325  1
  H+  H313  1  0.91256716  0.35447415  0.90907886  1
  H+  H314  1  0.92616256  0.60421122  0.90655361  1
  H+  H315  1  0.99154398  0.61281850  0.66326924  1
  H+  H316  1  0.28301291  0.54140852  0.40067198  1
  H+  H317  1  0.30102712  0.12582615  0.08258598  1
  H+  H318  1  0.33925902  0.65675772  0.46303182  1
  H+  H319  1  0.66067811  0.58149150  0.24838689  1
  H+  H320  1  0.13131339  0.57720215  0.25811018  1
  H+  H321  1  0.18996811  0.83674161  0.88764882  1
  H+  H322  1  0.93208483  0.32371490  0.60601293  1
  H+  H323  1  0.67176048  0.32041113  0.56830172  1
  H+  H324  1  0.14129832  0.39846145  0.01360316  1
  H+  H325  1  0.66114574  0.32383442  0.26753550  1
  H+  H326  1  0.37590796  0.03716592  0.60941614  1
  H+  H327  1  0.74132254  0.13455401  0.34737285  1
  H+  H328  1  0.65347480  0.05864812  0.60109387  1
  H+  H329  1  0.00319034  0.84892309  0.08934644  1
  H+  H330  1  0.80714464  0.90864769  0.79724089  1
  H+  H331  1  0.88387468  0.82644960  0.89609456  1
  H+  H332  1  0.97373570  0.63018692  0.99136985  1
  H+  H333  1  0.37048870  0.41149506  0.06511547  1
  H+  H334  1  0.41032658  0.82287187  0.58199837  1
  H+  H335  1  0.16681250  0.58904060  0.94068511  1
  H+  H336  1  0.89720445  0.82826276  0.23182681  1
  H+  H337  1  0.32941277  0.91314118  0.40980931  1
  H+  H338  1  0.64774119  0.07909886  0.23390292  1
  H+  H339  1  0.10604778  0.11704006  0.50395075  1
  H+  H340  1  0.58737597  0.17509267  0.09663617  1
  H+  H341  1  0.58737243  0.40685568  0.43740456  1
  H+  H342  1  0.69391702  0.81923273  0.88545817  1
  H+  H343  1  0.97287046  0.86491509  0.32346668  1
  H+  H344  1  0.88235361  0.86779457  0.83038787  1
  H+  H345  1  0.13111241  0.52438094  0.16747073  1
  H+  H346  1  0.37757502  0.10287620  0.51925311  1
  H+  H347  1  0.76477534  0.36983600  0.81739306  1
  H+  H348  1  0.39881505  0.30654960  0.28927909  1
  H+  H349  1  0.39851665  0.58307515  0.90199471  1
  H+  H350  1  0.59057674  0.98932609  0.15234452  1
  H+  H351  1  0.40976415  0.57519297  0.61166400  1
  H+  H352  1  0.33362487  0.42088587  0.44047788  1
  H+  H353  1  0.89240764  0.66484865  0.46669078  1
  H+  H354  1  0.39341201  0.78855396  0.32549570  1
  H+  H355  1  0.11362554  0.87822345  0.67319167  1
  H+  H356  1  0.12128772  0.32103479  0.25573653  1
  H+  H357  1  0.17773925  0.53654553  0.68586571  1
  H+  H358  1  0.39706220  0.27477660  0.83803491  1
  H+  H359  1  0.92798747  0.09323997  0.89082240  1
  H+  H360  1  0.87254471  0.88817651  0.49035821  1
  H+  H361  1  0.37472795  0.76758606  0.82800486  1
  H+  H362  1  0.56534700  0.15075299  0.44047671  1
  H+  H363  1  0.90930144  0.59031351  0.25496587  1
  H+  H364  1  0.06715305  0.42010927  0.39397332  1
  H+  H365  1  0.09646013  0.42163926  0.10255716  1
  H+  H366  1  0.91113493  0.08518376  0.56847026  1
  H+  H367  1  0.57393503  0.90074841  0.74805739  1
  H+  H368  1  0.58224241  0.15293109  0.76706244  1
  H+  H369  1  0.84135121  0.91787992  0.40452266  1
  H+  H370  1  0.18507382  0.33726368  0.93774090  1
  H+  H371  1  0.64526932  0.60559184  0.50609775  1
  H+  H372  1  0.36632203  0.54287874  0.16816484  1
  H+  H373  1  0.34956864  0.17771456  0.75669611  1
  H+  H374  1  0.32336595  0.15726428  0.45002955  1
  H+  H375  1  0.63450578  0.70364261  0.79945003  1
  H+  H376  1  0.33564387  0.41416295  0.77574566  1
  H+  H377  1  0.83996610  0.41224970  0.73468246  1
  H+  H378  1  0.58413195  0.42304935  0.77200548  1
  H+  H379  1  0.35799358  0.87786228  0.50525609  1
  H+  H380  1  0.15763960  0.07742455  0.57461201  1
  H+  H381  1  0.89488283  0.14694097  0.65213745  1
  H+  H382  1  0.07529085  0.67528785  0.06147083  1
  H+  H383  1  0.13492792  0.41465467  0.46706514  1
  O2-  O384  1  0.06591778  0.16981676  0.16358483  1
  O2-  O385  1  0.07102619  0.14397257  0.48599681  1
  O2-  O386  1  0.09613234  0.17806195  0.80751067  1
  O2-  O387  1  0.08508163  0.42313198  0.14802055  1
  O2-  O388  1  0.08761818  0.42602387  0.47269010  1
  O2-  O389  1  0.08727408  0.42165058  0.82777511  1
  O2-  O390  1  0.06759758  0.66191755  0.14010497  1
  O2-  O391  1  0.07124759  0.66108923  0.47656945  1
  O2-  O392  1  0.08500319  0.67143731  0.81396557  1
  O2-  O393  1  0.17292475  0.93483934  0.14215926  1
  O2-  O394  1  0.08036882  0.91456385  0.48137737  1
  O2-  O395  1  0.11430686  0.93212932  0.81573521  1
  O2-  O396  1  0.28275654  0.09932684  0.12451203  1
  O2-  O397  1  0.32460899  0.15961159  0.49558400  1
  O2-  O398  1  0.35133888  0.17302268  0.80202023  1
  O2-  O399  1  0.42506717  0.39308230  0.13904354  1
  O2-  O400  1  0.33825588  0.42221853  0.48561879  1
  O2-  O401  1  0.33448436  0.41462225  0.82126959  1
  O2-  O402  1  0.32656525  0.68187534  0.15053339  1
  O2-  O403  1  0.33671453  0.66062682  0.50748147  1
  O2-  O404  1  0.31684926  0.65913151  0.80957388  1
  O2-  O405  1  0.35668195  0.95319201  0.13165959  1
  O2-  O406  1  0.32737554  0.90631025  0.48700224  1
  O2-  O407  1  0.34356406  0.92142615  0.78754091  1
  O2-  O408  1  0.58828803  0.18076619  0.14344790  1
  O2-  O409  1  0.57016602  0.14989311  0.48567955  1
  O2-  O410  1  0.57159840  0.15280750  0.81278320  1
  O2-  O411  1  0.59489918  0.43326395  0.13857081  1
  O2-  O412  1  0.58728865  0.40641740  0.48268920  1
  O2-  O413  1  0.58575301  0.41276802  0.81637953  1
  O2-  O414  1  0.56886686  0.66522218  0.13923071  1
  O2-  O415  1  0.58925345  0.65559297  0.48607422  1
  O2-  O416  1  0.61245234  0.64791662  0.77876672  1
  O2-  O417  1  0.54945690  0.93435276  0.13112920  1
  O2-  O418  1  0.58083486  0.90024374  0.49514050  1
  O2-  O419  1  0.57311763  0.91130243  0.82451458  1
  O2-  O420  1  0.82501875  0.16921592  0.15000026  1
  O2-  O421  1  0.82719787  0.15541924  0.48395853  1
  O2-  O422  1  0.87999063  0.19971514  0.80355554  1
  O2-  O423  1  0.83711311  0.42142047  0.13611994  1
  O2-  O424  1  0.83431296  0.39151848  0.48571234  1
  O2-  O425  1  0.82434157  0.40362437  0.80167966  1
  O2-  O426  1  0.80817250  0.65623129  0.14286840  1
  O2-  O427  1  0.84624671  0.67847688  0.46498013  1
  O2-  O428  1  0.84267066  0.66431559  0.81073355  1
  O2-  O429  1  0.81202308  0.91892849  0.14283545  1
  O2-  O430  1  0.84565721  0.91972643  0.47241509  1
  O2-  O431  1  0.86966891  0.93776499  0.79076430  1
  O2-  O432  1  0.19652433  0.14468526  0.20325579  1
  O2-  O433  1  0.15870700  0.07938434  0.52861104  1
  O2-  O434  1  0.18751440  0.10178266  0.83252277  1
  O2-  O435  1  0.08502639  0.30119710  0.21883973  1
  O2-  O436  1  0.18078878  0.34667977  0.53921339  1
  O2-  O437  1  0.17223903  0.33709953  0.86176554  1
  O2-  O438  1  0.15746778  0.58630777  0.18193662  1
  O2-  O439  1  0.15738692  0.57623897  0.51875445  1
  O2-  O440  1  0.16250757  0.58594973  0.86343084  1
  O2-  O441  1  0.17817644  0.81094727  0.20367318  1
  O2-  O442  1  0.15879423  0.82777124  0.52001698  1
  O2-  O443  1  0.18840507  0.83764714  0.84208433  1
  O2-  O444  1  0.41470625  0.10627689  0.19037396  1
  O2-  O445  1  0.40450127  0.06893518  0.53321424  1
  O2-  O446  1  0.41565977  0.07616897  0.83017866  1
  O2-  O447  1  0.36409598  0.25892153  0.21716428  1
  O2-  O448  1  0.41779450  0.33275425  0.52234682  1
  O2-  O449  1  0.42292428  0.33275425  0.85715176  1
  O2-  O450  1  0.40616845  0.59990880  0.18425730  1
  O2-  O451  1  0.42945818  0.58346041  0.53433487  1
  O2-  O452  1  0.39305110  0.58279211  0.85734869  1
  O2-  O453  1  0.40415139  0.85016545  0.18753839  1
  O2-  O454  1  0.40983327  0.82563613  0.53552498  1
  O2-  O455  1  0.40273966  0.82849209  0.84261506  1
  O2-  O456  1  0.65251881  0.08353916  0.18894703  1
  O2-  O457  1  0.65814356  0.06944495  0.52449083  1
  O2-  O458  1  0.64959619  0.06618856  0.86547864  1
  O2-  O459  1  0.67324086  0.34018314  0.18813402  1
  O2-  O460  1  0.66892899  0.31971772  0.52302391  1
  O2-  O461  1  0.65718350  0.31496779  0.84936905  1
  O2-  O462  1  0.65631305  0.58070079  0.19217785  1
  O2-  O463  1  0.67733945  0.57552116  0.51843027  1
  O2-  O464  1  0.68409759  0.57127716  0.86236587  1
  O2-  O465  1  0.63685300  0.83712582  0.15323472  1
  O2-  O466  1  0.67073949  0.81465519  0.53892651  1
  O2-  O467  1  0.70735508  0.80921576  0.84323884  1
  O2-  O468  1  0.89893604  0.07517947  0.20209126  1
  O2-  O469  1  0.91774816  0.08261187  0.52311489  1
  O2-  O470  1  0.93487503  0.09534023  0.84567277  1
  O2-  O471  1  0.91387323  0.33674770  0.17261717  1
  O2-  O472  1  0.92538091  0.32057541  0.52874052  1
  O2-  O473  1  0.91883969  0.34963119  0.86453748  1
  O2-  O474  1  0.90238542  0.57710974  0.18320241  1
  O2-  O475  1  0.90990469  0.56258915  0.53028643  1
  O2-  O476  1  0.93123331  0.60372812  0.85783402  1
  O2-  O477  1  0.88445547  0.82060007  0.18675173  1
  O2-  O478  1  0.91636113  0.82831956  0.51989887  1
  O2-  O479  1  0.87075933  0.81360461  0.85293655  1
  O2-  O480  1  0.15936926  0.08516734  0.32089453  1
  O2-  O481  1  0.15906378  0.07878418  0.65035897  1
  O2-  O482  1  0.17340694  0.08856832  0.95343788  1
  O2-  O483  1  0.16020275  0.33275448  0.33139564  1
  O2-  O484  1  0.16936911  0.33191934  0.65977715  1
  O2-  O485  1  0.18742044  0.33389631  0.98339240  1
  O2-  O486  1  0.12096703  0.57479432  0.30309497  1
  O2-  O487  1  0.20626259  0.59897247  0.67462408  1
  O2-  O488  1  0.17057833  0.59141558  0.98620816  1
  O2-  O489  1  0.15952109  0.82550991  0.32601075  1
  O2-  O490  1  0.16117890  0.82874909  0.64396123  1
  O2-  O491  1  0.17226476  0.83423889  0.96542520  1
  O2-  O492  1  0.39509812  0.07622963  0.31413974  1
  O2-  O493  1  0.35254866  0.02957279  0.65175113  1
  O2-  O494  1  0.43398319  0.09554561  0.97550174  1
  O2-  O495  1  0.40873760  0.32282219  0.33302976  1
  O2-  O496  1  0.41317431  0.33693566  0.64555925  1
  O2-  O497  1  0.43930268  0.33217924  0.97973569  1
  O2-  O498  1  0.42651954  0.58236371  0.30917391  1
  O2-  O499  1  0.40517135  0.57544176  0.65696451  1
  O2-  O500  1  0.41560458  0.57972338  0.98683981  1
  O2-  O501  1  0.42633922  0.84963586  0.31588856  1
  O2-  O502  1  0.40826841  0.80970522  0.65384314  1
  O2-  O503  1  0.40877610  0.82993818  0.96685005  1
  O2-  O504  1  0.64274922  0.07036321  0.31737184  1
  O2-  O505  1  0.65447445  0.05385236  0.64648190  1
  O2-  O506  1  0.65741755  0.07870500  0.99494347  1
  O2-  O507  1  0.65224651  0.31679903  0.31260072  1
  O2-  O508  1  0.69261638  0.31825359  0.64638389  1
  O2-  O509  1  0.66744998  0.32178868  0.97367841  1
  O2-  O510  1  0.66471349  0.58366380  0.30297590  1
  O2-  O511  1  0.67351332  0.57641760  0.64552787  1
  O2-  O512  1  0.70217200  0.59824270  0.99132727  1
  O2-  O513  1  0.67122022  0.82968331  0.33173735  1
  O2-  O514  1  0.69635209  0.80557282  0.60099612  1
  O2-  O515  1  0.67922190  0.83643619  0.96357127  1
  O2-  O516  1  0.91009940  0.08500797  0.32241439  1
  O2-  O517  1  0.90167085  0.09670512  0.64366989  1
  O2-  O518  1  0.92160741  0.09546469  0.97050569  1
  O2-  O519  1  0.91392532  0.32746027  0.29679151  1
  O2-  O520  1  0.93522440  0.33181763  0.65195998  1
  O2-  O521  1  0.88928473  0.34927426  0.99111268  1
  O2-  O522  1  0.91390987  0.60028203  0.30112419  1
  O2-  O523  1  0.93050444  0.58420770  0.64887038  1
  O2-  O524  1  0.91683679  0.60069678  0.96973819  1
  O2-  O525  1  0.91236478  0.83667078  0.30773470  1
  O2-  O526  1  0.84500833  0.80917176  0.63245958  1
  O2-  O527  1  0.89421277  0.82345820  0.98780669  1
  O2-  O528  1  0.09956894  0.17137615  0.01012896  1
  O2-  O529  1  0.07460180  0.16003608  0.36847951  1
  O2-  O530  1  0.07204624  0.16073497  0.68525828  1
  O2-  O531  1  0.11069614  0.42573709  0.03184023  1
  O2-  O532  1  0.06891345  0.41437444  0.34900088  1
  O2-  O533  1  0.10504079  0.42729190  0.70275789  1
  O2-  O534  1  0.07609029  0.67347984  0.01617380  1
  O2-  O535  1  0.05507287  0.65823838  0.34773867  1
  O2-  O536  1  0.09662169  0.66753211  0.69104208  1
  O2-  O537  1  0.07363437  0.91402826  -0.06428293  1
  O2-  O538  1  0.07643628  0.91538659  0.35518228  1
  O2-  O539  1  0.08672114  0.91082948  0.69213352  1
  O2-  O540  1  0.32903122  0.16295817  0.01328393  1
  O2-  O541  1  0.32014262  0.15634227  0.37202647  1
  O2-  O542  1  0.33033779  0.17094676  0.68026445  1
  O2-  O543  1  0.35678612  0.41561461  0.02238144  1
  O2-  O544  1  0.33261667  0.41635278  0.35934053  1
  O2-  O545  1  0.33063891  0.41297039  0.69836622  1
  O2-  O546  1  0.33604333  0.67031693  0.02294905  1
  O2-  O547  1  0.31581154  0.60086957  0.38676029  1
  O2-  O548  1  0.29639220  0.63653577  0.69385110  1
  O2-  O549  1  0.33572666  0.92052409  0.00444173  1
  O2-  O550  1  0.32544027  0.91368165  0.36408529  1
  O2-  O551  1  0.32869564  0.93990460  0.66495440  1
  O2-  O552  1  0.58938419  0.16830568  0.02561119  1
  O2-  O553  1  0.55936112  0.15162415  0.35902165  1
  O2-  O554  1  0.58968040  0.14877235  0.69582368  1
  O2-  O555  1  0.61308369  0.42647363  0.01803196  1
  O2-  O556  1  0.58181908  0.40675530  0.35594540  1
  O2-  O557  1  0.57317299  0.43152921  0.69294384  1
  O2-  O558  1  0.59254273  0.67047587  0.01494572  1
  O2-  O559  1  0.58865942  0.65757376  0.35498646  1
  O2-  O560  1  0.58493024  0.67916587  0.65966893  1
  O2-  O561  1  0.58824342  0.91150282  -0.03888692  1
  O2-  O562  1  0.57919071  0.90885543  0.37129479  1
  O2-  O563  1  0.57389941  0.89255815  0.70303073  1
  O2-  O564  1  0.81629354  0.18994290  -0.02526118  1
  O2-  O565  1  0.79760641  0.17919349  0.36576547  1
  O2-  O566  1  0.88746610  0.24336383  0.67633228  1
  O2-  O567  1  0.83304457  0.38339173  0.00826832  1
  O2-  O568  1  0.79390868  0.33173661  0.36833921  1
  O2-  O569  1  0.84909105  0.41895089  0.68752379  1
  O2-  O570  1  0.79067069  0.64281292  0.01634958  1
  O2-  O571  1  0.82540112  0.67317862  0.34144394  1
  O2-  O572  1  0.84002701  0.66271532  0.68813948  1
  O2-  O573  1  0.83209754  0.92429706  0.01560436  1
  O2-  O574  1  0.83453344  0.91493074  0.35739524  1
  O2-  O575  1  0.74613501  0.95528535  0.66729522  1
