# generated using pymatgen
data_H2O
_symmetry_space_group_name_H-M   'P 1'
_cell_length_a   17.99962967
_cell_length_b   17.99162662
_cell_length_c   22.01643191
_cell_angle_alpha   90.01119890
_cell_angle_beta   90.01359450
_cell_angle_gamma   119.99299676
_symmetry_Int_Tables_number   1
_chemical_formula_structural   H2O
_chemical_formula_sum   'H384 O192'
_cell_volume   6175.07405695
_cell_formula_units_Z   192
loop_
 _symmetry_equiv_pos_site_id
 _symmetry_equiv_pos_as_xyz
  1  'x, y, z'
loop_
 _atom_type_symbol
 _atom_type_oxidation_number
  H+  1.0
  O2-  -2.0
loop_
 _atom_site_type_symbol
 _atom_site_label
 _atom_site_symmetry_multiplicity
 _atom_site_fract_x
 _atom_site_fract_y
 _atom_site_fract_z
 _atom_site_occupancy
  H+  H0  1  0.51237130  0.13869582  0.34178778  1
  H+  H1  1  0.94166375  0.31798024  0.66512578  1
  H+  H2  1  0.59903569  0.71147956  0.83300940  1
  H+  H3  1  0.60203391  0.86871956  0.14915727  1
  H+  H4  1  0.06208772  0.42291670  0.68905672  1
  H+  H5  1  0.52347122  0.13404327  0.64031930  1
  H+  H6  1  0.92718183  0.91555940  0.82433237  1
  H+  H7  1  0.32878883  0.67950359  0.40203119  1
  H+  H8  1  0.27356524  0.37730558  0.00736329  1
  H+  H9  1  0.87069170  0.33872992  0.99768998  1
  H+  H10  1  0.36980026  0.61123618  0.98740852  1
  H+  H11  1  0.14435725  0.52527597  0.17994413  1
  H+  H12  1  0.66506648  0.91228386  0.50705044  1
  H+  H13  1  0.90772828  0.02332180  0.65507919  1
  H+  H14  1  0.86770022  0.57131000  0.99613788  1
  H+  H15  1  0.76790555  0.37762529  0.33061346  1
  H+  H16  1  0.86330368  0.13282066  0.33201007  1
  H+  H17  1  0.44996355  0.59842776  0.99690624  1
  H+  H18  1  0.63265580  0.51558705  0.17991287  1
  H+  H19  1  0.71732807  0.10265461  0.85354843  1
  H+  H20  1  0.68353576  0.13681316  1.03954055  1
  H+  H21  1  0.27052616  0.64565167  0.14924699  1
  H+  H22  1  0.47103951  0.60554665  0.32933436  1
  H+  H23  1  0.61743464  0.38527296  0.66565352  1
  H+  H24  1  0.13780017  0.26773323  1.00001513  1
  H+  H25  1  0.62694852  0.47476416  0.82197303  1
  H+  H26  1  0.88636835  0.36012048  0.31943042  1
  H+  H27  1  0.77397577  0.14659800  0.47661697  1
  H+  H28  1  0.15017387  1.10223134  0.84375218  1
  H+  H29  1  0.48361755  0.36203158  0.67995375  1
  H+  H30  1  0.49014650  0.61700401  0.66072382  1
  H+  H31  1  0.63966658  0.85783876  0.66630236  1
  H+  H32  1  0.61940914  0.63498554  0.67501796  1
  H+  H33  1  0.86463109  0.89292201  0.33836026  1
  H+  H34  1  0.38899392  0.77725352  0.98617902  1
  H+  H35  1  0.91075663  0.31667400  0.93166938  1
  H+  H36  1  0.61481451  0.38620924  0.33518091  1
  H+  H37  1  0.87679567  0.59761202  0.83764643  1
  H+  H38  1  0.57262294  0.91692479  0.06226735  1
  H+  H39  1  0.15057486  0.36863081  0.49069810  1
  H+  H40  1  0.98720201  0.87534206  0.32840375  1
  H+  H41  1  0.71794932  0.85660095  0.34986534  1
  H+  H42  1  0.39056910  0.36903793  0.50381557  1
  H+  H43  1  0.37478149  0.39839016  0.68203761  1
  H+  H44  1  1.02567960  0.86394861  0.81501473  1
  H+  H45  1  0.15586747  0.11334884  0.65278836  1
  H+  H46  1  0.08555674  0.69661507  1.01273650  1
  H+  H47  1  0.10941514  0.47549139  0.49195727  1
  H+  H48  1  0.86606771  0.51573954  0.66588003  1
  H+  H49  1  0.63505552  0.36745112  0.50012690  1
  H+  H50  1  0.43370719  -0.01646017  0.87263064  1
  H+  H51  1  0.17929001  0.59484368  0.26720053  1
  H+  H52  1  0.87101262  0.60847348  0.66104362  1
  H+  H53  1  0.27429010  0.64299053  -0.00184162  1
  H+  H54  1  0.10595885  0.87760758  0.16153629  1
  H+  H55  1  0.54045398  0.19196549  0.50571120  1
  H+  H56  1  0.35695230  0.72961506  0.49560769  1
  H+  H57  1  0.42596880  0.33130291  0.23519697  1
  H+  H58  1  0.62242677  0.12290677  0.87561899  1
  H+  H59  1  0.62254617  0.46464225  1.00610516  1
  H+  H60  1  0.13337511  0.99381714  0.50400384  1
  H+  H61  1  0.67600302  0.16746871  0.16373081  1
  H+  H62  1  0.29326743  0.63460633  0.67922042  1
  H+  H63  1  0.62159238  0.38313497  0.82526312  1
  H+  H64  1  0.41078452  0.83629362  0.22699360  1
  H+  H65  1  0.36453259  0.22207407  0.48997910  1
  H+  H66  1  0.09520880  0.87959155  0.01247515  1
  H+  H67  1  0.50975143  0.86314773  0.14690642  1
  H+  H68  1  0.13140481  0.59992859  0.99495793  1
  H+  H69  1  0.14053762  0.35777345  -0.00605527  1
  H+  H70  1  0.22037324  0.09988921  0.31877164  1
  H+  H71  1  0.52621809  0.12107053  0.87213240  1
  H+  H72  1  0.47543911  0.85543176  0.66123845  1
  H+  H73  1  0.58995198  0.41147141  0.10327499  1
  H+  H74  1  0.82877905  0.16503204  0.67769991  1
  H+  H75  1  0.47474247  0.59335981  0.84222327  1
  H+  H76  1  0.75852762  0.62834779  0.17206350  1
  H+  H77  1  0.36653689  0.98026116  0.33835464  1
  H+  H78  1  0.18637122  0.82827091  1.02341257  1
  H+  H79  1  0.48733145  0.35942664  0.84376714  1
  H+  H80  1  0.72230771  0.34710848  0.84449767  1
  H+  H81  1  0.67947560  0.61263650  0.99099764  1
  H+  H82  1  0.12401461  0.74897748  0.86333533  1
  H+  H83  1  0.13802908  0.23094387  0.67129135  1
  H+  H84  1  -0.01387416  0.11514502  0.18170546  1
  H+  H85  1  0.87027421  0.51040737  0.16405297  1
  H+  H86  1  0.15781098  0.06038580  0.25419220  1
  H+  H87  1  0.36901895  0.23147712  1.00970102  1
  H+  H88  1  0.86923229  0.89095139  0.67626693  1
  H+  H89  1  0.49175034  0.36319173  0.17663772  1
  H+  H90  1  0.63403672  0.81525738  1.00170423  1
  H+  H91  1  0.11173829  0.74809057  0.66977810  1
  H+  H92  1  0.34903393  0.88673510  0.49833708  1
  H+  H93  1  0.87830002  0.14276122  0.15580705  1
  H+  H94  1  0.13605287  0.51781437  0.84636188  1
  H+  H95  1  0.15971447  0.98194505  0.82868775  1
  H+  H96  1  0.83526078  0.89836281  0.83699957  1
  H+  H97  1  0.61600439  0.09072046  0.63459568  1
  H+  H98  1  0.87909277  0.26142410  0.48091405  1
  H+  H99  1  0.13818293  0.02729826  1.00320156  1
  H+  H100  1  0.72728439  0.35871190  0.65070659  1
  H+  H101  1  0.29733519  0.90497144  0.64105882  1
  H+  H102  1  0.97803961  0.36487490  0.31994214  1
  H+  H103  1  0.23568023  0.86415977  0.32056289  1
  H+  H104  1  0.58980521  0.95573140  0.47679471  1
  H+  H105  1  0.87761786  0.59699454  0.50965141  1
  H+  H106  1  0.22661983  0.11702950  0.00332566  1
  H+  H107  1  0.52693041  0.38178576  0.00738822  1
  H+  H108  1  0.39719914  0.27406141  0.84119976  1
  H+  H109  1  0.62942606  0.12953980  0.49432357  1
  H+  H110  1  0.40369946  0.62102531  0.66435609  1
  H+  H111  1  0.84700055  0.37107357  0.48385107  1
  H+  H112  1  0.36342365  0.98232233  0.49178111  1
  H+  H113  1  0.38639765  0.02018238  0.83670287  1
  H+  H114  1  0.02537952  0.89055600  0.50571958  1
  H+  H115  1  1.04518065  0.12295503  0.80547892  1
  H+  H116  1  0.36521507  0.22419628  0.33542985  1
  H+  H117  1  0.00817626  0.61808620  0.83669971  1
  H+  H118  1  0.62206141  0.01884584  0.84357647  1
  H+  H119  1  0.39569726  0.25654069  0.16800783  1
  H+  H120  1  0.62366719  0.47680437  0.49299761  1
  H+  H121  1  0.59594676  0.99765986  0.01575357  1
  H+  H122  1  0.87990607  0.72544416  0.81943271  1
  H+  H123  1  0.76561635  0.36655810  0.15297498  1
  H+  H124  1  0.76754854  0.91408652  0.01383390  1
  H+  H125  1  0.63966311  0.52129807  0.65407100  1
  H+  H126  1  0.14388614  0.26901609  0.18183481  1
  H+  H127  1  0.89518442  0.51849312  0.31854178  1
  H+  H128  1  0.47679208  0.87104301  -0.01226839  1
  H+  H129  1  0.82804232  0.38736643  0.06578004  1
  H+  H130  1  0.64416395  0.61078878  0.83979747  1
  H+  H131  1  0.38499504  0.51190917  0.33066724  1
  H+  H132  1  0.28285495  0.12418021  0.65846043  1
  H+  H133  1  0.14977773  0.36131669  0.67575251  1
  H+  H134  1  0.62592489  0.97854913  0.30671421  1
  H+  H135  1  0.84920390  0.46206696  0.49242983  1
  H+  H136  1  0.79279327  0.15396426  0.14480265  1
  H+  H137  1  0.31617142  0.89230552  0.80892656  1
  H+  H138  1  0.10397229  0.87667030  0.67149241  1
  H+  H139  1  0.38284539  0.11107699  0.32337553  1
  H+  H140  1  0.47313001  0.61636092  0.50460605  1
  H+  H141  1  0.52936960  0.98895750  0.45055294  1
  H+  H142  1  0.37926377  0.51845717  0.17871281  1
  H+  H143  1  0.76032917  0.60476890  -0.00798831  1
  H+  H144  1  0.11589616  0.97564564  0.33214394  1
  H+  H145  1  0.11999016  0.11997767  0.17761235  1
  H+  H146  1  0.63561357  0.90209224  0.99148792  1
  H+  H147  1  0.03263045  0.38679385  0.00805282  1
  H+  H148  1  0.63822862  0.26212736  0.99901262  1
  H+  H149  1  0.01564745  0.89665223  0.01226234  1
  H+  H150  1  0.85404215  0.75351772  0.34057269  1
  H+  H151  1  0.85978689  0.37684798  0.15539532  1
  H+  H152  1  0.08504638  0.73573271  0.48472207  1
  H+  H153  1  0.36415568  0.64341947  0.49222559  1
  H+  H154  1  0.13252921  0.60756321  0.17816463  1
  H+  H155  1  0.87363556  0.88186768  1.01378524  1
  H+  H156  1  0.87517564  0.02028392  0.32862843  1
  H+  H157  1  0.14526382  0.36845603  0.32765729  1
  H+  H158  1  0.36247651  0.74451320  0.33945114  1
  H+  H159  1  0.11265684  0.88529175  0.32776126  1
  H+  H160  1  0.78329435  0.64310029  0.82426034  1
  H+  H161  1  0.27590868  0.38524402  0.49018379  1
  H+  H162  1  0.62617958  0.26939159  0.33229942  1
  H+  H163  1  0.14521619  0.26674652  0.83968179  1
  H+  H164  1  0.14754018  0.77727160  0.30788233  1
  H+  H165  1  0.88144617  0.10591992  0.49362454  1
  H+  H166  1  0.66038298  0.57630974  0.24038275  1
  H+  H167  1  0.52902363  0.55564480  0.46483254  1
  H+  H168  1  0.86713708  0.39529616  0.67567676  1
  H+  H169  1  0.09711302  0.17295915  0.42631525  1
  H+  H170  1  0.27334096  0.65325052  0.83160132  1
  H+  H171  1  0.10821044  0.13390179  1.01658030  1
  H+  H172  1  0.66913605  0.33208101  0.90687357  1
  H+  H173  1  0.68446022  0.85902103  0.83734925  1
  H+  H174  1  0.85963838  0.88999595  0.16988604  1
  H+  H175  1  0.19521906  0.83049426  0.69038437  1
  H+  H176  1  0.42445433  0.07935982  0.94544127  1
  H+  H177  1  0.91203846  1.03817987  0.86169738  1
  H+  H178  1  0.37634216  0.48864531  0.67319304  1
  H+  H179  1  0.26633617  0.38718841  0.82664226  1
  H+  H180  1  0.66677224  0.10007206  0.54727116  1
  H+  H181  1  0.83005454  0.66553411  0.72903974  1
  H+  H182  1  0.40680014  0.31299983  0.72528482  1
  H+  H183  1  0.85998674  0.96719369  0.49056621  1
  H+  H184  1  0.23429806  0.61618511  0.50513926  1
  H+  H185  1  0.99333877  0.61889006  0.67902862  1
  H+  H186  1  0.57833104  0.88162026  0.82840298  1
  H+  H187  1  0.35361458  0.47061685  0.00273975  1
  H+  H188  1  0.52937309  0.38982102  0.49492693  1
  H+  H189  1  0.64949474  0.74920988  0.51987246  1
  H+  H190  1  0.14617000  0.61571399  0.50848258  1
  H+  H191  1  0.57117750  0.63865409  0.42337748  1
  H+  H192  1  0.12121939  0.47540827  0.00522958  1
  H+  H193  1  0.14372028  0.01835106  0.65401098  1
  H+  H194  1  0.36455645  0.47706284  0.49564101  1
  H+  H195  1  0.88229227  0.77429874  0.66283800  1
  H+  H196  1  0.07669256  0.60938678  0.68198633  1
  H+  H197  1  0.87092634  0.60006347  0.17202673  1
  H+  H198  1  0.61568865  0.22052259  0.86949672  1
  H+  H199  1  0.87295929  0.74385614  0.02037863  1
  H+  H200  1  0.11087565  0.37637105  0.83998773  1
  H+  H201  1  0.23574398  0.10030966  0.49892836  1
  H+  H202  1  0.02066462  0.38636373  0.48620269  1
  H+  H203  1  0.89282014  0.74100301  0.49357808  1
  H+  H204  1  0.29904104  0.90875410  -0.01993214  1
  H+  H205  1  0.36935347  0.88445914  0.99919179  1
  H+  H206  1  0.36761070  0.79495010  0.83488741  1
  H+  H207  1  0.39392370  0.15577656  0.16095989  1
  H+  H208  1  0.63828360  0.26929159  0.64034381  1
  H+  H209  1  0.39801404  1.02892761  0.00590142  1
  H+  H210  1  0.35572682  0.73619411  0.14727435  1
  H+  H211  1  0.92610384  0.11839019  0.64890291  1
  H+  H212  1  0.33273448  0.42957637  0.10243376  1
  H+  H213  1  0.89072819  0.25118112  0.99379228  1
  H+  H214  1  0.87121148  0.48496732  -0.00815032  1
  H+  H215  1  0.28199295  0.13844387  0.81966199  1
  H+  H216  1  0.85445139  0.12854179  0.84306868  1
  H+  H217  1  0.53423142  0.12821998  1.01249576  1
  H+  H218  1  1.01317499  0.61839583  0.16197802  1
  H+  H219  1  0.14364521  0.62467231  0.32518825  1
  H+  H220  1  1.02936372  0.38893085  0.16098661  1
  H+  H221  1  0.47565054  0.60903823  0.19021605  1
  H+  H222  1  0.73698586  0.02659836  0.25390807  1
  H+  H223  1  0.76886990  0.63759474  0.66946075  1
  H+  H224  1  0.39388331  0.36478794  0.99501552  1
  H+  H225  1  0.26169624  0.64669131  0.33724010  1
  H+  H226  1  0.39255469  0.87891953  0.16949721  1
  H+  H227  1  0.11653974  0.48250637  0.33508934  1
  H+  H228  1  0.58613190  0.16169365  0.69798423  1
  H+  H229  1  0.39947425  0.11213392  0.63970700  1
  H+  H230  1  0.78223281  0.86833348  0.49941138  1
  H+  H231  1  0.96223807  0.84933111  0.17527991  1
  H+  H232  1  0.89817955  0.27831633  0.16532805  1
  H+  H233  1  1.05377619  0.13691029  0.66543800  1
  H+  H234  1  0.36844355  0.14253423  0.01253408  1
  H+  H235  1  0.85793033  0.37366575  0.82806894  1
  H+  H236  1  0.93567339  0.69655101  0.45733837  1
  H+  H237  1  0.59059271  0.65753355  0.02336863  1
  H+  H238  1  0.02651623  0.63368728  0.32271984  1
  H+  H239  1  0.38909013  0.36128432  0.32599135  1
  H+  H240  1  0.60569613  0.72442740  0.35246766  1
  H+  H241  1  0.85536632  1.00085331  0.02586949  1
  H+  H242  1  -0.02706355  0.86241431  0.66520730  1
  H+  H243  1  0.27761909  0.38486431  0.34166495  1
  H+  H244  1  0.91781279  0.69510994  0.04569276  1
  H+  H245  1  0.22285745  0.86293571  0.51068525  1
  H+  H246  1  0.12437326  0.13068082  0.33484211  1
  H+  H247  1  0.42107153  0.59411564  0.56678839  1
  H+  H248  1  0.97599470  0.35387018  0.84738946  1
  H+  H249  1  0.72282875  0.62731345  0.32951469  1
  H+  H250  1  0.69604401  0.07986926  0.64396796  1
  H+  H251  1  0.42511181  0.05511643  0.16598938  1
  H+  H252  1  0.88425698  0.26426096  0.84647220  1
  H+  H253  1  0.86220470  0.22408028  0.32801468  1
  H+  H254  1  0.60696988  0.63079868  0.18047650  1
  H+  H255  1  0.60791146  0.63601470  0.33686915  1
  H+  H256  1  0.14757942  0.84645744  0.86171410  1
  H+  H257  1  0.39095221  0.86436743  0.66121846  1
  H+  H258  1  0.03086203  0.14867116  0.48053513  1
  H+  H259  1  0.38588624  0.86877540  0.32644460  1
  H+  H260  1  0.11228365  0.88200241  0.50629090  1
  H+  H261  1  0.27354503  0.39590181  0.16214901  1
  H+  H262  1  0.63857527  0.35201194  1.00126318  1
  H+  H263  1  1.00580486  0.60172873  1.00479523  1
  H+  H264  1  0.59900813  -0.04067977  0.66465661  1
  H+  H265  1  0.00662915  0.63925214  0.48504209  1
  H+  H266  1  0.36738655  0.49013500  0.83297421  1
  H+  H267  1  0.38319727  -0.00754144  0.65063945  1
  H+  H268  1  0.33288918  0.67651482  1.05752123  1
  H+  H269  1  0.74469443  0.61476023  0.49767253  1
  H+  H270  1  0.37434614  0.72828170  0.67887774  1
  H+  H271  1  0.13187977  0.22363070  0.33659875  1
  H+  H272  1  0.41778686  0.33470447  0.56147260  1
  H+  H273  1  0.49836279  0.89627611  0.82218824  1
  H+  H274  1  0.64056767  0.52883064  0.32983259  1
  H+  H275  1  0.61783812  0.37765128  0.16105215  1
  H+  H276  1  0.45019652  0.86882445  0.51047409  1
  H+  H277  1  0.76651890  0.35697819  0.00590472  1
  H+  H278  1  0.36995168  0.21432769  0.66547085  1
  H+  H279  1  0.13700267  0.35540751  0.17553181  1
  H+  H280  1  0.47408720  0.86735318  0.31882816  1
  H+  H281  1  0.65721988  0.90413011  0.47332747  1
  H+  H282  1  0.53804243  0.56354266  0.04873297  1
  H+  H283  1  0.20332937  0.66197818  0.65216675  1
  H+  H284  1  0.09978777  0.99525714  0.18879249  1
  H+  H285  1  0.76787560  0.19505438  0.70399882  1
  H+  H286  1  0.72311838  0.87205181  0.18442826  1
  H+  H287  1  0.63731423  0.78342355  0.19258760  1
  H+  H288  1  0.73300007  0.86702886  0.67187440  1
  H+  H289  1  0.58736603  0.41487395  0.39579877  1
  H+  H290  1  0.92062635  0.08079327  0.55051212  1
  H+  H291  1  0.30230284  0.93827363  0.15883801  1
  H+  H292  1  0.07094701  0.63793454  0.10412532  1
  H+  H293  1  0.92142275  0.84747622  0.27119136  1
  H+  H294  1  0.67335389  0.58398806  0.59592210  1
  H+  H295  1  0.85981516  0.16357103  0.06841126  1
  H+  H296  1  0.82070389  0.66670042  0.11435879  1
  H+  H297  1  0.85737148  0.93498955  0.73533751  1
  H+  H298  1  0.17717504  0.34023338  0.26910080  1
  H+  H299  1  0.91680290  0.83653091  0.56911181  1
  H+  H300  1  0.97396877  0.38626007  0.61377496  1
  H+  H301  1  0.97758420  0.13554033  0.87918953  1
  H+  H302  1  0.88843893  0.84492431  0.95380160  1
  H+  H303  1  0.09241800  0.41767203  0.78250957  1
  H+  H304  1  0.91943152  0.57415564  0.25880831  1
  H+  H305  1  0.33864844  0.41294915  0.40116831  1
  H+  H306  1  0.59381658  0.17623642  0.77187155  1
  H+  H307  1  0.17405610  0.07709819  0.90783721  1
  H+  H308  1  0.09289462  0.41776744  0.10444365  1
  H+  H309  1  0.50842308  0.14967950  0.17864467  1
  H+  H310  1  0.07772447  0.67715979  0.38293954  1
  H+  H311  1  0.89293892  0.86572298  0.50584969  1
  H+  H312  1  0.58335207  0.65718692  0.77213442  1
  H+  H313  1  0.39992267  0.82462243  0.57139325  1
  H+  H314  1  0.06733335  0.65496646  0.77884810  1
  H+  H315  1  0.35010372  0.93934329  0.09752556  1
  H+  H316  1  0.59211902  0.95562636  0.37339972  1
  H+  H317  1  0.98262220  0.84179629  0.87763782  1
  H+  H318  1  0.61217972  0.14643356  0.77032701  1
  H+  H319  1  0.37508712  0.13803212  0.48719719  1
  H+  H320  1  0.17956995  0.59261860  0.60065054  1
  H+  H321  1  0.42194597  0.08758998  0.26539067  1
  H+  H322  1  0.15471894  0.50060468  0.69321848  1
  H+  H323  1  0.66963591  0.33612285  0.56185792  1
  H+  H324  1  0.86967581  0.76994371  0.18496940  1
  H+  H325  1  0.59890972  0.41793657  0.72911101  1
  H+  H326  1  0.33564546  0.16415452  0.39415417  1
  H+  H327  1  0.82079183  0.40360211  0.73472711  1
  H+  H328  1  0.83202805  0.68830413  0.39568895  1
  H+  H329  1  0.23808535  0.36546828  0.66648273  1
  H+  H330  1  0.16451418  0.82164349  0.57067247  1
  H+  H331  1  0.33442046  0.16025444  0.75740822  1
  H+  H332  1  0.89845805  0.56261499  0.57010401  1
  H+  H333  1  0.85246534  0.45975853  0.82600331  1
  H+  H334  1  0.33435154  0.92115144  0.39884452  1
  H+  H335  1  0.02452613  0.14458729  0.02657519  1
  H+  H336  1  0.81515927  0.14924745  0.78365160  1
  H+  H337  1  0.89593439  0.55742833  0.89759585  1
  H+  H338  1  0.90172274  0.10649256  0.96150069  1
  H+  H339  1  0.17955142  0.07545398  0.56201701  1
  H+  H340  1  0.91377019  0.08309548  0.27039333  1
  H+  H341  1  0.62267893  0.72530091  0.68165273  1
  H+  H342  1  0.47933351  0.36329386  0.32598491  1
  H+  H343  1  0.32202964  0.93602225  0.74537639  1
  H+  H344  1  0.41004562  0.57124321  0.25264276  1
  H+  H345  1  0.91899480  0.33385524  0.22688537  1
  H+  H346  1  0.16861236  0.32097791  0.90248783  1
  H+  H347  1  0.68560471  0.80269968  0.58041426  1
  H+  H348  1  0.40214051  0.84948477  0.89479898  1
  H+  H349  1  0.57055517  0.66187266  0.12683324  1
  H+  H350  1  0.20408584  0.93302777  0.79694964  1
  H+  H351  1  0.42857255  0.08553024  0.57326998  1
  H+  H352  1  0.82755085  0.92388558  0.11362400  1
  H+  H353  1  0.83211542  0.91408299  0.39910433  1
  H+  H354  1  0.69060128  0.10179470  0.20346258  1
  H+  H355  1  0.33898188  0.68259401  0.77639117  1
  H+  H356  1  0.75134199  0.10091968  0.29891677  1
  H+  H357  1  0.14665751  0.27769952  0.49103843  1
  H+  H358  1  0.54929019  0.16539737  0.40738834  1
  H+  H359  1  0.11629917  0.16714652  0.75710589  1
  H+  H360  1  0.35428660  0.18296164  0.10236495  1
  H+  H361  1  0.20518182  0.97785598  0.19824058  1
  H+  H362  1  0.64359020  0.83907088  0.90293296  1
  H+  H363  1  0.65403753  0.61068342  0.49558519  1
  H+  H364  1  0.32874784  0.42535833  0.76449287  1
  H+  H365  1  0.68433035  0.58084536  0.89349121  1
  H+  H366  1  0.89254483  0.03010097  0.17853411  1
  H+  H367  1  0.88713389  0.30351552  0.54386899  1
  H+  H368  1  0.10188983  0.92357629  0.73054002  1
  H+  H369  1  0.82558885  0.40819859  0.38957777  1
  H+  H370  1  0.62973405  0.85724100  0.34163705  1
  H+  H371  1  0.09667741  0.15868504  0.11989038  1
  H+  H372  1  0.06468777  0.89415758  0.10328235  1
  H+  H373  1  0.12812572  0.60275283  0.84434414  1
  H+  H374  1  0.40853423  0.56925257  0.89998324  1
  H+  H375  1  0.08309991  0.42206846  0.39311491  1
  H+  H376  1  0.16570048  0.57754413  0.93430414  1
  H+  H377  1  0.14527720  0.80799445  0.95566156  1
  H+  H378  1  0.20002680  0.89425035  0.23047805  1
  H+  H379  1  0.72938761  0.36231128  0.49600177  1
  H+  H380  1  0.65596968  0.31750890  0.26804825  1
  H+  H381  1  0.83032998  0.16259101  0.41588461  1
  H+  H382  1  0.42561686  0.33256039  0.93679556  1
  H+  H383  1  0.57308064  0.91325863  0.73062043  1
  O2-  O384  1  0.09477341  0.15740255  0.16473909  1
  O2-  O385  1  0.09245476  0.18047268  0.47173676  1
  O2-  O386  1  0.10702450  0.16094709  0.80292608  1
  O2-  O387  1  0.09132420  0.41628741  0.14952139  1
  O2-  O388  1  0.08075092  0.41871409  0.47192376  1
  O2-  O389  1  0.07974913  0.40679469  0.82684686  1
  O2-  O390  1  0.07380091  0.64406472  0.14872976  1
  O2-  O391  1  0.04057023  0.68964665  0.45893377  1
  O2-  O392  1  0.06961707  0.65227312  0.82370833  1
  O2-  O393  1  0.05024171  0.86430596  0.14283849  1
  O2-  O394  1  0.08731294  0.91775162  0.49229606  1
  O2-  O395  1  0.14721229  0.92827809  0.80552652  1
  O2-  O396  1  0.36217174  0.18654574  0.14788292  1
  O2-  O397  1  0.33689064  0.16226552  0.47508911  1
  O2-  O398  1  0.33704596  0.17825995  0.80014007  1
  O2-  O399  1  0.33265279  0.43647168  0.14710442  1
  O2-  O400  1  0.34193234  0.41803211  0.48011967  1
  O2-  O401  1  0.32658072  0.42284438  0.81060647  1
  O2-  O402  1  0.32632307  0.67853046  0.12812129  1
  O2-  O403  1  0.33016447  0.67033737  0.47697948  1
  O2-  O404  1  0.33195354  0.69656271  0.81861011  1
  O2-  O405  1  0.35906916  0.95006766  0.14145875  1
  O2-  O406  1  0.32356294  0.92010069  0.48084099  1
  O2-  O407  1  0.30268578  0.93291428  0.78822315  1
  O2-  O408  1  0.61958777  0.22872482  0.16238583  1
  O2-  O409  1  0.51915308  0.13399624  0.48960250  1
  O2-  O410  1  0.58787854  0.15850504  0.88475585  1
  O2-  O411  1  0.59156277  0.41288998  0.14857644  1
  O2-  O412  1  0.59007153  0.41522837  0.47991639  1
  O2-  O413  1  0.59648754  0.41535761  0.80549702  1
  O2-  O414  1  0.57648482  0.66362864  0.17127416  1
  O2-  O415  1  0.56584202  0.61772604  0.46821308  1
  O2-  O416  1  0.58035279  0.65294189  0.81780432  1
  O2-  O417  1  0.55986561  0.87330318  0.12185387  1
  O2-  O418  1  0.53710547  0.95748789  0.48369880  1
  O2-  O419  1  0.56010202  0.92011070  0.80961818  1
  O2-  O420  1  0.85541246  0.17572045  0.13276004  1
  O2-  O421  1  0.83340859  0.16578843  0.46212185  1
  O2-  O422  1  0.82344967  0.15782699  0.82809006  1
  O2-  O423  1  0.82492331  0.40016149  0.13587050  1
  O2-  O424  1  0.81558234  0.40263828  0.47404729  1
  O2-  O425  1  0.82378047  0.39856448  0.81129729  1
  O2-  O426  1  0.82063589  0.66130535  0.15875111  1
  O2-  O427  1  0.87922147  0.68564606  0.47261974  1
  O2-  O428  1  0.84260290  0.66511911  0.80722460  1
  O2-  O429  1  0.83161169  0.92448732  0.15840169  1
  O2-  O430  1  0.83749236  0.90610913  0.47797430  1
  O2-  O431  1  0.89036801  0.94234781  0.82068633  1
  O2-  O432  1  0.15408300  0.04776567  0.19630041  1
  O2-  O433  1  0.17615378  0.06800483  0.51660626  1
  O2-  O434  1  0.17745888  0.07187854  0.86267692  1
  O2-  O435  1  0.17244456  0.33148530  0.19189813  1
  O2-  O436  1  0.18251278  0.34052900  0.50410533  1
  O2-  O437  1  0.16859131  0.32531142  0.85671004  1
  O2-  O438  1  0.17110734  0.58570407  0.19423544  1
  O2-  O439  1  0.17445355  0.58533164  0.52401170  1
  O2-  O440  1  0.16525804  0.57943776  0.85816194  1
  O2-  O441  1  0.21142922  0.92608092  0.19112218  1
  O2-  O442  1  0.16243884  0.82738057  0.52635214  1
  O2-  O443  1  0.15661863  0.80498637  0.88499856  1
  O2-  O444  1  0.44605407  0.11149961  0.18688685  1
  O2-  O445  1  0.42760361  0.08888079  0.50969758  1
  O2-  O446  1  0.43007066  0.03609184  0.86908736  1
  O2-  O447  1  0.42993547  0.32999687  0.18940221  1
  O2-  O448  1  0.42305686  0.33855591  0.51734271  1
  O2-  O449  1  0.42986801  0.33006373  0.86236841  1
  O2-  O450  1  0.41311759  0.57692136  0.20258854  1
  O2-  O451  1  0.41463285  0.59352060  0.52150139  1
  O2-  O452  1  0.41308471  0.56404067  0.85465702  1
  O2-  O453  1  0.41277869  0.83884507  0.18204469  1
  O2-  O454  1  0.39249881  0.82545923  0.52626966  1
  O2-  O455  1  0.39644202  0.85711354  0.85028539  1
  O2-  O456  1  0.69803834  0.12674575  0.16230098  1
  O2-  O457  1  0.68347075  0.13813907  0.51138721  1
  O2-  O458  1  0.65681509  0.07256340  0.86785990  1
  O2-  O459  1  0.65932466  0.30957328  0.18389329  1
  O2-  O460  1  0.66605525  0.33489353  0.51474997  1
  O2-  O461  1  0.66314356  0.32200885  0.86172134  1
  O2-  O462  1  0.65851816  0.57616041  0.19411304  1
  O2-  O463  1  0.68608496  0.58398517  0.51394074  1
  O2-  O464  1  0.68083490  0.58456992  0.84886258  1
  O2-  O465  1  0.66194003  0.84597974  0.19639533  1
  O2-  O466  1  0.70227478  0.78671243  0.54171398  1
  O2-  O467  1  0.63040797  0.82423954  0.85866771  1
  O2-  O468  1  0.92358368  0.09231929  0.19015007  1
  O2-  O469  1  0.91091698  0.07417689  0.50633755  1
  O2-  O470  1  0.91698825  0.09139741  0.87962917  1
  O2-  O471  1  0.92147968  0.33782960  0.18122907  1
  O2-  O472  1  0.90330840  0.32086358  0.50182612  1
  O2-  O473  1  0.91460648  0.32460757  0.86242005  1
  O2-  O474  1  0.90326352  0.56960125  0.18032643  1
  O2-  O475  1  0.89789111  0.55800319  0.52484510  1
  O2-  O476  1  0.90062613  0.56118501  0.85243009  1
  O2-  O477  1  0.90416961  0.83264708  0.19279271  1
  O2-  O478  1  0.92427569  0.83716233  0.52430151  1
  O2-  O479  1  0.96944293  0.84389675  0.83478844  1
  O2-  O480  1  0.15982707  0.06963653  0.30645058  1
  O2-  O481  1  0.17978360  0.07697087  0.63689003  1
  O2-  O482  1  0.16691222  0.08715548  0.98686342  1
  O2-  O483  1  0.17989958  0.34246033  0.31451923  1
  O2-  O484  1  0.17562310  0.32898189  0.65878934  1
  O2-  O485  1  0.16792764  0.32467648  0.97883738  1
  O2-  O486  1  0.18032230  0.59812183  0.31367869  1
  O2-  O487  1  0.18145250  0.60067860  0.64620823  1
  O2-  O488  1  0.16712991  0.57542189  0.97987747  1
  O2-  O489  1  0.18097139  0.83925155  0.29749306  1
  O2-  O490  1  0.15122279  0.81008992  0.65873715  1
  O2-  O491  1  0.13260887  0.80739332  1.00107774  1
  O2-  O492  1  0.41347991  0.07950519  0.31003336  1
  O2-  O493  1  0.43074312  0.08346703  0.62271690  1
  O2-  O494  1  0.42810231  0.08867926  0.98979839  1
  O2-  O495  1  0.41961058  0.33155154  0.30967811  1
  O2-  O496  1  0.41887073  0.32953400  0.68248859  1
  O2-  O497  1  0.42570287  0.33477763  0.98290299  1
  O2-  O498  1  0.41089405  0.57179971  0.31364935  1
  O2-  O499  1  0.42991471  0.58921716  0.64483073  1
  O2-  O500  1  0.39582528  0.57489729  0.97399886  1
  O2-  O501  1  0.41125858  0.83357831  0.31014598  1
  O2-  O502  1  0.41334630  0.82617067  0.64820727  1
  O2-  O503  1  0.41657104  0.83871571  0.97161739  1
  O2-  O504  1  0.70735560  0.05517945  0.27039481  1
  O2-  O505  1  0.64018573  0.05287589  0.62339584  1
  O2-  O506  1  0.63784604  0.11594471  1.00884067  1
  O2-  O507  1  0.66022960  0.32772532  0.31256442  1
  O2-  O508  1  0.66968057  0.33276879  0.63059831  1
  O2-  O509  1  0.66908331  0.32315694  0.98368644  1
  O2-  O510  1  0.66282128  0.58718771  0.31236091  1
  O2-  O511  1  0.66886054  0.58273979  0.64095445  1
  O2-  O512  1  0.70128672  0.57632167  0.97571634  1
  O2-  O513  1  0.65466236  0.82316100  0.35691618  1
  O2-  O514  1  0.67360858  0.82918979  0.65693372  1
  O2-  O515  1  0.66561016  0.86836235  0.97853708  1
  O2-  O516  1  0.90126974  0.08097721  0.31440516  1
  O2-  O517  1  0.94601706  0.08015842  0.63468691  1
  O2-  O518  1  0.90897324  0.11423005  1.00626805  1
  O2-  O519  1  0.91813738  0.33145866  0.30390344  1
  O2-  O520  1  0.95719404  0.37726448  0.65654192  1
  O2-  O521  1  0.90896879  0.31288108  0.97897516  1
  O2-  O522  1  0.92890202  0.57799767  0.30343765  1
  O2-  O523  1  0.89952573  0.57464745  0.64842265  1
  O2-  O524  1  0.89745419  0.54533503  0.97589978  1
  O2-  O525  1  0.92365795  0.85039417  0.31627043  1
  O2-  O526  1  0.91293874  0.83610567  0.65002044  1
  O2-  O527  1  0.89950277  0.84725291  0.99728472  1
  O2-  O528  1  0.08609270  0.16957859  0.03559421  1
  O2-  O529  1  0.10197478  0.16609769  0.35468028  1
  O2-  O530  1  0.11263075  0.16747707  0.68273669  1
  O2-  O531  1  0.09251216  0.41457338  0.02147139  1
  O2-  O532  1  0.08379691  0.42151162  0.34777924  1
  O2-  O533  1  0.11867474  0.44126274  0.70747924  1
  O2-  O534  1  0.06486456  0.63494222  0.02109133  1
  O2-  O535  1  0.08748164  0.66969028  0.33969736  1
  O2-  O536  1  0.05410720  0.64608918  0.69587348  1
  O2-  O537  1  0.07644986  0.92132145  0.02388513  1
  O2-  O538  1  0.08271769  0.91294774  0.34599875  1
  O2-  O539  1  0.08276846  0.91440910  0.68743492  1
  O2-  O540  1  0.33779881  0.17203292  0.02749954  1
  O2-  O541  1  0.33684485  0.16332207  0.34905431  1
  O2-  O542  1  0.34376914  0.15203218  0.67333907  1
  O2-  O543  1  0.33449821  0.41301923  0.02083198  1
  O2-  O544  1  0.33935926  0.41245493  0.35575572  1
  O2-  O545  1  0.34357302  0.42954749  0.69161194  1
  O2-  O546  1  0.33585201  0.67493683  0.01086475  1
  O2-  O547  1  0.32651314  0.68260200  0.35620579  1
  O2-  O548  1  0.35179895  0.66863625  0.69547904  1
  O2-  O549  1  0.33783397  0.91586161  0.01327431  1
  O2-  O550  1  0.33902342  0.91942540  0.35391057  1
  O2-  O551  1  0.34654190  0.93147219  0.66845089  1
  O2-  O552  1  0.59395995  0.16264197  0.02920082  1
  O2-  O553  1  0.56724656  0.17352185  0.36462908  1
  O2-  O554  1  0.58775723  0.16480301  0.65334905  1
  O2-  O555  1  0.58755994  0.40701979  0.02372494  1
  O2-  O556  1  0.58650241  0.41851269  0.35103824  1
  O2-  O557  1  0.59123625  0.41745930  0.68366073  1
  O2-  O558  1  0.54008401  0.61884357  0.04696345  1
  O2-  O559  1  0.57292198  0.65875635  0.35640002  1
  O2-  O560  1  0.59008254  0.66351963  0.69451203  1
  O2-  O561  1  0.57712314  0.93583557  0.01695514  1
  O2-  O562  1  0.58244753  0.93029516  0.33309527  1
  O2-  O563  1  0.57572450  0.90306978  0.68620305  1
  O2-  O564  1  0.86001959  0.15944336  0.01951967  1
  O2-  O565  1  0.82887866  0.16385678  0.34320455  1
  O2-  O566  1  0.78065820  0.14825154  0.70538175  1
  O2-  O567  1  0.82888080  0.38265912  0.01904236  1
  O2-  O568  1  0.82895450  0.40675809  0.34493812  1
  O2-  O569  1  0.82339279  0.40950661  0.68908150  1
  O2-  O570  1  0.86206656  0.68532639  0.03158843  1
  O2-  O571  1  0.80922947  0.69644875  0.35740338  1
  O2-  O572  1  0.83026120  0.66841124  0.68372556  1
  O2-  O573  1  0.82590928  0.93767379  0.03189482  1
  O2-  O574  1  0.82804569  0.91671934  0.35410875  1
  O2-  O575  1  0.84607398  0.92869867  0.69128905  1
