# generated using pymatgen
data_H2O
_symmetry_space_group_name_H-M   'P 1'
_cell_length_a   17.99676766
_cell_length_b   17.99345470
_cell_length_c   22.01523373
_cell_angle_alpha   89.98780465
_cell_angle_beta   90.00920303
_cell_angle_gamma   119.98916492
_symmetry_Int_Tables_number   1
_chemical_formula_structural   H2O
_chemical_formula_sum   'H384 O192'
_cell_volume   6174.62224120
_cell_formula_units_Z   192
loop_
 _symmetry_equiv_pos_site_id
 _symmetry_equiv_pos_as_xyz
  1  'x, y, z'
loop_
 _atom_type_symbol
 _atom_type_oxidation_number
  H+  1.0
  O2-  -2.0
loop_
 _atom_site_type_symbol
 _atom_site_label
 _atom_site_symmetry_multiplicity
 _atom_site_fract_x
 _atom_site_fract_y
 _atom_site_fract_z
 _atom_site_occupancy
  H+  H0  1  0.46353179  0.61238139  0.50146516  1
  H+  H1  1  0.52134213  0.14243931  1.01711207  1
  H+  H2  1  0.76478431  0.12203325  0.83829529  1
  H+  H3  1  0.27596514  0.15395109  0.66173192  1
  H+  H4  1  0.61119492  0.72771810  0.33841645  1
  H+  H5  1  0.88882649  0.36900066  0.31765191  1
  H+  H6  1  0.42856489  0.83409586  0.85650015  1
  H+  H7  1  0.11922605  0.78325860  0.65604472  1
  H+  H8  1  0.35553548  0.48533961  0.48604252  1
  H+  H9  1  0.39250625  0.86567449  0.50469241  1
  H+  H10  1  0.11029508  0.64136277  0.32845923  1
  H+  H11  1  0.60397191  0.89484792  0.16111887  1
  H+  H12  1  -0.01640177  0.12438661  0.32140510  1
  H+  H13  1  0.27182269  0.63702274  0.33051929  1
  H+  H14  1  0.27910254  0.14819823  0.81817401  1
  H+  H15  1  0.13124842  0.36199956  0.64993063  1
  H+  H16  1  0.59949122  0.39859007  0.00949772  1
  H+  H17  1  0.97196312  0.36831758  0.16447308  1
  H+  H18  1  1.02913266  0.14637158  0.47948923  1
  H+  H19  1  0.22106225  0.11018976  0.00358669  1
  H+  H20  1  0.98894235  0.38223684  0.64505943  1
  H+  H21  1  0.35014151  0.87637445  0.35124530  1
  H+  H22  1  0.64498258  0.37171335  0.82654896  1
  H+  H23  1  0.86627561  0.35816518  -0.00739854  1
  H+  H24  1  0.88768629  0.85819719  0.66881276  1
  H+  H25  1  0.52514068  0.13474942  0.17724078  1
  H+  H26  1  0.35881077  0.63801408  0.48845935  1
  H+  H27  1  0.35803599  0.98267823  0.49009247  1
  H+  H28  1  0.06103300  0.22614150  0.73073998  1
  H+  H29  1  0.58396481  0.41138281  0.42751837  1
  H+  H30  1  0.59300715  0.15165792  0.28216108  1
  H+  H31  1  0.88504809  0.86622678  0.99792080  1
  H+  H32  1  0.36315242  0.39240826  0.33695978  1
  H+  H33  1  1.01410454  0.61682547  0.16170354  1
  H+  H34  1  0.13220834  0.52920295  0.30841092  1
  H+  H35  1  0.40471094  0.98772213  0.15974040  1
  H+  H36  1  0.77364332  0.88261775  0.00982987  1
  H+  H37  1  0.37120229  0.98110608  0.82851128  1
  H+  H38  1  0.61547205  0.64206174  0.00513077  1
  H+  H39  1  0.86131896  0.97405469  0.48472443  1
  H+  H40  1  0.70047243  1.00701006  0.71893161  1
  H+  H41  1  0.22605429  0.37240787  0.32343010  1
  H+  H42  1  0.35012864  0.84237481  0.83238825  1
  H+  H43  1  0.10013682  0.45901283  0.82025645  1
  H+  H44  1  0.37666297  0.11961744  0.65629000  1
  H+  H45  1  0.36424259  0.48308148  0.33422263  1
  H+  H46  1  0.12547612  0.02118280  0.17519724  1
  H+  H47  1  0.36046301  0.63485214  0.33235275  1
  H+  H48  1  0.62006871  0.14142450  0.82961997  1
  H+  H49  1  0.38965655  0.35673051  0.98927423  1
  H+  H50  1  0.38809848  0.61229637  0.00363847  1
  H+  H51  1  0.39998289  0.82878164  0.28268550  1
  H+  H52  1  0.20289878  0.02349898  0.87309595  1
  H+  H53  1  1.02991806  0.90015278  0.49579421  1
  H+  H54  1  0.26576462  0.88893263  0.49498666  1
  H+  H55  1  0.47679169  0.35815599  0.17409315  1
  H+  H56  1  0.24210577  0.91606416  0.84951240  1
  H+  H57  1  0.38086090  0.10597361  0.17349770  1
  H+  H58  1  0.72811815  0.59765291  0.17414900  1
  H+  H59  1  0.35916786  0.37845508  0.16194648  1
  H+  H60  1  0.84895347  -0.04017036  0.68119883  1
  H+  H61  1  0.11881374  0.11498140  0.84235730  1
  H+  H62  1  0.87611900  0.77272548  0.83564680  1
  H+  H63  1  0.85927517  0.22901288  0.32318612  1
  H+  H64  1  0.33080207  0.90163542  0.61732957  1
  H+  H65  1  0.95863220  0.57265017  0.55462945  1
  H+  H66  1  0.85772837  0.71703361  0.15131881  1
  H+  H67  1  0.85550861  0.47754806  0.68334849  1
  H+  H68  1  0.60781813  0.13290126  0.48737743  1
  H+  H69  1  0.87345235  0.74336636  0.32654955  1
  H+  H70  1  0.88597204  0.36670107  0.48774316  1
  H+  H71  1  0.60182222  0.64757086  0.72707319  1
  H+  H72  1  0.94045712  0.33750808  1.00716802  1
  H+  H73  1  0.77465821  0.88228772  0.48734922  1
  H+  H74  1  0.86267540  0.22864551  0.47923532  1
  H+  H75  1  0.12144294  0.23117759  0.03499857  1
  H+  H76  1  0.39444783  0.86106586  0.99421071  1
  H+  H77  1  0.33037424  0.67129113  0.65546787  1
  H+  H78  1  0.35860067  0.49193079  0.83570997  1
  H+  H79  1  0.62868951  0.01153267  0.98575833  1
  H+  H80  1  0.76573538  0.86513915  0.67393237  1
  H+  H81  1  0.23869382  0.36358007  0.00595426  1
  H+  H82  1  0.35398829  0.21529667  0.00563785  1
  H+  H83  1  0.61785056  0.46919562  0.17246504  1
  H+  H84  1  0.54365366  0.55665120  0.81117582  1
  H+  H85  1  0.72927340  0.62163533  0.32605184  1
  H+  H86  1  0.02091118  0.90038663  0.67329442  1
  H+  H87  1  0.52212119  0.87956206  0.00696826  1
  H+  H88  1  0.19749828  0.67430131  0.86027981  1
  H+  H89  1  0.81610271  0.65905420  0.56461592  1
  H+  H90  1  -0.03288875  0.86191443  0.83487031  1
  H+  H91  1  0.07232529  0.64017037  0.66094531  1
  H+  H92  1  0.95019574  0.10477060  0.22546639  1
  H+  H93  1  0.52455053  0.63758461  1.00952575  1
  H+  H94  1  0.11792768  0.14585995  0.48637732  1
  H+  H95  1  0.39283186  0.62624046  0.84115408  1
  H+  H96  1  0.27256907  0.14056424  0.48999709  1
  H+  H97  1  0.77623453  0.39260865  0.33337765  1
  H+  H98  1  0.42163890  0.07280390  0.90288140  1
  H+  H99  1  0.84908154  0.20855436  0.67082730  1
  H+  H100  1  0.39035596  0.51822149  0.65841261  1
  H+  H101  1  0.35862489  0.22119198  0.16359654  1
  H+  H102  1  0.14628284  0.25948098  0.86046260  1
  H+  H103  1  0.33112807  0.18138993  0.72354290  1
  H+  H104  1  0.10920771  0.47019452  0.67275304  1
  H+  H105  1  0.11001118  0.88887918  0.01322272  1
  H+  H106  1  0.37830449  0.11046977  0.49823573  1
  H+  H107  1  0.53943167  0.90416066  0.90469311  1
  H+  H108  1  0.50748462  0.13664303  0.67672296  1
  H+  H109  1  0.64448295  0.75245149  0.65282771  1
  H+  H110  1  0.88446147  0.11745800  0.48539771  1
  H+  H111  1  0.27173500  0.38249550  0.15747025  1
  H+  H112  1  0.11095423  0.38765229  0.32541313  1
  H+  H113  1  0.64335184  0.53950964  0.98626241  1
  H+  H114  1  0.86774026  0.98338768  0.33330702  1
  H+  H115  1  0.83076448  0.58725952  0.66410693  1
  H+  H116  1  0.23202702  0.61411779  0.48404466  1
  H+  H117  1  0.87615890  0.85305140  0.16372486  1
  H+  H118  1  0.16092752  0.34305084  0.22881491  1
  H+  H119  1  0.62937771  0.47727325  0.81906541  1
  H+  H120  1  0.11231128  0.90599655  0.67164813  1
  H+  H121  1  0.63737060  0.26933951  0.83443454  1
  H+  H122  1  0.25928015  0.38333656  0.67036268  1
  H+  H123  1  0.83891140  0.21342167  0.00549192  1
  H+  H124  1  0.11584295  0.10475571  0.17989706  1
  H+  H125  1  0.86862726  0.10057684  0.99400380  1
  H+  H126  1  0.14234875  0.78131929  0.50196509  1
  H+  H127  1  0.85970142  -0.02552079  1.00836951  1
  H+  H128  1  0.46735286  0.10878265  0.50156515  1
  H+  H129  1  0.39103282  0.77692013  0.50226515  1
  H+  H130  1  0.86498674  0.48258084  0.33106829  1
  H+  H131  1  0.97748495  0.61575014  0.99001225  1
  H+  H132  1  0.51263232  0.36345034  0.49046963  1
  H+  H133  1  0.71318709  0.10208866  0.98946911  1
  H+  H134  1  0.37346416  0.47568370  1.00914366  1
  H+  H135  1  0.72576193  0.36308856  0.48915385  1
  H+  H136  1  0.62081687  0.37258446  0.48630332  1
  H+  H137  1  0.38468735  0.10694954  0.99567020  1
  H+  H138  1  0.59428239  0.87263742  0.74659842  1
  H+  H139  1  0.27812666  0.88727299  0.01379743  1
  H+  H140  1  0.47672526  0.36925632  0.32848492  1
  H+  H141  1  0.63822254  0.02613952  0.49737314  1
  H+  H142  1  0.88638488  0.61055803  0.16165867  1
  H+  H143  1  0.64582453  0.11628405  0.19397222  1
  H+  H144  1  0.72929492  0.11185003  0.28887779  1
  H+  H145  1  0.05392992  0.15689304  0.12056126  1
  H+  H146  1  0.38996795  0.02086656  0.99710963  1
  H+  H147  1  0.72458308  0.87942755  0.17449521  1
  H+  H148  1  0.89318235  0.87089920  0.50703339  1
  H+  H149  1  0.86254590  0.47554768  1.00205977  1
  H+  H150  1  0.62330776  0.01907902  0.84417631  1
  H+  H151  1  0.63539955  0.27254621  0.49506624  1
  H+  H152  1  0.70635478  0.10550626  0.66077795  1
  H+  H153  1  0.98130393  0.87075235  0.32947630  1
  H+  H154  1  0.42760503  0.88560587  0.65933343  1
  H+  H155  1  0.87710119  0.40284391  0.67244017  1
  H+  H156  1  0.61717545  0.48419695  0.34316955  1
  H+  H157  1  0.17600345  0.07731959  0.91482394  1
  H+  H158  1  0.07322803  0.92406810  0.76316390  1
  H+  H159  1  0.12993309  0.02379513  1.00303738  1
  H+  H160  1  0.64014191  0.86105674  0.49965278  1
  H+  H161  1  0.97363349  0.61585329  0.31668496  1
  H+  H162  1  0.63998959  0.86098449  0.99583797  1
  H+  H163  1  0.75937013  0.64233553  0.81961456  1
  H+  H164  1  0.92627872  0.84720667  0.60713916  1
  H+  H165  1  0.60902852  0.50227202  0.50782465  1
  H+  H166  1  0.53827993  0.43500199  0.03235147  1
  H+  H167  1  0.71762573  0.18745305  0.62658925  1
  H+  H168  1  0.88566337  0.10281834  0.83834408  1
  H+  H169  1  0.05973918  0.40122507  -0.01777412  1
  H+  H170  1  0.58570413  0.92067460  0.06337460  1
  H+  H171  1  0.41608428  0.75373263  0.67020565  1
  H+  H172  1  0.64055741  0.28130619  0.32634009  1
  H+  H173  1  0.34903319  0.71844064  0.81946234  1
  H+  H174  1  0.39029385  0.52085685  0.17315393  1
  H+  H175  1  0.11758303  0.89620656  0.34055830  1
  H+  H176  1  0.87844016  0.14556882  0.15753089  1
  H+  H177  1  0.90463648  0.78933666  0.52138039  1
  H+  H178  1  0.87289080  0.60594001  0.83549197  1
  H+  H179  1  0.39559837  0.77306031  -0.00234254  1
  H+  H180  1  0.11876106  0.63986768  1.00356166  1
  H+  H181  1  0.13562033  0.39049952  1.00844913  1
  H+  H182  1  0.59286969  0.27407338  1.00027486  1
  H+  H183  1  0.14552414  0.89748868  0.84884530  1
  H+  H184  1  0.64410440  0.84062220  0.65863677  1
  H+  H185  1  0.87932700  0.35094531  0.84106818  1
  H+  H186  1  1.01675267  0.38516249  0.32075103  1
  H+  H187  1  0.82323812  0.16454373  0.37893548  1
  H+  H188  1  0.13051277  0.27383229  0.64732042  1
  H+  H189  1  0.73013131  0.35231050  0.67084760  1
  H+  H190  1  0.84010786  0.07249458  0.69440674  1
  H+  H191  1  0.13897342  0.03409544  0.50349474  1
  H+  H192  1  0.53692963  0.62043345  0.67151711  1
  H+  H193  1  0.73457051  0.36140250  0.83610438  1
  H+  H194  1  0.28333988  0.64148343  1.00897522  1
  H+  H195  1  0.09683008  0.54715299  0.15532490  1
  H+  H196  1  0.53119697  0.89110139  0.48488081  1
  H+  H197  1  0.63804168  0.77117671  -0.00261837  1
  H+  H198  1  0.35554839  0.62259975  0.16010536  1
  H+  H199  1  0.46151964  0.95154363  0.13153621  1
  H+  H200  1  0.08011168  0.91630677  0.10480280  1
  H+  H201  1  0.67829431  0.59173745  0.48648998  1
  H+  H202  1  0.46412783  0.33415278  0.97156655  1
  H+  H203  1  0.81593003  0.66693081  0.76115712  1
  H+  H204  1  0.14478917  0.28124275  0.49360747  1
  H+  H205  1  0.42095931  0.37658249  0.64356688  1
  H+  H206  1  0.10779486  0.40390793  0.15716990  1
  H+  H207  1  0.62554881  0.76388019  0.84462388  1
  H+  H208  1  0.85494447  0.38364618  0.15478681  1
  H+  H209  1  0.55788466  0.40591164  0.66325791  1
  H+  H210  1  0.09611079  0.97459788  0.82653404  1
  H+  H211  1  0.90971751  0.61667091  0.52283598  1
  H+  H212  1  0.58587542  0.62525488  0.49429560  1
  H+  H213  1  0.89172102  0.86923507  0.32487547  1
  H+  H214  1  0.61571734  0.22457389  0.17800584  1
  H+  H215  1  0.37427554  0.01696152  0.33300560  1
  H+  H216  1  0.61606391  0.39399666  0.33906434  1
  H+  H217  1  1.01920782  0.88671985  1.01078278  1
  H+  H218  1  0.10905355  0.48204399  0.46337034  1
  H+  H219  1  0.63718119  0.61694421  0.32819007  1
  H+  H220  1  1.01396453  0.39174474  0.46780224  1
  H+  H221  1  0.66604708  0.84592223  0.23367124  1
  H+  H222  1  0.32617880  0.36658025  0.70524423  1
  H+  H223  1  0.13788228  0.74382301  0.85537965  1
  H+  H224  1  0.90830187  0.32002587  0.89897272  1
  H+  H225  1  0.46546707  0.10173106  0.32568225  1
  H+  H226  1  0.48216035  0.10663329  0.84464092  1
  H+  H227  1  -0.01171769  0.64799947  0.66513542  1
  H+  H228  1  0.77263706  0.14043973  0.48185624  1
  H+  H229  1  0.11638156  0.27791860  0.17557531  1
  H+  H230  1  -0.00044696  0.14028525  0.69711333  1
  H+  H231  1  0.38775887  0.85098764  0.18605216  1
  H+  H232  1  0.87910417  -0.01284178  0.15793489  1
  H+  H233  1  0.88175677  0.22497737  0.69625813  1
  H+  H234  1  0.72481692  0.35958224  0.17500962  1
  H+  H235  1  0.37877537  0.77267779  0.34128945  1
  H+  H236  1  0.25910614  0.38718977  0.48564803  1
  H+  H237  1  0.11755059  0.14689116  0.33197047  1
  H+  H238  1  0.11789124  0.89826700  0.49365021  1
  H+  H239  1  0.63889574  0.39184720  0.66716676  1
  H+  H240  1  0.22215021  0.35641684  0.85614007  1
  H+  H241  1  0.10619497  0.88366702  0.16413469  1
  H+  H242  1  0.41271482  0.61600045  0.65737374  1
  H+  H243  1  0.63806976  0.86566159  0.32902028  1
  H+  H244  1  0.86631194  0.87906145  0.82871266  1
  H+  H245  1  0.60101765  0.72103093  0.49083384  1
  H+  H246  1  0.86265183  0.47357963  0.48311571  1
  H+  H247  1  0.13896410  0.03257658  0.32757240  1
  H+  H248  1  0.35670964  0.24500897  0.81078061  1
  H+  H249  1  0.13790910  0.28139497  0.32271521  1
  H+  H250  1  0.03737191  0.64722708  0.48230742  1
  H+  H251  1  0.25773827  0.87780757  0.34603954  1
  H+  H252  1  0.37722596  0.37384195  0.83306103  1
  H+  H253  1  0.89271755  0.12050483  0.31353988  1
  H+  H254  1  0.63426336  0.27075098  0.67092526  1
  H+  H255  1  0.11254651  0.13926135  0.03220083  1
  H+  H256  1  0.16871540  0.83636181  0.26894052  1
  H+  H257  1  0.59609917  0.13677920  0.67256825  1
  H+  H258  1  0.47365123  0.61480367  0.32315427  1
  H+  H259  1  0.17251744  0.32423470  0.95041026  1
  H+  H260  1  0.86711690  0.97635232  0.82618445  1
  H+  H261  1  0.78550672  0.13374450  0.16978875  1
  H+  H262  1  0.23199143  0.61953276  0.83094846  1
  H+  H263  1  0.60759055  0.98266390  0.16540813  1
  H+  H264  1  0.13348370  0.12482624  0.65809107  1
  H+  H265  1  0.88650596  0.27496765  0.16770135  1
  H+  H266  1  0.35844784  0.13979356  0.33750615  1
  H+  H267  1  0.51925111  0.89306953  0.33691420  1
  H+  H268  1  0.66759212  0.82474481  0.55763795  1
  H+  H269  1  0.55981821  0.89386509  0.68684052  1
  H+  H270  1  0.96355114  0.85191958  0.16550942  1
  H+  H271  1  0.08173691  0.59890100  0.80882163  1
  H+  H272  1  0.12742164  0.75506953  0.17674126  1
  H+  H273  1  -0.02454105  0.10009193  0.84426451  1
  H+  H274  1  -0.04765303  0.58856491  0.82905823  1
  H+  H275  1  0.60181472  0.73992439  0.16209303  1
  H+  H276  1  0.14130843  0.78203249  0.99271547  1
  H+  H277  1  0.08573545  0.66295283  0.06301145  1
  H+  H278  1  0.85488522  0.47228701  0.15474345  1
  H+  H279  1  0.40326755  0.28091864  0.65291915  1
  H+  H280  1  0.13012776  0.75349527  0.82339218  1
  H+  H281  1  0.83508581  0.92447625  0.10195172  1
  H+  H282  1  0.39677316  0.26578405  0.49804977  1
  H+  H283  1  0.88617029  0.61849039  0.31385392  1
  H+  H284  1  0.15192062  0.53001922  0.99294265  1
  H+  H285  1  0.85362532  0.46856552  0.83298646  1
  H+  H286  1  0.13269522  0.77466151  0.32592989  1
  H+  H287  1  0.15897089  0.60312415  0.71004100  1
  H+  H288  1  0.43695096  0.32758192  0.55755406  1
  H+  H289  1  0.59262570  0.41672013  0.11108841  1
  H+  H290  1  0.68853597  0.60323087  0.59447317  1
  H+  H291  1  0.41419748  0.58181474  0.26313791  1
  H+  H292  1  0.91409636  0.83796900  0.93734235  1
  H+  H293  1  0.81909557  0.15728248  0.06558691  1
  H+  H294  1  0.58229537  0.16763312  0.77147009  1
  H+  H295  1  0.92841262  0.34983175  0.54603568  1
  H+  H296  1  0.65289111  0.59258571  0.89039103  1
  H+  H297  1  0.13136973  0.03547702  0.65890214  1
  H+  H298  1  0.34544370  0.41383285  0.06751413  1
  H+  H299  1  0.33445128  0.66830634  0.42588055  1
  H+  H300  1  0.66022438  0.07913659  0.90180440  1
  H+  H301  1  0.69081221  0.53590293  0.66919111  1
  H+  H302  1  0.16528379  0.83852389  0.56391217  1
  H+  H303  1  0.32888411  0.42558563  0.42158993  1
  H+  H304  1  0.27158322  0.14382669  0.33564991  1
  H+  H305  1  0.31679598  0.43697501  0.77577082  1
  H+  H306  1  0.83900881  0.92321485  0.39296011  1
  H+  H307  1  0.84675759  0.67748661  0.38160616  1
  H+  H308  1  0.17423549  0.34069374  0.55320276  1
  H+  H309  1  0.45472717  0.85502085  0.60022277  1
  H+  H310  1  0.16588810  0.09582295  0.56161879  1
  H+  H311  1  0.91211018  0.58021479  0.22333795  1
  H+  H312  1  0.32764995  0.92596177  0.76753605  1
  H+  H313  1  0.91463790  0.33758292  0.25636342  1
  H+  H314  1  0.67117713  0.57508623  0.23484784  1
  H+  H315  1  0.61527448  0.42669444  0.75553707  1
  H+  H316  1  0.45943649  0.82938958  0.19654568  1
  H+  H317  1  0.82130211  0.65384180  0.49318944  1
  H+  H318  1  0.18569756  0.61602801  0.64211780  1
  H+  H319  1  0.38761282  0.28010183  0.32808775  1
  H+  H320  1  0.57215330  0.16348145  0.43230471  1
  H+  H321  1  0.08965209  0.92793780  0.39983150  1
  H+  H322  1  0.41662143  0.58611176  0.94258909  1
  H+  H323  1  0.17809154  0.86137297  0.94397727  1
  H+  H324  1  0.21301773  0.84305399  0.17049601  1
  H+  H325  1  0.40397835  0.07457434  0.23494049  1
  H+  H326  1  0.40752224  0.57603300  0.56175054  1
  H+  H327  1  0.41690730  0.33277309  0.23269569  1
  H+  H328  1  0.07332129  0.41919858  0.39605575  1
  H+  H329  1  0.60824339  0.97576528  0.31847669  1
  H+  H330  1  0.48160477  0.62659486  0.85017361  1
  H+  H331  1  0.89127309  0.08965849  0.63470306  1
  H+  H332  1  0.57435388  0.66478508  0.39581600  1
  H+  H333  1  0.17725686  0.59021316  0.93421428  1
  H+  H334  1  0.57607397  0.86428933  0.85897208  1
  H+  H335  1  0.65399030  0.82148583  0.90393680  1
  H+  H336  1  0.86151892  0.72824032  0.00233482  1
  H+  H337  1  0.90174266  0.07067644  0.93731147  1
  H+  H338  1  0.92269395  0.09185119  0.54104898  1
  H+  H339  1  0.12612816  0.64903020  0.47741749  1
  H+  H340  1  0.09226110  0.14876585  0.78456875  1
  H+  H341  1  0.26719470  0.13504646  0.16221188  1
  H+  H342  1  0.86082497  0.55593265  0.60929151  1
  H+  H343  1  0.36383399  -0.01545220  0.65672869  1
  H+  H344  1  0.47521206  0.61677414  0.17309368  1
  H+  H345  1  0.83518033  0.41196416  0.77259620  1
  H+  H346  1  0.32950223  0.16665954  0.42852226  1
  H+  H347  1  0.63430828  0.35795134  0.17813104  1
  H+  H348  1  0.00867239  0.37461302  0.82066502  1
  H+  H349  1  0.73029873  0.62635345  0.97950064  1
  H+  H350  1  0.86064407  0.63851762  0.99830194  1
  H+  H351  1  0.08075500  0.42579047  0.09462116  1
  H+  H352  1  0.57883378  0.67761282  0.10536477  1
  H+  H353  1  0.15437736  0.59611488  0.25480836  1
  H+  H354  1  0.09054995  0.17841860  0.39140108  1
  H+  H355  1  0.34095640  0.70159422  0.16616599  1
  H+  H356  1  0.04558836  0.63140766  0.75480799  1
  H+  H357  1  0.57990424  0.17701967  0.07611049  1
  H+  H358  1  0.08352696  0.67228334  0.38885306  1
  H+  H359  1  0.91550892  0.58436531  0.93168183  1
  H+  H360  1  0.66924443  0.33961864  0.26735158  1
  H+  H361  1  0.66788371  0.09204290  0.55452187  1
  H+  H362  1  0.72797494  0.86716595  0.32798170  1
  H+  H363  1  0.82615572  0.65466505  0.09396842  1
  H+  H364  1  0.16462418  0.08772931  0.26613869  1
  H+  H365  1  0.85324473  0.20934972  0.82744575  1
  H+  H366  1  0.40266745  0.33151717  0.88558726  1
  H+  H367  1  0.61172619  0.12800423  0.34356911  1
  H+  H368  1  0.32009182  0.91286478  0.42144606  1
  H+  H369  1  0.35081693  0.91766276  0.06644847  1
  H+  H370  1  0.76862818  0.09692361  0.75275932  1
  H+  H371  1  0.82714100  0.90605729  0.76597915  1
  H+  H372  1  0.40895595  0.09079732  0.59733897  1
  H+  H373  1  0.34653916  0.66441869  0.76009693  1
  H+  H374  1  0.59090372  0.92495094  0.42604851  1
  H+  H375  1  0.63868162  0.33638181  0.94396266  1
  H+  H376  1  0.33027684  0.16202271  0.06842989  1
  H+  H377  1  0.07136309  0.40339778  0.72702227  1
  H+  H378  1  0.33626084  0.66353545  0.07134248  1
  H+  H379  1  0.82552704  0.41402906  0.05967712  1
  H+  H380  1  0.16261358  0.56932267  0.53643181  1
  H+  H381  1  0.89669069  0.30386234  0.63870544  1
  H+  H382  1  0.83345710  0.41944238  0.42102323  1
  H+  H383  1  0.21442108  0.86557703  0.65912688  1
  O2-  O384  1  0.04676450  0.15575254  0.16738721  1
  O2-  O385  1  0.09113971  0.17875011  0.46912323  1
  O2-  O386  1  0.08713683  0.14379410  0.82905657  1
  O2-  O387  1  0.07518591  0.42992037  0.13913100  1
  O2-  O388  1  0.07312680  0.42178028  0.44769401  1
  O2-  O389  1  0.06445127  0.40594980  0.79821084  1
  O2-  O390  1  0.07790125  0.64739562  0.14816632  1
  O2-  O391  1  0.09738788  0.68263857  0.46740845  1
  O2-  O392  1  0.02950058  0.58713479  0.78638171  1
  O2-  O393  1  0.07978554  0.91733442  0.15044170  1
  O2-  O394  1  0.08985358  0.93024714  0.47876621  1
  O2-  O395  1  0.06514344  0.91643133  0.80857510  1
  O2-  O396  1  0.32779804  0.16047993  0.14859163  1
  O2-  O397  1  0.33275708  0.16504577  0.47421871  1
  O2-  O398  1  0.32710316  0.18613400  0.79168486  1
  O2-  O399  1  0.33269050  0.41125230  0.14464327  1
  O2-  O400  1  0.32507865  0.42483471  0.46847710  1
  O2-  O401  1  0.32262799  0.43244564  0.81985336  1
  O2-  O402  1  0.32180126  0.64824386  0.14321325  1
  O2-  O403  1  0.33144165  0.67052513  0.47162762  1
  O2-  O404  1  0.33312588  0.65759537  0.80392625  1
  O2-  O405  1  0.40211170  0.93567206  0.14076164  1
  O2-  O406  1  0.32658982  0.91929803  0.47607461  1
  O2-  O407  1  0.32784072  0.92068545  0.81155365  1
  O2-  O408  1  0.58824576  0.16079609  0.17149248  1
  O2-  O409  1  0.57470864  0.16299119  0.47657108  1
  O2-  O410  1  0.59215741  0.17543646  0.81628593  1
  O2-  O411  1  0.58431511  0.40724432  0.15551104  1
  O2-  O412  1  0.58246522  0.40361372  0.47400197  1
  O2-  O413  1  0.61556310  0.42161642  0.80098002  1
  O2-  O414  1  0.56931527  0.67908190  0.14948055  1
  O2-  O415  1  0.56275119  0.66035490  0.47669152  1
  O2-  O416  1  0.59304065  0.61387692  0.81948654  1
  O2-  O417  1  0.57238470  0.92481273  0.14756403  1
  O2-  O418  1  0.59203211  0.92265130  0.47133565  1
  O2-  O419  1  0.54507634  0.89785608  0.86106256  1
  O2-  O420  1  0.83961451  0.16793230  0.14706370  1
  O2-  O421  1  0.83217075  0.16797166  0.46502962  1
  O2-  O422  1  0.82292719  0.14660737  0.81828238  1
  O2-  O423  1  0.82157242  0.41117924  0.14092581  1
  O2-  O424  1  0.83039936  0.41439460  0.46705478  1
  O2-  O425  1  0.82841602  0.40771138  0.81799536  1
  O2-  O426  1  0.83125830  0.65425810  0.13894253  1
  O2-  O427  1  0.85749437  0.67143778  0.52929364  1
  O2-  O428  1  0.82022748  0.66905275  0.80551340  1
  O2-  O429  1  0.83551671  0.92770147  0.14755934  1
  O2-  O430  1  0.83572711  0.91266009  0.47337155  1
  O2-  O431  1  0.83570342  0.91271171  0.81225024  1
  O2-  O432  1  0.15478232  0.08237572  0.18956956  1
  O2-  O433  1  0.16911639  0.09594368  0.51633249  1
  O2-  O434  1  0.18427520  0.06712138  0.87043314  1
  O2-  O435  1  0.15558246  0.33965143  0.18368578  1
  O2-  O436  1  0.17759583  0.34234174  0.50812952  1
  O2-  O437  1  0.16724105  0.31756984  0.87668232  1
  O2-  O438  1  0.11627929  0.60116640  0.17864461  1
  O2-  O439  1  0.16712815  0.58030454  0.49283394  1
  O2-  O440  1  0.17952909  0.61430978  0.85145670  1
  O2-  O441  1  0.15695196  0.81653938  0.19010439  1
  O2-  O442  1  0.17216335  0.84136643  0.51846302  1
  O2-  O443  1  0.19663251  0.91724777  0.87507544  1
  O2-  O444  1  0.41368848  0.07909571  0.19028264  1
  O2-  O445  1  0.40600625  0.07734807  0.51473352  1
  O2-  O446  1  0.42231720  0.06879606  0.85772094  1
  O2-  O447  1  0.41515625  0.32827856  0.18749481  1
  O2-  O448  1  0.43638205  0.32653533  0.51197922  1
  O2-  O449  1  0.40677494  0.34096240  0.84123554  1
  O2-  O450  1  0.41451605  0.57964458  0.19000438  1
  O2-  O451  1  0.40227043  0.57970479  0.51668210  1
  O2-  O452  1  0.42120140  0.59674024  0.86199108  1
  O2-  O453  1  0.40011527  0.81049679  0.20907016  1
  O2-  O454  1  0.42414953  0.83696262  0.51814893  1
  O2-  O455  1  0.36605754  0.80030755  0.84846278  1
  O2-  O456  1  0.67702196  0.08448249  0.20656941  1
  O2-  O457  1  0.66587400  0.08836400  0.50930314  1
  O2-  O458  1  0.66108485  0.08041166  0.85415930  1
  O2-  O459  1  0.66637449  0.32913719  0.19464665  1
  O2-  O460  1  0.66499911  0.33513310  0.50385477  1
  O2-  O461  1  0.67013708  0.33366139  0.84771347  1
  O2-  O462  1  0.66901649  0.56379086  0.19079878  1
  O2-  O463  1  0.63504256  0.56443672  0.51820078  1
  O2-  O464  1  0.65357143  0.58669832  0.84404151  1
  O2-  O465  1  0.66397316  0.85164779  0.18875472  1
  O2-  O466  1  0.66668555  0.82633707  0.51222088  1
  O2-  O467  1  0.63872334  0.81991191  0.85968421  1
  O2-  O468  1  0.95302551  0.10657671  0.17940770  1
  O2-  O469  1  0.91729543  0.08725951  0.49706657  1
  O2-  O470  1  0.91222505  0.06768537  0.85097391  1
  O2-  O471  1  0.91239082  0.33576555  0.18170275  1
  O2-  O472  1  0.92240883  0.34142516  0.50103141  1
  O2-  O473  1  0.90917484  0.31926195  0.85370141  1
  O2-  O474  1  0.91579449  0.57872801  0.17810554  1
  O2-  O475  1  0.93720435  0.58035765  0.51577060  1
  O2-  O476  1  0.89853720  0.57292568  0.85252093  1
  O2-  O477  1  0.90084139  0.81538689  0.17002532  1
  O2-  O478  1  0.93127879  0.85197880  0.52678528  1
  O2-  O479  1  0.90648189  0.83298227  0.85135162  1
  O2-  O480  1  0.16921259  0.09287462  0.31165702  1
  O2-  O481  1  0.16205266  0.09548681  0.64110816  1
  O2-  O482  1  0.16088996  0.08426878  0.98767956  1
  O2-  O483  1  0.16545679  0.34295268  0.30863583  1
  O2-  O484  1  0.16381499  0.33403777  0.63375819  1
  O2-  O485  1  0.17607829  0.33386534  0.99601249  1
  O2-  O486  1  0.16310331  0.59141670  0.29883417  1
  O2-  O487  1  0.13737478  0.58228005  0.66908481  1
  O2-  O488  1  0.17693514  0.59083540  0.97915157  1
  O2-  O489  1  0.16856151  0.83731242  0.31434116  1
  O2-  O490  1  0.15701147  0.84312290  0.64072047  1
  O2-  O491  1  0.17276919  0.84548053  0.98795766  1
  O2-  O492  1  0.40376740  0.07538025  0.31541694  1
  O2-  O493  1  0.40660420  0.08753640  0.64241179  1
  O2-  O494  1  0.41973963  0.08129606  0.98198315  1
  O2-  O495  1  0.41668090  0.34064565  0.31301546  1
  O2-  O496  1  0.44442970  0.33930191  0.63463502  1
  O2-  O497  1  0.40302722  0.31494518  0.96837717  1
  O2-  O498  1  0.41239942  0.58337392  0.30943660  1
  O2-  O499  1  0.42810974  0.57480784  0.63937129  1
  O2-  O500  1  0.41763384  0.58104805  0.98738048  1
  O2-  O501  1  0.40357655  0.83427910  0.32850594  1
  O2-  O502  1  0.46077333  0.85844560  0.64529578  1
  O2-  O503  1  0.42795535  0.83325194  0.98223300  1
  O2-  O504  1  0.66840504  0.08027848  0.27370571  1
  O2-  O505  1  0.67827397  0.12584471  0.63068559  1
  O2-  O506  1  0.65629390  0.07095913  0.96909942  1
  O2-  O507  1  0.66977818  0.34191722  0.31371031  1
  O2-  O508  1  0.67208516  0.32842601  0.65313519  1
  O2-  O509  1  0.59494906  0.32240983  0.97505275  1
  O2-  O510  1  0.66691236  0.58445989  0.31708693  1
  O2-  O511  1  0.74435260  0.59547371  0.67131268  1
  O2-  O512  1  0.66872309  0.59616586  0.96519763  1
  O2-  O513  1  0.66645305  0.83379307  0.31472474  1
  O2-  O514  1  0.67278659  0.81340803  0.63711517  1
  O2-  O515  1  0.67005903  0.83084112  0.97988706  1
  O2-  O516  1  0.92558786  0.09168462  0.30190591  1
  O2-  O517  1  0.89217147  0.07242512  0.67650673  1
  O2-  O518  1  0.89928842  0.06984765  0.98187814  1
  O2-  O519  1  0.91765623  0.33731747  0.30234778  1
  O2-  O520  1  0.93145115  0.36383618  0.62533360  1
  O2-  O521  1  0.89263230  0.32060752  0.97932057  1
  O2-  O522  1  0.91302291  0.58333197  0.30218427  1
  O2-  O523  1  0.87761655  0.57489778  0.65109760  1
  O2-  O524  1  0.91636499  0.58554352  0.97691714  1
  O2-  O525  1  0.92127770  0.83670493  0.31488673  1
  O2-  O526  1  0.92719162  0.84014167  0.65179586  1
  O2-  O527  1  0.91618631  0.83615663  0.98210558  1
  O2-  O528  1  0.09395706  0.17433429  0.05514130  1
  O2-  O529  1  0.08808266  0.17882790  0.34602627  1
  O2-  O530  1  0.06141031  0.18097563  0.70622724  1
  O2-  O531  1  0.10278006  0.42368416  0.01432226  1
  O2-  O532  1  0.07806801  0.41834080  0.33757226  1
  O2-  O533  1  0.07901970  0.40783383  0.68072387  1
  O2-  O534  1  0.08712594  0.66885024  0.01828253  1
  O2-  O535  1  0.07966927  0.67137229  0.34365848  1
  O2-  O536  1  0.05049663  0.67759497  0.67511910  1
  O2-  O537  1  0.07883116  0.91839073  0.02778534  1
  O2-  O538  1  0.08996480  0.92912278  0.35446407  1
  O2-  O539  1  0.08351541  0.93662525  0.68779782  1
  O2-  O540  1  0.32660272  0.15644233  0.02324977  1
  O2-  O541  1  0.33195191  0.17340162  0.35234837  1
  O2-  O542  1  0.33605100  0.18114504  0.67654030  1
  O2-  O543  1  0.34782101  0.41411857  0.02194048  1
  O2-  O544  1  0.33210805  0.42265943  0.35131207  1
  O2-  O545  1  0.31692314  0.41275245  0.69112271  1
  O2-  O546  1  0.34268672  0.66829416  0.02523688  1
  O2-  O547  1  0.32943205  0.66379369  0.34987424  1
  O2-  O548  1  0.38180842  0.69090516  0.68010920  1
  O2-  O549  1  0.34106295  0.91557629  0.02207433  1
  O2-  O550  1  0.31805082  0.90727251  0.36592207  1
  O2-  O551  1  0.33969024  0.92000869  0.65972849  1
  O2-  O552  1  0.57826650  0.18739474  0.03264329  1
  O2-  O553  1  0.58254323  0.15630997  0.32557025  1
  O2-  O554  1  0.56660888  0.16294232  0.69415016  1
  O2-  O555  1  0.59769612  0.44811344  0.03178479  1
  O2-  O556  1  0.58533698  0.42222963  0.35710816  1
  O2-  O557  1  0.61718729  0.43298677  0.67903728  1
  O2-  O558  1  0.58555282  0.67055221  0.02348055  1
  O2-  O559  1  0.57867899  0.66577161  0.35075383  1
  O2-  O560  1  0.59804294  0.65457029  0.68323215  1
  O2-  O561  1  0.58549491  0.91218132  0.01892884  1
  O2-  O562  1  0.58195729  0.92511362  0.34561254  1
  O2-  O563  1  0.61247741  0.90153076  0.70725475  1
  O2-  O564  1  0.81413437  0.15364644  0.02069264  1
  O2-  O565  1  0.82663811  0.16662749  0.33396609  1
  O2-  O566  1  0.74889193  0.06644220  0.71272738  1
  O2-  O567  1  0.83003355  0.41426967  0.01459067  1
  O2-  O568  1  0.83764272  0.42208950  0.34707357  1
  O2-  O569  1  0.84029170  0.41864245  0.69645180  1
  O2-  O570  1  0.82687569  0.66567763  0.01217958  1
  O2-  O571  1  0.84033031  0.67746370  0.33775229  1
  O2-  O572  1  0.74323882  0.64235308  0.61579631  1
  O2-  O573  1  0.83401116  0.91372538  0.02512308  1
  O2-  O574  1  0.83545124  0.92287191  0.34782322  1
  O2-  O575  1  0.82265740  0.89961406  0.69565763  1
