# generated using pymatgen
data_H2O
_symmetry_space_group_name_H-M   'P 1'
_cell_length_a   17.99015077
_cell_length_b   18.00054257
_cell_length_c   22.00512714
_cell_angle_alpha   90.01636643
_cell_angle_beta   89.99217169
_cell_angle_gamma   119.99680512
_symmetry_Int_Tables_number   1
_chemical_formula_structural   H2O
_chemical_formula_sum   'H384 O192'
_cell_volume   6171.47360336
_cell_formula_units_Z   192
loop_
 _symmetry_equiv_pos_site_id
 _symmetry_equiv_pos_as_xyz
  1  'x, y, z'
loop_
 _atom_type_symbol
 _atom_type_oxidation_number
  H+  1.0
  O2-  -2.0
loop_
 _atom_site_type_symbol
 _atom_site_label
 _atom_site_symmetry_multiplicity
 _atom_site_fract_x
 _atom_site_fract_y
 _atom_site_fract_z
 _atom_site_occupancy
  H+  H0  1  0.88795067  0.10460313  0.31775806  1
  H+  H1  1  0.86039776  0.63032310  0.33648104  1
  H+  H2  1  0.46504133  0.85361931  0.51325235  1
  H+  H3  1  0.38250188  0.80116488  1.00330174  1
  H+  H4  1  0.89903663  -0.00186995  0.98498483  1
  H+  H5  1  0.76976193  0.87481075  0.67040856  1
  H+  H6  1  0.56411263  0.20999716  0.51494436  1
  H+  H7  1  0.38576651  0.77941349  0.16549812  1
  H+  H8  1  0.13730889  0.26427029  0.66281732  1
  H+  H9  1  0.87119271  0.14936906  0.02178027  1
  H+  H10  1  0.38872068  0.61595703  0.04212537  1
  H+  H11  1  0.13689564  0.62598217  0.33602346  1
  H+  H12  1  0.22695250  0.86583944  0.51394764  1
  H+  H13  1  0.02598804  0.87168021  0.33966008  1
  H+  H14  1  0.86065674  0.96421520  0.33124419  1
  H+  H15  1  0.31981826  0.36324938  0.35796945  1
  H+  H16  1  0.87925505  0.85160892  0.65811368  1
  H+  H17  1  0.55302696  0.27166086  0.26215503  1
  H+  H18  1  0.72589697  0.61379355  0.65062513  1
  H+  H19  1  0.16689625  0.32640777  0.60389667  1
  H+  H20  1  0.11051743  0.77903998  0.84640986  1
  H+  H21  1  0.52652284  0.89616627  0.15181831  1
  H+  H22  1  0.17718480  0.35315722  0.92605196  1
  H+  H23  1  0.79436708  0.39847558  0.52920519  1
  H+  H24  1  0.50301152  0.64054763  0.15773820  1
  H+  H25  1  0.88816676  0.51932860  1.01268894  1
  H+  H26  1  0.38358746  1.01794685  0.18148339  1
  H+  H27  1  0.88081273  0.50484940  0.67322802  1
  H+  H28  1  0.85379321  0.62692704  0.49207439  1
  H+  H29  1  0.16052966  0.58898467  0.24104307  1
  H+  H30  1  0.65621344  1.00398154  0.68186701  1
  H+  H31  1  0.89767819  0.40886876  0.36356991  1
  H+  H32  1  0.16069095  1.01976731  0.33817497  1
  H+  H33  1  0.76171748  0.62101433  0.49068354  1
  H+  H34  1  0.53464066  0.88023222  0.68168521  1
  H+  H35  1  0.35286629  0.63725225  0.16799097  1
  H+  H36  1  0.61169138  0.38913931  0.00682241  1
  H+  H37  1  0.51385522  0.38491664  0.47736149  1
  H+  H38  1  0.64494597  0.53418930  0.85085077  1
  H+  H39  1  0.62949390  0.84790710  0.50807670  1
  H+  H40  1  0.34753310  0.87396081  0.50207436  1
  H+  H41  1  0.60436784  0.99458393  0.00763046  1
  H+  H42  1  0.55747221  0.93659154  0.34125290  1
  H+  H43  1  0.38459553  0.28277340  0.49682856  1
  H+  H44  1  0.30519827  0.87805737  0.83991552  1
  H+  H45  1  0.87141779  -0.03000673  0.15314392  1
  H+  H46  1  0.77523854  0.61363941  0.16380321  1
  H+  H47  1  0.72384225  0.19166858  0.00411725  1
  H+  H48  1  0.73249290  0.84658555  0.83933618  1
  H+  H49  1  0.26879288  0.88880778  0.15466290  1
  H+  H50  1  0.11274489  0.21104501  0.50681542  1
  H+  H51  1  0.63797446  0.11602146  0.31653913  1
  H+  H52  1  0.77286714  0.40253368  0.62948858  1
  H+  H53  1  0.12015927  0.44777698  0.70937958  1
  H+  H54  1  0.62568499  0.51527293  0.32784467  1
  H+  H55  1  0.28546745  0.39993886  0.99487184  1
  H+  H56  1  0.13749409  0.61287860  0.98979560  1
  H+  H57  1  0.10104100  0.47365920  0.33559435  1
  H+  H58  1  0.43468898  0.34045733  0.22983485  1
  H+  H59  1  0.37546033  0.73027881  0.67582548  1
  H+  H60  1  0.13883739  0.10460878  0.50713080  1
  H+  H61  1  0.21480249  0.44963479  0.94439947  1
  H+  H62  1  0.51660149  0.62536384  0.49374157  1
  H+  H63  1  0.36832820  0.14798389  0.83218172  1
  H+  H64  1  0.96135988  0.38205709  0.17793977  1
  H+  H65  1  0.61654972  0.62892411  0.82831578  1
  H+  H66  1  0.42326441  0.06263089  1.00022600  1
  H+  H67  1  0.41768725  0.84921103  0.21708790  1
  H+  H68  1  1.04152683  0.64737122  1.01559964  1
  H+  H69  1  0.61066717  0.62673318  0.66861705  1
  H+  H70  1  0.38871038  0.60770131  0.66568228  1
  H+  H71  1  0.02783720  0.63977888  0.16673883  1
  H+  H72  1  0.13987623  0.55101640  0.64853075  1
  H+  H73  1  0.88814777  0.41904283  0.67190507  1
  H+  H74  1  0.66087223  0.32839653  0.52809841  1
  H+  H75  1  0.77799314  0.43247742  0.32361291  1
  H+  H76  1  0.52545127  0.27703113  0.65580269  1
  H+  H77  1  0.46802587  0.34290632  0.66334571  1
  H+  H78  1  0.88619560  0.76834519  0.97663327  1
  H+  H79  1  0.34981966  0.47531554  0.49282132  1
  H+  H80  1  0.39993452  0.24210344  0.66029400  1
  H+  H81  1  0.13093933  0.73567686  0.01107556  1
  H+  H82  1  0.68604434  -0.01818178  0.88266064  1
  H+  H83  1  0.60688096  0.39892820  0.69497657  1
  H+  H84  1  0.87879723  0.36514600  0.84103938  1
  H+  H85  1  0.62484498  0.12184380  0.41897735  1
  H+  H86  1  0.63440159  0.75855686  0.65894377  1
  H+  H87  1  0.43121528  0.87927398  0.83248060  1
  H+  H88  1  0.17408345  0.03561010  1.00408748  1
  H+  H89  1  0.82319005  0.11867765  1.02202467  1
  H+  H90  1  0.27209399  0.38048646  0.67800569  1
  H+  H91  1  0.27237379  0.66420219  0.01497941  1
  H+  H92  1  0.63017588  0.75944096  0.50350125  1
  H+  H93  1  0.92159470  0.09447595  0.98721330  1
  H+  H94  1  0.87338210  0.01923261  0.48372023  1
  H+  H95  1  0.22234757  0.80059613  0.29093344  1
  H+  H96  1  0.67340611  0.34711757  0.62219824  1
  H+  H97  1  0.50839213  0.86378072  0.84423942  1
  H+  H98  1  0.28812632  0.14188728  0.34017192  1
  H+  H99  1  0.12024043  0.55288264  0.51748069  1
  H+  H100  1  0.76176721  0.38469376  0.82179965  1
  H+  H101  1  0.12558685  0.24420127  0.84346537  1
  H+  H102  1  0.16237749  0.84356712  0.93842011  1
  H+  H103  1  0.87582290  0.85146343  0.97312710  1
  H+  H104  1  0.71664104  0.60665347  0.32574625  1
  H+  H105  1  0.61293861  0.73631957  1.01220411  1
  H+  H106  1  0.14412354  0.13556416  0.01524711  1
  H+  H107  1  0.35113261  -0.03493295  0.67742064  1
  H+  H108  1  0.11429035  0.65753134  0.67915170  1
  H+  H109  1  0.89801823  0.52880408  0.51389962  1
  H+  H110  1  0.58982399  0.12022400  0.99075091  1
  H+  H111  1  0.60640935  0.26321348  0.98750865  1
  H+  H112  1  0.73195365  0.11611682  0.31429370  1
  H+  H113  1  0.86494787  0.63935486  0.81712574  1
  H+  H114  1  0.59830498  0.10892839  0.48627744  1
  H+  H115  1  0.73451215  0.62323043  0.84207752  1
  H+  H116  1  0.43371773  0.09723906  0.89886742  1
  H+  H117  1  0.10729782  0.39165872  0.01174711  1
  H+  H118  1  0.56656355  0.11190850  0.66373745  1
  H+  H119  1  0.37388271  0.23745572  0.33704743  1
  H+  H120  1  0.37807880  0.76352876  0.51406147  1
  H+  H121  1  0.37973004  0.36861431  0.49167655  1
  H+  H122  1  0.54972653  0.18014228  0.09346062  1
  H+  H123  1  0.89641141  0.60135673  0.17262926  1
  H+  H124  1  0.28058763  0.38719143  0.15436359  1
  H+  H125  1  0.38375201  0.52076265  0.16711805  1
  H+  H126  1  0.08790698  0.85542195  0.84994842  1
  H+  H127  1  0.24211652  0.13837673  0.84141212  1
  H+  H128  1  0.62623870  0.50482050  0.49870514  1
  H+  H129  1  0.37615483  0.13847730  0.15233006  1
  H+  H130  1  0.41353553  0.65278977  1.02095385  1
  H+  H131  1  0.62592071  0.48359921  1.01403678  1
  H+  H132  1  0.90500937  0.09100039  0.66288510  1
  H+  H133  1  0.35722021  0.37592510  -0.01694652  1
  H+  H134  1  0.12986358  0.36511734  0.31386048  1
  H+  H135  1  0.79483142  0.11675125  0.68532675  1
  H+  H136  1  1.03251005  0.12494701  0.66613598  1
  H+  H137  1  1.02251970  0.14431014  0.34942861  1
  H+  H138  1  0.63629211  0.38097306  0.84460642  1
  H+  H139  1  0.82480318  0.90296490  0.38916343  1
  H+  H140  1  0.40876838  0.38795924  0.31167656  1
  H+  H141  1  0.83482385  0.17574199  0.13074404  1
  H+  H142  1  0.13066730  0.64464283  0.50586114  1
  H+  H143  1  0.64273777  0.87272540  -0.01427103  1
  H+  H144  1  0.91122071  0.30783936  0.56582269  1
  H+  H145  1  0.42339591  0.51043569  0.98575818  1
  H+  H146  1  0.13128477  0.74646394  0.34110351  1
  H+  H147  1  0.64265605  0.75556856  0.83880524  1
  H+  H148  1  0.52634704  0.12481704  0.33666624  1
  H+  H149  1  0.88730743  0.85197454  0.32314145  1
  H+  H150  1  0.35782282  0.88854294  0.14852517  1
  H+  H151  1  0.13979044  0.10821589  0.18784279  1
  H+  H152  1  0.37532401  0.92217844  0.00350460  1
  H+  H153  1  0.10197025  0.43306607  0.47762562  1
  H+  H154  1  0.35483361  0.60101094  0.34333490  1
  H+  H155  1  0.36871477  0.90639956  0.35320192  1
  H+  H156  1  0.12775915  0.33609098  0.50926739  1
  H+  H157  1  0.11401895  0.87052064  0.34012462  1
  H+  H158  1  0.91443097  0.54048149  0.33872504  1
  H+  H159  1  0.23193137  0.86428059  0.66112855  1
  H+  H160  1  0.62571503  0.59373396  0.50199848  1
  H+  H161  1  0.59810821  0.33804913  0.48229930  1
  H+  H162  1  0.60731268  0.21187254  0.31899903  1
  H+  H163  1  0.54076049  0.37459459  0.15932136  1
  H+  H164  1  0.01996929  0.64087207  0.83064239  1
  H+  H165  1  0.23001440  0.10837855  0.50404000  1
  H+  H166  1  1.01237572  0.11163236  0.82027591  1
  H+  H167  1  0.92733014  0.25040368  0.95987309  1
  H+  H168  1  0.11491845  0.36624849  0.67372460  1
  H+  H169  1  0.21945978  0.61168297  0.33695574  1
  H+  H170  1  0.87534309  0.64331132  0.01243071  1
  H+  H171  1  0.38789004  0.22922845  0.14813030  1
  H+  H172  1  0.63738550  0.86913229  0.16898996  1
  H+  H173  1  0.80807888  0.35917556  0.03666122  1
  H+  H174  1  0.38961282  0.28325472  0.93359560  1
  H+  H175  1  0.84639570  0.12662659  0.47534788  1
  H+  H176  1  0.63010093  0.02161387  0.16968223  1
  H+  H177  1  0.28326550  0.64708897  0.67434720  1
  H+  H178  1  0.38550979  1.02923065  0.33957080  1
  H+  H179  1  0.60029863  0.71090532  0.33637538  1
  H+  H180  1  0.32271995  0.69260952  0.07818141  1
  H+  H181  1  0.04788785  0.11387805  0.00999069  1
  H+  H182  1  0.47516866  0.60307518  0.66401189  1
  H+  H183  1  0.58814193  0.13265003  0.63371621  1
  H+  H184  1  0.11283768  0.64829365  0.82941771  1
  H+  H185  1  0.38144294  0.60798363  0.51625727  1
  H+  H186  1  0.49655807  0.38293478  0.32546531  1
  H+  H187  1  0.78781140  0.64588793  0.01068032  1
  H+  H188  1  0.36797151  0.09462100  0.66448625  1
  H+  H189  1  0.37539176  1.02984937  0.84714555  1
  H+  H190  1  0.37343089  0.36468984  0.83550396  1
  H+  H191  1  0.77042591  0.88354422  -0.00150012  1
  H+  H192  1  0.37639372  0.72874319  0.82978487  1
  H+  H193  1  0.26368938  0.63695116  0.49823862  1
  H+  H194  1  0.40961784  0.18626956  -0.02426100  1
  H+  H195  1  0.88641092  0.76315367  0.32172125  1
  H+  H196  1  0.70591341  0.12632272  0.16984118  1
  H+  H197  1  0.11926840  0.89265710  0.16049392  1
  H+  H198  1  0.10166840  0.48090241  0.16885707  1
  H+  H199  1  0.86360820  0.50576568  0.84373887  1
  H+  H200  1  0.13254973  1.01666543  0.18554213  1
  H+  H201  1  0.66414311  0.81854920  0.59911303  1
  H+  H202  1  0.87049818  0.38245204  0.51115109  1
  H+  H203  1  0.66683534  0.09701038  0.68692005  1
  H+  H204  1  0.51141489  0.14805681  0.15819960  1
  H+  H205  1  0.50772846  0.16336776  0.80775430  1
  H+  H206  1  0.61463934  0.48909727  0.68084489  1
  H+  H207  1  0.34371412  0.77392148  0.29835374  1
  H+  H208  1  0.86727388  0.88014824  0.81719396  1
  H+  H209  1  0.64608715  0.50904831  0.17462408  1
  H+  H210  1  0.27160729  0.88827076  0.34732811  1
  H+  H211  1  0.00916180  0.35258700  0.48803789  1
  H+  H212  1  -0.02011343  0.35762918  0.66659033  1
  H+  H213  1  0.46198173  0.58728207  0.32566413  1
  H+  H214  1  0.36846253  0.23693419  0.82446131  1
  H+  H215  1  0.12996648  0.90595709  0.01265949  1
  H+  H216  1  0.52244392  0.40519692  0.83906865  1
  H+  H217  1  0.98760892  0.63397469  0.32777458  1
  H+  H218  1  0.36035590  0.46803315  0.68075104  1
  H+  H219  1  0.59810609  0.73594191  0.15937964  1
  H+  H220  1  0.32239763  0.91177302  0.44422989  1
  H+  H221  1  0.39384019  0.86159166  0.66845806  1
  H+  H222  1  0.62477058  0.28916275  0.83180124  1
  H+  H223  1  0.40636933  0.36551854  0.16811775  1
  H+  H224  1  0.42028974  0.83205304  0.60756541  1
  H+  H225  1  0.31000643  0.16234308  -0.02145029  1
  H+  H226  1  0.88165393  0.29733610  0.68273576  1
  H+  H227  1  0.01978283  0.65077663  0.49591761  1
  H+  H228  1  1.00504608  0.11072585  0.17290919  1
  H+  H229  1  0.13537272  0.62151864  0.18028729  1
  H+  H230  1  0.77740684  0.88710917  0.15332938  1
  H+  H231  1  0.64152671  0.14215146  0.84212682  1
  H+  H232  1  0.36867136  0.49568325  0.32818685  1
  H+  H233  1  0.37832150  0.15038612  0.48972249  1
  H+  H234  1  0.74224763  0.38483926  1.01961293  1
  H+  H235  1  0.89540010  0.85898746  0.16923156  1
  H+  H236  1  0.13878247  0.36620960  0.17068694  1
  H+  H237  1  0.01198396  0.37263107  0.00988491  1
  H+  H238  1  0.60548766  0.62444187  0.33690262  1
  H+  H239  1  0.63981837  0.86126130  0.32658168  1
  H+  H240  1  0.62632861  0.86453547  0.83308800  1
  H+  H241  1  0.31236365  0.41977818  0.42947259  1
  H+  H242  1  0.10848442  0.74336239  0.49986756  1
  H+  H243  1  0.53639980  0.63411211  1.00576054  1
  H+  H244  1  0.37875921  0.51260940  0.83711425  1
  H+  H245  1  0.60783998  0.39571630  0.33073191  1
  H+  H246  1  0.20547428  0.18007873  0.88510238  1
  H+  H247  1  0.52248961  0.90244443  1.00842661  1
  H+  H248  1  0.17072174  0.07532754  0.60171215  1
  H+  H249  1  -0.02130995  0.63660279  0.66230809  1
  H+  H250  1  0.72534676  0.85603216  0.32063336  1
  H+  H251  1  0.26396804  0.12002941  0.67510877  1
  H+  H252  1  0.22039046  0.36798489  0.32394385  1
  H+  H253  1  0.86175329  0.73293423  0.66168429  1
  H+  H254  1  0.23037654  0.89573996  0.83042823  1
  H+  H255  1  0.25714088  0.36511440  0.82784084  1
  H+  H256  1  0.44179826  0.81400565  0.30852216  1
  H+  H257  1  0.91658902  0.10940292  0.17562020  1
  H+  H258  1  0.83853366  0.25805585  0.16090570  1
  H+  H259  1  0.65262978  0.62651055  0.00434828  1
  H+  H260  1  0.61830275  0.86951454  0.67654512  1
  H+  H261  1  0.85642717  0.96280379  0.82423983  1
  H+  H262  1  0.59795291  0.96423251  0.49789556  1
  H+  H263  1  0.86136880  0.27240390  0.99239768  1
  H+  H264  1  0.76892110  0.87633291  0.48381423  1
  H+  H265  1  0.11735038  0.97336041  0.49312465  1
  H+  H266  1  0.88771307  0.10272849  0.84152896  1
  H+  H267  1  0.45412460  0.08930284  0.66201565  1
  H+  H268  1  0.75905746  0.13519504  0.46905410  1
  H+  H269  1  0.31284439  0.90768018  0.73758905  1
  H+  H270  1  0.12398427  0.22867082  0.15924469  1
  H+  H271  1  0.13659107  0.77692675  0.17902866  1
  H+  H272  1  0.74777822  0.39865736  0.30180061  1
  H+  H273  1  0.34039671  0.41160903  0.09566723  1
  H+  H274  1  0.92543551  0.83287372  0.88752075  1
  H+  H275  1  0.87402698  0.22705244  0.83122858  1
  H+  H276  1  0.10646033  0.23691512  0.34637346  1
  H+  H277  1  0.79634809  0.30864044  0.30557725  1
  H+  H278  1  0.88439933  0.62849427  0.65729171  1
  H+  H279  1  0.09572236  0.96918049  0.68648089  1
  H+  H280  1  0.87468926  0.25549067  0.50234041  1
  H+  H281  1  0.11986107  0.32906388  0.84233683  1
  H+  H282  1  0.13146414  0.52221543  0.98834432  1
  H+  H283  1  0.00892764  0.35955233  0.83330772  1
  H+  H284  1  0.84862971  0.22048508  0.32566812  1
  H+  H285  1  0.14262968  0.11147134  0.65859988  1
  H+  H286  1  0.88156381  0.19308168  0.65776065  1
  H+  H287  1  0.65376886  0.10765326  0.84198230  1
  H+  H288  1  0.42326595  0.08565252  0.56447970  1
  H+  H289  1  0.17123488  0.33782243  0.22847135  1
  H+  H290  1  0.92827813  0.83757203  0.23077235  1
  H+  H291  1  0.41378803  0.57470627  0.57202342  1
  H+  H292  1  0.06746109  0.42097070  0.10990463  1
  H+  H293  1  0.32639859  0.15324863  0.73538987  1
  H+  H294  1  0.65376734  0.32923293  0.93188734  1
  H+  H295  1  0.41430841  0.07592511  0.24296638  1
  H+  H296  1  0.66534052  0.82650655  0.93271852  1
  H+  H297  1  0.09984726  0.16198294  0.10283354  1
  H+  H298  1  0.19160362  0.08753972  0.94132597  1
  H+  H299  1  0.58183107  0.22909123  0.65296513  1
  H+  H300  1  0.87744360  0.44432943  0.42304981  1
  H+  H301  1  0.61063966  0.02900458  0.57202448  1
  H+  H302  1  0.66532089  0.57189011  0.23052001  1
  H+  H303  1  0.17292772  0.84328949  0.23509587  1
  H+  H304  1  0.59042877  0.93184260  0.09486966  1
  H+  H305  1  0.82655442  0.65730766  0.39481432  1
  H+  H306  1  0.63173273  0.09502891  0.93349142  1
  H+  H307  1  0.08698273  0.15595470  0.72773346  1
  H+  H308  1  0.85953434  0.88022866  0.47492980  1
  H+  H309  1  0.57790606  0.41449876  0.41785170  1
  H+  H310  1  0.92070510  0.06301941  0.89428474  1
  H+  H311  1  0.93162437  0.07538127  0.26709364  1
  H+  H312  1  0.82871557  0.66936810  0.72087636  1
  H+  H313  1  0.92180820  0.59646144  0.56768162  1
  H+  H314  1  0.83342546  0.90762205  0.05617144  1
  H+  H315  1  0.10484608  0.93938217  0.07185015  1
  H+  H316  1  0.65850594  0.57077494  0.59502005  1
  H+  H317  1  0.22521591  0.35764777  0.50985752  1
  H+  H318  1  0.16862473  0.83974361  0.59354106  1
  H+  H319  1  0.32389631  0.64555001  0.44238489  1
  H+  H320  1  0.58228273  0.43789518  0.78004188  1
  H+  H321  1  0.90381797  0.00423183  0.65707632  1
  H+  H322  1  0.52448179  0.62415160  0.82457130  1
  H+  H323  1  0.22405141  0.62772297  0.83522361  1
  H+  H324  1  0.42281897  0.84890300  0.93949069  1
  H+  H325  1  0.65626340  0.05825058  0.56232584  1
  H+  H326  1  0.57191358  0.67685113  0.09002077  1
  H+  H327  1  0.57270977  0.65178592  0.43230473  1
  H+  H328  1  0.96774879  0.85339040  0.66333023  1
  H+  H329  1  0.57191888  0.90573209  0.44125122  1
  H+  H330  1  0.10758219  0.12319089  0.82371517  1
  H+  H331  1  0.23663626  0.88347638  0.98954959  1
  H+  H332  1  0.87759552  0.73336637  0.81495147  1
  H+  H333  1  0.32063734  0.40442329  0.76862387  1
  H+  H334  1  0.40759940  0.57114383  0.23065512  1
  H+  H335  1  0.08179515  0.68496053  0.73896449  1
  H+  H336  1  0.44862239  0.57118019  0.92733495  1
  H+  H337  1  0.04774154  0.91075052  0.74485714  1
  H+  H338  1  0.78598224  0.41271650  0.11932808  1
  H+  H339  1  0.37577312  0.69489586  0.35855965  1
  H+  H340  1  0.65282316  0.35233295  0.15450047  1
  H+  H341  1  0.08534950  0.68437350  0.40043097  1
  H+  H342  1  0.38630336  0.60526806  0.83895951  1
  H+  H343  1  0.17841916  0.07694862  0.27941503  1
  H+  H344  1  0.88014544  0.76603533  0.48311418  1
  H+  H345  1  0.02932544  0.89126502  0.15948628  1
  H+  H346  1  0.59786233  0.41158959  0.09920908  1
  H+  H347  1  0.92300933  0.56879521  0.95062516  1
  H+  H348  1  0.09565224  0.67669930  0.10943116  1
  H+  H349  1  0.70918652  0.03255283  0.94351473  1
  H+  H350  1  0.82945145  0.42082716  0.76496372  1
  H+  H351  1  0.06429085  0.39670108  0.38244080  1
  H+  H352  1  0.93198084  0.58396475  0.23366951  1
  H+  H353  1  0.77598101  0.22419101  0.06660195  1
  H+  H354  1  0.66243428  0.08085506  0.24140425  1
  H+  H355  1  0.08315058  0.16497797  0.44325097  1
  H+  H356  1  0.60316081  0.90589623  0.77666586  1
  H+  H357  1  0.55565304  0.22687442  0.75119826  1
  H+  H358  1  0.83064110  0.55233859  0.88705306  1
  H+  H359  1  0.64562205  0.30459820  0.23758376  1
  H+  H360  1  0.87908668  0.33437236  0.26737280  1
  H+  H361  1  0.34101885  0.94768458  0.06161462  1
  H+  H362  1  0.67926532  0.59890512  0.94289444  1
  H+  H363  1  0.34198853  0.17289397  0.43085786  1
  H+  H364  1  0.34165244  0.67101574  0.77025493  1
  H+  H365  1  0.82790550  0.90561407  0.73050714  1
  H+  H366  1  0.39917667  0.12439189  0.33254977  1
  H+  H367  1  0.64895195  0.98916873  0.36246815  1
  H+  H368  1  0.58385608  0.65462259  0.73089834  1
  H+  H369  1  0.66285768  0.83411505  0.22849611  1
  H+  H370  1  0.13657397  0.87110537  0.51395752  1
  H+  H371  1  0.95988959  0.10778730  0.49335376  1
  H+  H372  1  0.97098275  0.85424311  0.48707019  1
  H+  H373  1  0.87177502  0.38564763  0.17983521  1
  H+  H374  1  0.13315311  0.78043644  0.66290792  1
  H+  H375  1  0.84141711  0.66044918  0.10946556  1
  H+  H376  1  0.26543904  0.64164154  0.17358677  1
  H+  H377  1  0.16204894  0.59052870  0.89175011  1
  H+  H378  1  0.17383931  0.62217372  0.59919943  1
  H+  H379  1  0.05925802  0.36158919  0.77375478  1
  H+  H380  1  0.09121319  0.90899389  0.43539553  1
  H+  H381  1  0.86677506  0.17400563  0.77170106  1
  H+  H382  1  0.90938354  0.33315999  0.90064473  1
  H+  H383  1  0.83023838  0.16262261  0.38428854  1
  O2-  O384  1  0.09565569  0.16666275  0.14861160  1
  O2-  O385  1  0.08099393  0.15297771  0.48826034  1
  O2-  O386  1  0.07321876  0.14699686  0.80535662  1
  O2-  O387  1  0.06566712  0.42000808  0.15509221  1
  O2-  O388  1  0.06619707  0.37273643  0.46767995  1
  O2-  O389  1  0.06536817  0.36934375  0.81804584  1
  O2-  O390  1  0.09215630  0.67605379  0.15447669  1
  O2-  O391  1  0.08138676  0.68439394  0.48138436  1
  O2-  O392  1  0.07830661  0.67701631  0.81538931  1
  O2-  O393  1  0.09133469  0.92468241  0.14515685  1
  O2-  O394  1  0.08925832  0.91127710  0.48088048  1
  O2-  O395  1  0.02215680  0.88782467  0.82499990  1
  O2-  O396  1  0.36276168  0.17442251  0.12600817  1
  O2-  O397  1  0.33781390  0.16898389  0.47653652  1
  O2-  O398  1  0.33854332  0.17537202  0.81153486  1
  O2-  O399  1  0.34169399  0.41808925  0.14044744  1
  O2-  O400  1  0.31515163  0.41626342  0.47630764  1
  O2-  O401  1  0.31869657  0.40207420  0.81517231  1
  O2-  O402  1  0.32645400  0.67277322  0.15785193  1
  O2-  O403  1  0.32433789  0.65762687  0.48665630  1
  O2-  O404  1  0.33953027  0.66884952  0.81556867  1
  O2-  O405  1  0.32862886  0.92125045  0.13799547  1
  O2-  O406  1  0.31553172  0.90279803  0.48932600  1
  O2-  O407  1  0.29246794  0.91752106  0.81805025  1
  O2-  O408  1  0.56466925  0.18962176  0.13690439  1
  O2-  O409  1  0.53753127  0.14597699  0.53204316  1
  O2-  O410  1  0.56391273  0.20524531  0.79032682  1
  O2-  O411  1  0.60140263  0.40133247  0.14447010  1
  O2-  O412  1  0.57595302  0.40849914  0.46502865  1
  O2-  O413  1  0.58354404  0.43564651  0.82587271  1
  O2-  O414  1  0.56344240  0.67669425  0.14038614  1
  O2-  O415  1  0.57660253  0.65448963  0.47774546  1
  O2-  O416  1  0.58459089  0.65527305  0.80888973  1
  O2-  O417  1  0.58911034  0.92858496  0.14112423  1
  O2-  O418  1  0.56940608  0.90344717  0.48632793  1
  O2-  O419  1  0.60225750  0.90309260  0.82191983  1
  O2-  O420  1  0.79917362  0.20089329  0.14002805  1
  O2-  O421  1  0.82153151  0.16464843  0.46167577  1
  O2-  O422  1  0.85453664  0.16861418  0.81571980  1
  O2-  O423  1  0.77867202  0.40381203  0.16456916  1
  O2-  O424  1  0.84579925  0.42029987  0.50332268  1
  O2-  O425  1  0.82445396  0.41416668  0.81005779  1
  O2-  O426  1  0.83654170  0.63804426  0.15078964  1
  O2-  O427  1  0.82148851  0.65300552  0.47415639  1
  O2-  O428  1  0.83751171  0.67178174  0.80289282  1
  O2-  O429  1  0.83513960  0.91237388  0.13484857  1
  O2-  O430  1  0.82555834  0.90974966  0.46382100  1
  O2-  O431  1  0.82774051  0.90243543  0.80798925  1
  O2-  O432  1  0.15807754  0.07168426  0.20869354  1
  O2-  O433  1  0.17074325  0.07491597  0.52097793  1
  O2-  O434  1  0.18926874  0.12542784  0.86551237  1
  O2-  O435  1  0.17277594  0.33905300  0.18215999  1
  O2-  O436  1  0.16705243  0.32086455  0.53016189  1
  O2-  O437  1  0.15717839  0.30529557  0.85768422  1
  O2-  O438  1  0.16336828  0.58811558  0.19564722  1
  O2-  O439  1  0.16146913  0.61331438  0.52403804  1
  O2-  O440  1  0.16307482  0.60179673  0.84732759  1
  O2-  O441  1  0.16942807  0.83982242  0.18968957  1
  O2-  O442  1  0.16531029  0.83907500  0.53249352  1
  O2-  O443  1  0.13316367  0.83909169  0.86067723  1
  O2-  O444  1  0.41626950  0.07709413  0.19773065  1
  O2-  O445  1  0.44432588  0.10384233  0.52232481  1
  O2-  O446  1  0.41604871  0.09105537  0.85552430  1
  O2-  O447  1  0.43826959  0.33847581  0.18434047  1
  O2-  O448  1  0.41743593  0.34546046  0.50357686  1
  O2-  O449  1  0.41155078  0.34011664  0.85141827  1
  O2-  O450  1  0.40900817  0.57986942  0.18549770  1
  O2-  O451  1  0.41310817  0.57765400  0.52646552  1
  O2-  O452  1  0.41629674  0.57326619  0.85019697  1
  O2-  O453  1  0.42035475  0.84323749  0.17271759  1
  O2-  O454  1  0.40589524  0.82301885  0.53073654  1
  O2-  O455  1  0.44486771  0.84144514  0.85549409  1
  O2-  O456  1  0.65313268  0.08011689  0.19054595  1
  O2-  O457  1  0.63236124  0.09662700  0.45648017  1
  O2-  O458  1  0.72612846  0.00030237  0.91714635  1
  O2-  O459  1  0.69209299  0.32772495  0.16680391  1
  O2-  O460  1  0.61968593  0.29728307  0.49557824  1
  O2-  O461  1  0.66393662  0.34559480  0.85283093  1
  O2-  O462  1  0.67212540  0.57049187  0.18579881  1
  O2-  O463  1  0.65614598  0.56413671  0.51760106  1
  O2-  O464  1  0.67824522  0.59631919  0.86345796  1
  O2-  O465  1  0.66190964  0.83304769  0.18279099  1
  O2-  O466  1  0.66207740  0.81939149  0.52016977  1
  O2-  O467  1  0.67264223  0.81457869  0.85678148  1
  O2-  O468  1  0.94187761  0.07503567  0.18794012  1
  O2-  O469  1  0.89656964  0.08094306  0.49338866  1
  O2-  O470  1  0.91290981  0.06462507  0.84948764  1
  O2-  O471  1  0.89929108  0.35158764  0.19124089  1
  O2-  O472  1  0.91202431  0.31388644  0.52125199  1
  O2-  O473  1  0.91063613  0.33654125  0.85554280  1
  O2-  O474  1  0.93661692  0.58177296  0.18885965  1
  O2-  O475  1  0.92247663  0.59139928  0.52231994  1
  O2-  O476  1  0.88292836  0.56164776  0.86681989  1
  O2-  O477  1  0.93538161  0.84214462  0.18587605  1
  O2-  O478  1  0.90826676  0.82943629  0.48417542  1
  O2-  O479  1  0.93102521  0.83418046  0.83978257  1
  O2-  O480  1  0.19236053  0.07953689  0.32419122  1
  O2-  O481  1  0.17006966  0.07642108  0.64716179  1
  O2-  O482  1  0.20689524  0.09608456  0.98489349  1
  O2-  O483  1  0.16224574  0.33525266  0.30224012  1
  O2-  O484  1  0.16489467  0.32652765  0.64990572  1
  O2-  O485  1  0.19353676  0.39285103  0.96212653  1
  O2-  O486  1  0.16186071  0.59061509  0.31956550  1
  O2-  O487  1  0.17324932  0.61330192  0.64450483  1
  O2-  O488  1  0.16409904  0.58084555  0.97131166  1
  O2-  O489  1  0.19598298  0.82913836  0.31222872  1
  O2-  O490  1  0.17142157  0.83902119  0.64362290  1
  O2-  O491  1  0.17514844  0.84104330  0.98218651  1
  O2-  O492  1  0.42342259  0.08658757  0.32060402  1
  O2-  O493  1  0.39557039  0.06158068  0.64618613  1
  O2-  O494  1  0.45968571  0.11901444  0.97884321  1
  O2-  O495  1  0.43141536  0.34912554  0.30618976  1
  O2-  O496  1  0.45179103  0.28998088  0.64076200  1
  O2-  O497  1  0.40024681  0.34317733  0.91733722  1
  O2-  O498  1  0.40186849  0.55850825  0.31001476  1
  O2-  O499  1  0.41402452  0.57354529  0.64965439  1
  O2-  O500  1  0.46993933  0.56382736  0.96713732  1
  O2-  O501  1  0.39784205  0.82829309  0.29809775  1
  O2-  O502  1  0.42644340  0.83450488  0.65311130  1
  O2-  O503  1  0.42086475  0.85886009  0.98350881  1
  O2-  O504  1  0.66965435  0.08434183  0.30017089  1
  O2-  O505  1  0.69659889  0.06699439  0.67443980  1
  O2-  O506  1  0.63496557  0.09846371  0.97781443  1
  O2-  O507  1  0.61135064  0.29096271  0.27607944  1
  O2-  O508  1  0.72639689  0.38153557  0.59839446  1
  O2-  O509  1  0.64850945  0.32494394  0.97696882  1
  O2-  O510  1  0.65585721  0.57885204  0.31212892  1
  O2-  O511  1  0.66311001  0.57900152  0.64034827  1
  O2-  O512  1  0.68224836  0.59704595  0.98809793  1
  O2-  O513  1  0.66333642  0.82851814  0.30655654  1
  O2-  O514  1  0.66438696  0.81974660  0.64462243  1
  O2-  O515  1  0.66317477  0.83178622  0.97810190  1
  O2-  O516  1  0.91904091  0.07273464  0.31135720  1
  O2-  O517  1  0.93736663  0.06560660  0.64467819  1
  O2-  O518  1  0.94241874  0.05821432  0.97020857  1
  O2-  O519  1  0.85332984  0.31496214  0.30878542  1
  O2-  O520  1  0.91982020  0.33496226  0.65093061  1
  O2-  O521  1  0.92021850  0.29871214  0.97158555  1
  O2-  O522  1  0.92700951  0.59318969  0.31543134  1
  O2-  O523  1  0.92031237  0.60075309  0.64498285  1
  O2-  O524  1  0.92689589  0.57668956  0.99504235  1
  O2-  O525  1  0.92116274  0.82499717  0.30955085  1
  O2-  O526  1  0.90996112  0.82184400  0.64324370  1
  O2-  O527  1  0.90101107  0.82056785  0.95202365  1
  O2-  O528  1  0.10294046  0.15380686  0.02962794  1
  O2-  O529  1  0.07441897  0.18500183  0.37200026  1
  O2-  O530  1  0.09335382  0.16324126  0.68264240  1
  O2-  O531  1  0.06953057  0.41247769  0.02755610  1
  O2-  O532  1  0.07187024  0.41045735  0.33886426  1
  O2-  O533  1  0.07947612  0.39277474  0.69154962  1
  O2-  O534  1  0.10292680  0.67561967  0.02704498  1
  O2-  O535  1  0.09081333  0.68334638  0.35569883  1
  O2-  O536  1  0.08368630  0.68763844  0.69311676  1
  O2-  O537  1  0.11141437  0.94622688  0.02645746  1
  O2-  O538  1  0.08491727  0.89913308  0.35789377  1
  O2-  O539  1  0.06044083  0.90969512  0.70101304  1
  O2-  O540  1  0.36902486  0.20503737  -0.03661167  1
  O2-  O541  1  0.35065254  0.17904013  0.35430391  1
  O2-  O542  1  0.32562950  0.14554712  0.69040700  1
  O2-  O543  1  0.34118064  0.40869385  0.01074337  1
  O2-  O544  1  0.31101854  0.41243137  0.35842727  1
  O2-  O545  1  0.32970445  0.40871702  0.69730105  1
  O2-  O546  1  0.31811512  0.71292734  0.03728564  1
  O2-  O547  1  0.32976005  0.63599401  0.36331424  1
  O2-  O548  1  0.34191904  0.66932086  0.69040659  1
  O2-  O549  1  0.34824408  0.95631877  0.01647305  1
  O2-  O550  1  0.33218758  0.92781441  0.36894847  1
  O2-  O551  1  0.32225282  0.90428233  0.69333690  1
  O2-  O552  1  0.54437796  0.15968955  0.00966002  1
  O2-  O553  1  0.59092369  0.15696661  0.34148275  1
  O2-  O554  1  0.58035950  0.27736584  0.67200704  1
  O2-  O555  1  0.59130777  0.42402674  0.02861976  1
  O2-  O556  1  0.57924908  0.42420733  0.34900997  1
  O2-  O557  1  0.58248273  0.43499899  0.70561477  1
  O2-  O558  1  0.58842097  0.67791825  0.03146022  1
  O2-  O559  1  0.57075655  0.65172416  0.35242424  1
  O2-  O560  1  0.58027417  0.65633098  0.68553901  1
  O2-  O561  1  0.58459113  0.93461239  0.02113947  1
  O2-  O562  1  0.59996851  0.93026772  0.36469179  1
  O2-  O563  1  0.59396777  0.90289340  0.69717172  1
  O2-  O564  1  0.77491923  0.24104863  0.02386705  1
  O2-  O565  1  0.82943064  0.16018607  0.33858047  1
  O2-  O566  1  0.85964713  0.15344293  0.69186978  1
  O2-  O567  1  0.79854646  0.40826822  0.04140517  1
  O2-  O568  1  0.91280517  0.46192661  0.38599316  1
  O2-  O569  1  0.85210749  0.44246004  0.68635051  1
  O2-  O570  1  0.84991205  0.67947831  0.02198473  1
  O2-  O571  1  0.82756415  0.65924239  0.34946563  1
  O2-  O572  1  0.82818539  0.66779827  0.67578350  1
  O2-  O573  1  0.83164323  0.90678815  0.01077384  1
  O2-  O574  1  0.82635565  0.90241648  0.34318198  1
  O2-  O575  1  0.83017243  0.90444887  0.68516549  1
