# generated using pymatgen
data_H2O
_symmetry_space_group_name_H-M   'P 1'
_cell_length_a   17.97477677
_cell_length_b   17.98873137
_cell_length_c   21.99479989
_cell_angle_alpha   89.98053890
_cell_angle_beta   90.01558781
_cell_angle_gamma   119.97018794
_symmetry_Int_Tables_number   1
_chemical_formula_structural   H2O
_chemical_formula_sum   'H384 O192'
_cell_volume   6160.91259052
_cell_formula_units_Z   192
loop_
 _symmetry_equiv_pos_site_id
 _symmetry_equiv_pos_as_xyz
  1  'x, y, z'
loop_
 _atom_type_symbol
 _atom_type_oxidation_number
  H+  1.0
  O2-  -2.0
loop_
 _atom_site_type_symbol
 _atom_site_label
 _atom_site_symmetry_multiplicity
 _atom_site_fract_x
 _atom_site_fract_y
 _atom_site_fract_z
 _atom_site_occupancy
  H+  H0  1  0.54192685  0.65803528  0.66664114  1
  H+  H1  1  0.11842611  0.46681124  0.15191381  1
  H+  H2  1  0.11544801  0.85502694  0.83978345  1
  H+  H3  1  0.54010866  0.39021977  0.66377399  1
  H+  H4  1  0.87346909  0.75559312  0.67218183  1
  H+  H5  1  0.93315655  0.83275959  0.57039962  1
  H+  H6  1  0.60892749  0.20779594  0.00809767  1
  H+  H7  1  0.86771250  0.13115974  0.48072576  1
  H+  H8  1  0.51792186  0.15756089  0.49957968  1
  H+  H9  1  0.36466457  0.14184098  0.48136009  1
  H+  H10  1  0.32938241  0.45810627  0.66173136  1
  H+  H11  1  0.50896161  0.62690595  0.17794397  1
  H+  H12  1  0.85612072  0.14189337  0.54818914  1
  H+  H13  1  0.35476093  0.22191042  0.33127173  1
  H+  H14  1  -0.02729528  0.37278234  0.84453870  1
  H+  H15  1  0.08791376  0.96403893  0.83058351  1
  H+  H16  1  0.67114740  0.84239174  0.59833351  1
  H+  H17  1  -0.01396259  0.88672309  -0.01490866  1
  H+  H18  1  0.62334964  0.64327505  0.49468816  1
  H+  H19  1  0.11241546  0.47416871  0.32472084  1
  H+  H20  1  0.63314150  0.84936995  0.16819753  1
  H+  H21  1  0.65148768  0.59302888  0.99848085  1
  H+  H22  1  0.36111242  0.72105453  0.00582048  1
  H+  H23  1  0.86464886  0.64065762  0.49613206  1
  H+  H24  1  0.84047032  0.39268495  0.49224387  1
  H+  H25  1  0.54370515  0.37951817  0.49553531  1
  H+  H26  1  0.36894402  0.30718679  0.78698665  1
  H+  H27  1  0.13484074  0.51895083  0.67310410  1
  H+  H28  1  0.16103363  0.07044022  0.89928544  1
  H+  H29  1  0.21157149  0.85269559  0.99744810  1
  H+  H30  1  0.23191854  0.60340695  0.15922504  1
  H+  H31  1  0.20794614  0.08629144  0.83447233  1
  H+  H32  1  0.36444119  0.47644651  -0.00732747  1
  H+  H33  1  0.37163088  -0.01478169  0.34197801  1
  H+  H34  1  0.64877978  0.53581870  0.33079999  1
  H+  H35  1  0.37560645  0.85905737  0.50343039  1
  H+  H36  1  0.89727384  1.02118745  0.46972522  1
  H+  H37  1  0.76926915  0.14000905  0.33999954  1
  H+  H38  1  0.13245119  0.10334726  0.32412746  1
  H+  H39  1  0.35120146  0.97189993  0.83307809  1
  H+  H40  1  0.37438868  0.72709315  0.47508676  1
  H+  H41  1  0.13678301  0.85839738  0.32699141  1
  H+  H42  1  0.87090334  0.27518536  0.51026306  1
  H+  H43  1  0.48722326  0.10170456  0.17774575  1
  H+  H44  1  0.87604107  0.13600251  -0.00763908  1
  H+  H45  1  0.27238375  0.31236751  0.69889320  1
  H+  H46  1  0.87863184  0.10917873  0.64731362  1
  H+  H47  1  0.14409296  0.76674073  0.31869895  1
  H+  H48  1  0.59348459  0.76642686  0.96371938  1
  H+  H49  1  0.13247396  0.23633339  0.33679710  1
  H+  H50  1  0.57928701  0.65750902  0.96169481  1
  H+  H51  1  0.76409054  0.41353555  0.48379391  1
  H+  H52  1  0.37995242  0.65437458  0.83624403  1
  H+  H53  1  0.37654356  0.40629836  0.84360694  1
  H+  H54  1  0.42440921  0.32829866  0.38679085  1
  H+  H55  1  0.64974816  0.52467284  0.50978048  1
  H+  H56  1  0.37377600  0.65343244  0.67491440  1
  H+  H57  1  0.63645438  0.02693870  0.34250769  1
  H+  H58  1  0.47030354  0.61975663  0.99514175  1
  H+  H59  1  0.89736459  0.80264013  -0.00915578  1
  H+  H60  1  0.23895564  0.59180605  0.30677982  1
  H+  H61  1  0.89728872  0.28718888  0.16012914  1
  H+  H62  1  0.88747006  0.87012090  0.65650391  1
  H+  H63  1  0.79699225  0.87869321  0.84105215  1
  H+  H64  1  0.29341182  0.40450378  0.34856125  1
  H+  H65  1  0.22943896  0.10775777  -0.00689255  1
  H+  H66  1  0.88352962  0.27762953  0.31769489  1
  H+  H67  1  0.10975283  0.34407170  0.17343764  1
  H+  H68  1  0.61555189  0.14508622  0.16564983  1
  H+  H69  1  0.36001904  0.01069854  0.50602196  1
  H+  H70  1  0.57306079  0.44702886  0.81740699  1
  H+  H71  1  0.11954908  0.12713729  0.15464400  1
  H+  H72  1  0.87578882  0.74065340  0.34128223  1
  H+  H73  1  0.91723719  0.06879825  0.40681234  1
  H+  H74  1  1.03462403  0.13402832  0.47276312  1
  H+  H75  1  0.35123962  0.44771251  0.63630788  1
  H+  H76  1  0.16753343  0.58408618  0.61727624  1
  H+  H77  1  0.53901418  0.03406271  0.21548025  1
  H+  H78  1  0.11945396  0.97707288  0.01332707  1
  H+  H79  1  0.39678006  0.10612077  0.65919661  1
  H+  H80  1  0.60895186  0.72689991  0.16632840  1
  H+  H81  1  0.36171141  0.63166962  0.01690469  1
  H+  H82  1  0.46764667  0.84268548  0.18246158  1
  H+  H83  1  0.18534387  0.34976012  0.65092773  1
  H+  H84  1  0.27732673  0.13317646  0.15788138  1
  H+  H85  1  -0.03824970  0.10538220  0.62853449  1
  H+  H86  1  1.04461507  0.87435062  0.49669726  1
  H+  H87  1  0.14034987  0.10928913  -0.00944678  1
  H+  H88  1  0.14161040  0.09732501  0.49641096  1
  H+  H89  1  0.36343576  0.38670249  -0.02252860  1
  H+  H90  1  0.64992459  0.27916043  0.66861975  1
  H+  H91  1  0.90851370  0.14777653  0.14770708  1
  H+  H92  1  0.15206931  0.01304441  0.49597179  1
  H+  H93  1  0.22796356  0.60466492  -0.00619103  1
  H+  H94  1  0.10971287  0.39754444  0.82995563  1
  H+  H95  1  0.61997220  0.23848934  0.34096775  1
  H+  H96  1  0.72613851  0.85479459  0.34670669  1
  H+  H97  1  0.48140448  0.11414955  0.84406368  1
  H+  H98  1  0.64711189  0.28702585  0.16591229  1
  H+  H99  1  0.97435436  0.62957529  0.51485388  1
  H+  H100  1  0.64917901  0.53454736  0.66063271  1
  H+  H101  1  0.60746409  0.16174210  0.50279905  1
  H+  H102  1  0.40108408  0.62191860  0.49846347  1
  H+  H103  1  0.27037280  0.37168563  0.18578226  1
  H+  H104  1  0.86379447  0.48009500  0.83119686  1
  H+  H105  1  0.85073397  0.23406450  0.81993983  1
  H+  H106  1  0.06767396  0.65547568  0.74425832  1
  H+  H107  1  -0.03099667  0.36931422  0.66030479  1
  H+  H108  1  0.02038320  0.38590925  0.32200729  1
  H+  H109  1  0.20762289  0.86003615  0.83915355  1
  H+  H110  1  0.64482390  0.78267627  0.50427731  1
  H+  H111  1  0.53088587  0.88913104  0.82602342  1
  H+  H112  1  0.90092131  0.13079661  0.31876454  1
  H+  H113  1  0.37845728  0.84289163  0.18085408  1
  H+  H114  1  0.39931563  0.38285962  0.34522886  1
  H+  H115  1  0.89424660  0.85862114  0.18354581  1
  H+  H116  1  0.97676113  0.86295634  0.66565764  1
  H+  H117  1  0.87987637  0.50707038  0.66516318  1
  H+  H118  1  0.10885749  0.58768071  0.03718029  1
  H+  H119  1  0.22744026  0.37967319  0.84051560  1
  H+  H120  1  0.60612176  0.98404920  0.50315682  1
  H+  H121  1  0.78494164  0.15652031  0.20013439  1
  H+  H122  1  0.85836328  0.22742143  0.66629374  1
  H+  H123  1  0.52297732  0.63938569  0.34465339  1
  H+  H124  1  0.88685377  0.37194133  0.15890341  1
  H+  H125  1  0.89068704  0.26107570  -0.01332565  1
  H+  H126  1  0.53381841  0.14328124  0.68104187  1
  H+  H127  1  0.08684523  0.37491595  0.69289420  1
  H+  H128  1  0.88037416  0.02419592  0.99112037  1
  H+  H129  1  0.13660398  0.85855041  0.67429633  1
  H+  H130  1  0.77221221  0.39020441  0.67407097  1
  H+  H131  1  0.38769015  0.86561043  0.66073873  1
  H+  H132  1  0.96966928  0.60567094  0.85599159  1
  H+  H133  1  0.02142796  0.38927443  0.15311293  1
  H+  H134  1  0.64982421  0.37245976  0.32013503  1
  H+  H135  1  0.77233515  0.64287133  0.34352934  1
  H+  H136  1  0.86915630  0.48499136  0.15009806  1
  H+  H137  1  0.97355389  0.61933826  0.17732503  1
  H+  H138  1  0.39823518  0.34175381  0.66325374  1
  H+  H139  1  0.97748511  0.60540525  0.66714590  1
  H+  H140  1  0.11671148  0.74162560  0.17809283  1
  H+  H141  1  0.86384742  0.39267238  0.67425723  1
  H+  H142  1  0.12769230  0.21604625  0.49013284  1
  H+  H143  1  0.15294839  0.82960356  0.93838725  1
  H+  H144  1  0.39040882  0.78022384  0.84234126  1
  H+  H145  1  0.39893525  0.27768109  0.49948732  1
  H+  H146  1  0.86338092  0.96215560  0.16100460  1
  H+  H147  1  0.60414009  0.62801778  0.17188456  1
  H+  H148  1  0.14712983  0.37144481  0.32870524  1
  H+  H149  1  0.10829843  0.63800184  0.83460775  1
  H+  H150  1  0.63722128  1.03069122  0.66093481  1
  H+  H151  1  0.64142730  0.62179493  0.33140437  1
  H+  H152  1  0.06841837  0.37392679  0.47442047  1
  H+  H153  1  0.10835133  0.21062029  0.15548147  1
  H+  H154  1  0.21886343  0.09993475  0.32372784  1
  H+  H155  1  0.13917591  1.01815788  0.17165797  1
  H+  H156  1  0.61427670  0.72917399  0.34796175  1
  H+  H157  1  0.34211733  0.18837651  0.81044198  1
  H+  H158  1  0.73707693  0.37050787  0.32060557  1
  H+  H159  1  0.48337086  0.12365406  0.33184377  1
  H+  H160  1  0.61295979  0.86524165  -0.03108268  1
  H+  H161  1  0.13591096  0.64587703  0.32000893  1
  H+  H162  1  0.27722347  0.14116647  0.48238903  1
  H+  H163  1  0.13418308  0.26364962  0.98476010  1
  H+  H164  1  0.14967327  0.61802387  0.43830134  1
  H+  H165  1  0.11382786  0.65232807  0.18491755  1
  H+  H166  1  0.38464843  0.35480041  0.20118889  1
  H+  H167  1  0.66779677  0.66097234  0.83849587  1
  H+  H168  1  0.39843560  0.86887286  0.33559583  1
  H+  H169  1  0.90905425  0.01890147  0.84996617  1
  H+  H170  1  0.71500005  0.12319225  0.51249259  1
  H+  H171  1  0.60199998  0.99239827  0.02067519  1
  H+  H172  1  0.67967334  0.34700837  0.22411787  1
  H+  H173  1  0.38863656  0.86816201  0.84224401  1
  H+  H174  1  0.41350838  0.37355376  0.50278519  1
  H+  H175  1  0.25138677  0.89603679  0.48457720  1
  H+  H176  1  0.35178233  0.46033587  0.20315087  1
  H+  H177  1  0.60113882  0.12421507  0.83605129  1
  H+  H178  1  0.72052847  0.44298661  0.89989476  1
  H+  H179  1  0.59040509  0.66931466  0.43471170  1
  H+  H180  1  0.53107649  0.89411837  0.34748539  1
  H+  H181  1  0.86188068  0.63784004  0.16388983  1
  H+  H182  1  0.36571602  0.22043865  0.15901248  1
  H+  H183  1  0.64189899  0.87155774  0.65886476  1
  H+  H184  1  0.77527535  0.64284429  0.16369865  1
  H+  H185  1  0.10730859  0.68409421  0.51876349  1
  H+  H186  1  0.02883194  0.88184343  0.16463234  1
  H+  H187  1  0.13750445  0.57777144  0.13171022  1
  H+  H188  1  0.10818321  0.96518979  0.67393501  1
  H+  H189  1  0.73939674  0.88594267  1.00449637  1
  H+  H190  1  0.32520355  0.92214506  0.43391467  1
  H+  H191  1  0.64797095  0.11293250  0.99728559  1
  H+  H192  1  0.72140564  0.84388578  0.16565692  1
  H+  H193  1  0.23527468  0.87312118  0.17925699  1
  H+  H194  1  0.62246417  0.14574039  0.68349924  1
  H+  H195  1  0.89984920  0.52974261  0.32764395  1
  H+  H196  1  0.83024533  0.90086638  0.10392955  1
  H+  H197  1  0.13816215  0.77153187  0.67557869  1
  H+  H198  1  0.65107945  0.36735222  0.65687663  1
  H+  H199  1  0.88204378  0.37113798  0.84577955  1
  H+  H200  1  0.63648909  1.02262982  0.84077827  1
  H+  H201  1  0.38421895  0.60373185  0.18009999  1
  H+  H202  1  0.46962225  0.34757748  0.98300003  1
  H+  H203  1  0.78279813  0.89066821  0.66213941  1
  H+  H204  1  0.18419815  0.36492248  0.51249365  1
  H+  H205  1  0.78735351  0.88930811  0.50608600  1
  H+  H206  1  0.61818471  0.31065855  0.49556547  1
  H+  H207  1  0.09993592  0.72283671  0.83304048  1
  H+  H208  1  0.63422054  0.52532652  0.17521732  1
  H+  H209  1  0.05560832  0.40921641  0.41235579  1
  H+  H210  1  0.76208328  0.14608626  0.81968840  1
  H+  H211  1  0.45916575  0.32679482  0.81424939  1
  H+  H212  1  0.46297503  0.86671617  0.99829078  1
  H+  H213  1  0.73858030  0.39352453  0.84937262  1
  H+  H214  1  0.42955189  0.32905562  0.59669403  1
  H+  H215  1  0.73667039  0.11067598  0.99495392  1
  H+  H216  1  0.42345071  0.56143816  0.85398677  1
  H+  H217  1  0.22943980  0.61922777  0.84333473  1
  H+  H218  1  0.81232312  0.67910373  0.82804264  1
  H+  H219  1  0.38549762  0.09950348  1.00313685  1
  H+  H220  1  0.54115780  0.40092792  0.34383870  1
  H+  H221  1  0.52205525  0.11682030  0.01339019  1
  H+  H222  1  0.61869949  0.33073189  1.00266721  1
  H+  H223  1  0.39070086  0.49056508  0.49607650  1
  H+  H224  1  0.41366400  0.58482603  0.24665609  1
  H+  H225  1  0.75114435  0.12625035  0.17839293  1
  H+  H226  1  0.57539213  0.15726785  0.77580436  1
  H+  H227  1  -0.01401150  0.11525310  0.84470875  1
  H+  H228  1  0.64735782  0.62399639  0.65847077  1
  H+  H229  1  0.34239191  0.43603643  0.89788372  1
  H+  H230  1  0.52056323  0.89234752  0.49933397  1
  H+  H231  1  0.65851224  0.79391039  0.82840954  1
  H+  H232  1  0.78840913  0.68575135  0.01383471  1
  H+  H233  1  0.42979660  0.57419332  1.06306409  1
  H+  H234  1  0.10739732  0.19777420  0.65177284  1
  H+  H235  1  0.27155914  0.36716786  0.50197830  1
  H+  H236  1  0.34708188  0.86977931  1.01115921  1
  H+  H237  1  0.16830590  0.58670788  0.90186915  1
  H+  H238  1  0.87253800  0.63812712  0.82500724  1
  H+  H239  1  0.36980604  0.96002214  0.16768736  1
  H+  H240  1  0.58702327  0.92553747  0.40868278  1
  H+  H241  1  0.59121387  0.95460258  0.18098103  1
  H+  H242  1  0.11662877  0.22872713  0.82484947  1
  H+  H243  1  0.48542279  0.64244635  0.89902989  1
  H+  H244  1  0.29148438  0.63873682  0.45880486  1
  H+  H245  1  0.27981688  0.64179190  0.68301006  1
  H+  H246  1  0.61434186  0.38931723  0.82981778  1
  H+  H247  1  0.90204766  0.61878394  0.33098552  1
  H+  H248  1  0.68325543  0.58322393  0.85297016  1
  H+  H249  1  0.38951560  0.77869551  0.66027347  1
  H+  H250  1  0.86805994  0.97821377  0.64905068  1
  H+  H251  1  0.59187361  0.16903264  0.10148812  1
  H+  H252  1  0.13504184  0.52813350  0.45967879  1
  H+  H253  1  0.36303227  0.21293781  0.00324923  1
  H+  H254  1  0.61555208  0.39250060  0.15858951  1
  H+  H255  1  0.22744381  0.09551900  0.64931572  1
  H+  H256  1  0.36637985  0.97165177  0.67959538  1
  H+  H257  1  0.77635222  0.64192340  0.49475742  1
  H+  H258  1  0.98209554  0.09567830  0.16882608  1
  H+  H259  1  0.11187793  0.96428353  0.34065860  1
  H+  H260  1  0.86989302  0.39444464  0.33591766  1
  H+  H261  1  0.98396391  0.35711880  0.98933730  1
  H+  H262  1  0.52549382  0.89203141  0.66918616  1
  H+  H263  1  0.37973894  0.49967294  0.34168438  1
  H+  H264  1  0.64399213  0.87161140  0.50652610  1
  H+  H265  1  0.78058379  0.39853526  0.14501133  1
  H+  H266  1  0.88711499  0.53512414  0.50937242  1
  H+  H267  1  0.36152123  0.71427838  0.16501726  1
  H+  H268  1  0.54815287  0.66341147  0.81946931  1
  H+  H269  1  0.10485097  0.62858468  0.68688639  1
  H+  H270  1  0.87769881  0.88810160  0.50743721  1
  H+  H271  1  0.61030068  0.44512905  0.00710964  1
  H+  H272  1  0.33587114  0.06236569  0.55218543  1
  H+  H273  1  0.64035031  0.86113098  0.34469804  1
  H+  H274  1  0.63706326  0.11816216  0.34118168  1
  H+  H275  1  0.02330527  0.12914728  -0.00042674  1
  H+  H276  1  0.89259553  0.76985853  0.18298084  1
  H+  H277  1  0.14302056  0.87709553  0.17752750  1
  H+  H278  1  0.86331651  0.87654531  0.35093824  1
  H+  H279  1  0.28418368  0.89531420  0.33801457  1
  H+  H280  1  0.52393976  0.38787213  0.16446018  1
  H+  H281  1  0.14210545  0.51221627  -0.01283629  1
  H+  H282  1  0.94834478  0.36743686  0.49526563  1
  H+  H283  1  0.90114743  0.77692766  0.50954045  1
  H+  H284  1  0.37073740  0.21168645  0.66240509  1
  H+  H285  1  0.11086803  0.88353715  1.01139038  1
  H+  H286  1  0.39108513  0.11721113  0.32279882  1
  H+  H287  1  0.40978083  0.56061077  0.65220385  1
  H+  H288  1  0.83701702  0.17687089  0.39370719  1
  H+  H289  1  0.09267809  0.90265108  0.39978227  1
  H+  H290  1  0.76412052  0.95706627  0.05267389  1
  H+  H291  1  0.66608099  0.58564703  0.23529466  1
  H+  H292  1  0.35204344  0.96035930  0.01664413  1
  H+  H293  1  0.32826064  0.38735228  0.74300869  1
  H+  H294  1  0.98235817  0.84841496  0.33500879  1
  H+  H295  1  0.17653327  0.57434318  0.25044490  1
  H+  H296  1  0.42088766  0.82762744  0.28015524  1
  H+  H297  1  0.09685487  0.10638976  0.64926743  1
  H+  H298  1  0.10963322  0.37185403  -0.00135596  1
  H+  H299  1  0.43230579  0.32022314  0.24171532  1
  H+  H300  1  0.67433143  0.84556062  0.89042581  1
  H+  H301  1  0.58488725  0.92164198  0.72895597  1
  H+  H302  1  0.04544329  0.64352297  0.32773885  1
  H+  H303  1  0.91121060  0.58004599  0.23244017  1
  H+  H304  1  0.16528107  0.07636135  0.23112771  1
  H+  H305  1  0.62609199  0.06115033  0.25188904  1
  H+  H306  1  0.83728713  0.90193656  0.41284790  1
  H+  H307  1  0.08059517  0.40436888  0.05832013  1
  H+  H308  1  0.85021091  0.69894406  0.06814506  1
  H+  H309  1  0.11106435  0.48827470  0.83237298  1
  H+  H310  1  0.32880762  0.91532356  0.77272621  1
  H+  H311  1  0.72825644  0.11899178  0.65983900  1
  H+  H312  1  0.62401658  0.89532452  0.82145040  1
  H+  H313  1  0.17237600  0.84255737  0.25571635  1
  H+  H314  1  0.23508695  0.71008232  0.55182643  1
  H+  H315  1  0.52382173  0.98180054  0.05822212  1
  H+  H316  1  0.41386459  0.06309048  0.94679314  1
  H+  H317  1  0.91671691  0.33385407  0.92736634  1
  H+  H318  1  0.91636474  0.57983236  0.60247419  1
  H+  H319  1  0.60567025  0.68552928  0.75796875  1
  H+  H320  1  0.90079067  0.85982282  0.90256370  1
  H+  H321  1  0.83758929  0.42616593  0.39456893  1
  H+  H322  1  0.49235535  0.62593530  0.50518222  1
  H+  H323  1  0.99103118  0.13190378  0.31988173  1
  H+  H324  1  0.58478035  0.18714792  0.40418483  1
  H+  H325  1  0.84399765  0.44944819  0.04807076  1
  H+  H326  1  0.41270456  0.31097493  0.92248742  1
  H+  H327  1  0.89611918  0.56188805  0.90936468  1
  H+  H328  1  0.40818708  0.83123219  0.56167838  1
  H+  H329  1  0.66263679  0.32026022  0.94406087  1
  H+  H330  1  0.19343232  0.66818089  0.55513080  1
  H+  H331  1  0.32984785  0.16424937  0.38963899  1
  H+  H332  1  0.32789445  0.14453055  0.71820682  1
  H+  H333  1  0.26404333  0.42903814  0.09027042  1
  H+  H334  1  0.69333362  0.64741200  0.93895290  1
  H+  H335  1  0.86148060  0.17428858  0.05365226  1
  H+  H336  1  -0.00407909  0.87955006  0.82634045  1
  H+  H337  1  0.97290114  0.23223716  0.11351110  1
  H+  H338  1  0.32556539  0.90111723  0.10770120  1
  H+  H339  1  0.92152806  0.82102285  0.27364449  1
  H+  H340  1  0.82734767  0.17093332  0.72651182  1
  H+  H341  1  0.84509938  0.68163638  0.73635891  1
  H+  H342  1  0.33746853  0.66245180  0.10121674  1
  H+  H343  1  0.43185371  0.07286974  0.60622641  1
  H+  H344  1  0.27372214  0.88347972  0.68220537  1
  H+  H345  1  0.33545560  0.16009374  0.06653974  1
  H+  H346  1  0.92308022  0.07961579  0.92806549  1
  H+  H347  1  0.42084224  0.14141997  0.88146708  1
  H+  H348  1  0.56889327  0.40102631  0.06976463  1
  H+  H349  1  0.21113593  0.31455003  0.59519213  1
  H+  H350  1  0.59452198  0.41597779  0.72421114  1
  H+  H351  1  0.57040051  0.91340169  0.11536759  1
  H+  H352  1  0.25845141  0.38474101  0.08944718  1
  H+  H353  1  0.43572583  0.06737820  0.24091322  1
  H+  H354  1  0.92295834  0.08006834  0.22795251  1
  H+  H355  1  0.34240331  0.67389374  0.77622376  1
  H+  H356  1  0.67631115  0.58681769  0.56779652  1
  H+  H357  1  0.09212150  0.75655465  0.49110830  1
  H+  H358  1  0.11367714  0.13856995  0.82991129  1
  H+  H359  1  0.65823489  0.09685031  0.57176712  1
  H+  H360  1  0.43588573  0.61553442  0.59267237  1
  H+  H361  1  0.07529353  0.27305573  0.22436566  1
  H+  H362  1  0.15772762  0.33454965  0.89148617  1
  H+  H363  1  0.16865744  0.06135139  0.59076022  1
  H+  H364  1  0.08653270  0.91305007  0.10228526  1
  H+  H365  1  0.22212433  0.35560593  0.97623506  1
  H+  H366  1  0.83364756  0.67007184  0.40721078  1
  H+  H367  1  0.60780343  0.42403842  0.39751431  1
  H+  H368  1  0.06996743  0.91094431  0.73659470  1
  H+  H369  1  0.91142937  0.34502584  0.59872536  1
  H+  H370  1  0.66770056  0.07850955  0.90224829  1
  H+  H371  1  0.91187805  0.33775038  0.25764284  1
  H+  H372  1  0.63242448  0.74340188  0.66727915  1
  H+  H373  1  0.34235282  0.10092560  0.81216645  1
  H+  H374  1  0.06858501  0.42117291  0.74671352  1
  H+  H375  1  0.83185752  0.42081386  0.77061429  1
  H+  H376  1  0.77809527  0.65265067  0.67542133  1
  H+  H377  1  0.07207092  0.62667914  0.08655508  1
  H+  H378  1  0.36369218  0.43643992  0.43333092  1
  H+  H379  1  0.19677639  0.35214525  0.27722708  1
  H+  H380  1  0.08507717  0.15894506  0.05802054  1
  H+  H381  1  0.09993954  0.17094584  0.39222537  1
  H+  H382  1  0.41419533  0.83388170  0.93413001  1
  H+  H383  1  0.36850286  0.63869008  0.37378848  1
  O2-  O384  1  0.08487766  0.15244901  0.13749861  1
  O2-  O385  1  0.09828576  0.15910876  0.47048245  1
  O2-  O386  1  0.08311488  0.16758184  0.81416737  1
  O2-  O387  1  0.08058257  0.40559172  0.13832464  1
  O2-  O388  1  0.04771489  0.41057977  0.45807267  1
  O2-  O389  1  0.07664485  0.42679249  0.81774699  1
  O2-  O390  1  0.08142973  0.67910471  0.16995459  1
  O2-  O391  1  0.06815542  0.69090041  0.49163145  1
  O2-  O392  1  0.07075066  0.66074293  0.82027826  1
  O2-  O393  1  0.08898939  0.91330246  0.14902642  1
  O2-  O394  1  0.10111074  0.90385750  0.47438161  1
  O2-  O395  1  0.05701609  0.90407732  0.81386957  1
  O2-  O396  1  0.33604181  0.16297327  0.14021165  1
  O2-  O397  1  0.33792558  0.17547861  0.46642271  1
  O2-  O398  1  0.31073189  0.12823578  0.79492449  1
  O2-  O399  1  0.32074172  0.39767977  0.21214228  1
  O2-  O400  1  0.36641807  0.43089662  0.47929938  1
  O2-  O401  1  0.34879536  0.44032796  0.85193195  1
  O2-  O402  1  0.33548854  0.65520775  0.14653336  1
  O2-  O403  1  0.35535011  0.66876764  0.45898035  1
  O2-  O404  1  0.33992515  0.67430464  0.82150686  1
  O2-  O405  1  0.32664978  0.90079135  0.15357730  1
  O2-  O406  1  0.31541380  0.91915157  0.47894256  1
  O2-  O407  1  0.32290280  0.91245790  0.81840602  1
  O2-  O408  1  0.59360407  0.18010113  0.14641651  1
  O2-  O409  1  0.57759896  0.19178582  0.48598816  1
  O2-  O410  1  0.56637953  0.14995348  0.82081996  1
  O2-  O411  1  0.58158323  0.42014772  0.14455391  1
  O2-  O412  1  0.60359406  0.41172228  0.47746159  1
  O2-  O413  1  0.56968530  0.39370658  0.80423226  1
  O2-  O414  1  0.57037590  0.65712774  0.15902789  1
  O2-  O415  1  0.59369952  0.67421137  0.48054528  1
  O2-  O416  1  0.60886058  0.69088098  0.80343609  1
  O2-  O417  1  0.57387663  0.89942859  0.15854408  1
  O2-  O418  1  0.58286460  0.92435306  0.48836300  1
  O2-  O419  1  0.58936325  0.92201063  0.80793022  1
  O2-  O420  1  0.91235341  0.19820208  0.12427181  1
  O2-  O421  1  0.84235398  0.15696102  0.50819838  1
  O2-  O422  1  0.81759439  0.17957262  0.79804747  1
  O2-  O423  1  0.84096834  0.42756147  0.12963548  1
  O2-  O424  1  0.82507560  0.43368005  0.47347049  1
  O2-  O425  1  0.83113979  0.41870875  0.81588620  1
  O2-  O426  1  0.83688253  0.67484925  0.15248077  1
  O2-  O427  1  0.83630790  0.67139487  0.47740145  1
  O2-  O428  1  0.85773620  0.67776749  0.80374500  1
  O2-  O429  1  0.83505917  0.90044437  0.14871054  1
  O2-  O430  1  0.84744602  0.91723379  0.49068304  1
  O2-  O431  1  0.86065512  0.90714315  0.83434935  1
  O2-  O432  1  0.16924286  0.07927637  0.18584316  1
  O2-  O433  1  0.17848537  0.07364067  0.51049251  1
  O2-  O434  1  0.15166782  0.06663678  0.85419104  1
  O2-  O435  1  0.12261582  0.30232040  0.19568835  1
  O2-  O436  1  0.21046847  0.32936696  0.51837787  1
  O2-  O437  1  0.16451573  0.34600655  0.84660466  1
  O2-  O438  1  0.16837211  0.57192820  0.16909785  1
  O2-  O439  1  0.17942154  0.58817896  0.45174110  1
  O2-  O440  1  0.16785993  0.58916822  0.85606474  1
  O2-  O441  1  0.17466484  0.84864120  0.19727248  1
  O2-  O442  1  0.14588877  0.85713911  0.49467925  1
  O2-  O443  1  0.14785942  0.82678397  0.85463809  1
  O2-  O444  1  0.44799624  0.04913780  0.20090179  1
  O2-  O445  1  0.38365213  0.07026891  0.52645152  1
  O2-  O446  1  0.41818818  0.09068309  0.86319784  1
  O2-  O447  1  0.42300098  0.32881196  0.19917901  1
  O2-  O448  1  0.43717679  0.33624154  0.51663849  1
  O2-  O449  1  0.39667584  0.29974462  0.82389093  1
  O2-  O450  1  0.41624723  0.57771978  0.19968765  1
  O2-  O451  1  0.43123059  0.59521658  0.52055341  1
  O2-  O452  1  0.45515086  0.62464411  0.85633532  1
  O2-  O453  1  0.40665986  0.81138316  0.19691163  1
  O2-  O454  1  0.40958460  0.83222979  0.51618905  1
  O2-  O455  1  0.42242508  0.84133144  0.85676797  1
  O2-  O456  1  0.59832412  0.04404576  0.21081391  1
  O2-  O457  1  0.65505490  0.09934325  0.52590076  1
  O2-  O458  1  0.66259003  0.08217194  0.85747049  1
  O2-  O459  1  0.67664001  0.34867703  0.17883611  1
  O2-  O460  1  0.65102570  0.37314813  0.50579523  1
  O2-  O461  1  0.69035862  0.39188734  0.87419409  1
  O2-  O462  1  0.66228152  0.58608052  0.19000909  1
  O2-  O463  1  0.67583429  0.58552651  0.52211823  1
  O2-  O464  1  0.70497219  0.64343214  0.86265764  1
  O2-  O465  1  0.65913867  0.81235579  0.17552812  1
  O2-  O466  1  0.67530037  0.84227396  0.52094454  1
  O2-  O467  1  0.68892952  0.85322338  0.84592399  1
  O2-  O468  1  0.92128858  0.07253770  0.18258212  1
  O2-  O469  1  0.92397680  0.08000565  0.45082843  1
  O2-  O470  1  0.92709232  0.07813534  0.86271878  1
  O2-  O471  1  0.91810204  0.34440851  0.17840232  1
  O2-  O472  1  0.89318572  0.33706330  0.51818421  1
  O2-  O473  1  0.91301526  0.34111648  0.86128685  1
  O2-  O474  1  0.91113840  0.58284525  0.18724063  1
  O2-  O475  1  0.91286010  0.59163022  0.53071930  1
  O2-  O476  1  0.90674347  0.57328900  0.86457761  1
  O2-  O477  1  0.92532594  0.83002907  0.20046022  1
  O2-  O478  1  0.93831238  0.83625218  0.52497407  1
  O2-  O479  1  0.88680304  0.84713673  0.85666649  1
  O2-  O480  1  0.15729176  0.06684646  0.31124600  1
  O2-  O481  1  0.16662303  0.06184386  0.63595078  1
  O2-  O482  1  0.16949130  0.07717895  0.97697857  1
  O2-  O483  1  0.18542154  0.34675822  0.32117782  1
  O2-  O484  1  0.20269615  0.30805967  0.64042484  1
  O2-  O485  1  0.15878042  0.32386474  0.96883615  1
  O2-  O486  1  0.17942627  0.57633270  0.29558998  1
  O2-  O487  1  0.16754987  0.58115560  0.66163951  1
  O2-  O488  1  0.16782355  0.57416241  0.97729946  1
  O2-  O489  1  0.17084498  0.83317445  0.30707068  1
  O2-  O490  1  0.17233717  0.83236326  0.66392447  1
  O2-  O491  1  0.15171753  0.82925250  0.98339375  1
  O2-  O492  1  0.42438805  0.08769722  0.31424812  1
  O2-  O493  1  0.43126039  0.07694006  0.65089522  1
  O2-  O494  1  0.41416810  0.06530342  0.99176073  1
  O2-  O495  1  0.42681757  0.34443178  0.34408272  1
  O2-  O496  1  0.43285323  0.32154914  0.64147444  1
  O2-  O497  1  0.40988909  0.31829287  0.96645576  1
  O2-  O498  1  0.41186559  0.58485321  0.31640022  1
  O2-  O499  1  0.43818920  0.62058572  0.63895603  1
  O2-  O500  1  0.41220737  0.57372029  1.02111823  1
  O2-  O501  1  0.43097889  0.84011072  0.32410622  1
  O2-  O502  1  0.41796882  0.83713818  0.64185989  1
  O2-  O503  1  0.40678482  0.82685349  0.97952955  1
  O2-  O504  1  0.66592093  0.08744686  0.32473889  1
  O2-  O505  1  0.66578856  0.09189424  0.64732736  1
  O2-  O506  1  0.67485571  0.07870054  0.98285138  1
  O2-  O507  1  0.67665882  0.33905361  0.30508851  1
  O2-  O508  1  0.68362890  0.33705804  0.64950984  1
  O2-  O509  1  0.64992309  0.30263348  0.98690660  1
  O2-  O510  1  0.67764390  0.59674313  0.31621956  1
  O2-  O511  1  0.68041473  0.59508660  0.64538541  1
  O2-  O512  1  0.68097177  0.65137643  0.98290019  1
  O2-  O513  1  0.66488667  0.82461237  0.33313695  1
  O2-  O514  1  0.67241977  0.84136176  0.64388887  1
  O2-  O515  1  0.64207057  0.83227567  0.96385965  1
  O2-  O516  1  0.93011388  0.09901056  0.30647675  1
  O2-  O517  1  0.89994908  0.08261437  0.61766251  1
  O2-  O518  1  0.91976031  0.08300334  0.97621233  1
  O2-  O519  1  0.91548483  0.33842445  0.30306819  1
  O2-  O520  1  0.90958322  0.34089352  0.64395981  1
  O2-  O521  1  0.92110063  0.32563828  0.97457688  1
  O2-  O522  1  0.93174411  0.59089948  0.31267622  1
  O2-  O523  1  0.91668669  0.57314042  0.64879516  1
  O2-  O524  1  0.84933489  0.52072007  0.98115231  1
  O2-  O525  1  0.92080711  0.81632498  0.32012711  1
  O2-  O526  1  0.91630717  0.83211740  0.64783640  1
  O2-  O527  1  0.92606406  0.86069039  0.97079972  1
  O2-  O528  1  0.08527798  0.16165202  0.01267822  1
  O2-  O529  1  0.09796611  0.17401931  0.34693497  1
  O2-  O530  1  0.06381266  0.13673464  0.65185531  1
  O2-  O531  1  0.07851214  0.40246415  0.01286520  1
  O2-  O532  1  0.07938113  0.41394726  0.34068031  1
  O2-  O533  1  0.06843817  0.41674095  0.70003371  1
  O2-  O534  1  0.07914826  0.57742177  0.07697500  1
  O2-  O535  1  0.10839609  0.67824579  0.33554746  1
  O2-  O536  1  0.06846271  0.65354780  0.69823883  1
  O2-  O537  1  0.08580150  0.91796064  0.03031011  1
  O2-  O538  1  0.08596648  0.90268423  0.35398071  1
  O2-  O539  1  0.07325442  0.90628916  0.69131827  1
  O2-  O540  1  0.33491312  0.15415905  0.02041154  1
  O2-  O541  1  0.32728373  0.16121718  0.34393411  1
  O2-  O542  1  0.33636079  0.14957504  0.67306162  1
  O2-  O543  1  0.33286711  0.41916027  -0.02918121  1
  O2-  O544  1  0.35492827  0.43677880  0.36056529  1
  O2-  O545  1  0.32336597  0.33480596  0.72628442  1
  O2-  O546  1  0.32863027  0.66235523  0.02387423  1
  O2-  O547  1  0.34820377  0.61090898  0.33375825  1
  O2-  O548  1  0.34066599  0.67706622  0.69574933  1
  O2-  O549  1  0.31958818  0.89975153  0.03139003  1
  O2-  O550  1  0.34089140  0.92486448  0.35780077  1
  O2-  O551  1  0.33591912  0.91219201  0.69613480  1
  O2-  O552  1  0.58356463  0.14766585  0.02618776  1
  O2-  O553  1  0.58638670  0.17989661  0.35944277  1
  O2-  O554  1  0.59217271  0.17585292  0.69940051  1
  O2-  O555  1  0.56602042  0.39101494  0.02420549  1
  O2-  O556  1  0.60390636  0.42989852  0.35271636  1
  O2-  O557  1  0.59972281  0.42603377  0.67972683  1
  O2-  O558  1  0.53473049  0.67370479  -0.04232619  1
  O2-  O559  1  0.58345509  0.66435529  0.35881697  1
  O2-  O560  1  0.60194237  0.68136458  0.68142047  1
  O2-  O561  1  0.54976600  0.94853067  0.04384915  1
  O2-  O562  1  0.59199084  0.92780424  0.36350551  1
  O2-  O563  1  0.58642702  0.92283006  0.68346270  1
  O2-  O564  1  0.84741121  0.16926239  0.00935088  1
  O2-  O565  1  0.83312335  0.17519223  0.34947820  1
  O2-  O566  1  0.82980192  0.16720391  0.68047760  1
  O2-  O567  1  0.84648933  0.44838086  0.00226166  1
  O2-  O568  1  0.84116762  0.42710936  0.34922887  1
  O2-  O569  1  0.83585025  0.42565501  0.68967577  1
  O2-  O570  1  0.84912648  0.70667930  0.02386927  1
  O2-  O571  1  0.83445159  0.67143695  0.35993558  1
  O2-  O572  1  0.83950603  0.68758470  0.68981168  1
  O2-  O573  1  0.78851591  0.92737752  0.03046510  1
  O2-  O574  1  0.83174543  0.90302284  0.36792743  1
  O2-  O575  1  0.84601188  0.92061333  0.66817508  1
