# generated using pymatgen
data_H2O
_symmetry_space_group_name_H-M   'P 1'
_cell_length_a   17.97122410
_cell_length_b   17.97485619
_cell_length_c   21.99112773
_cell_angle_alpha   90.00927593
_cell_angle_beta   89.97515721
_cell_angle_gamma   119.95542911
_symmetry_Int_Tables_number   1
_chemical_formula_structural   H2O
_chemical_formula_sum   'H384 O192'
_cell_volume   6154.82987479
_cell_formula_units_Z   192
loop_
 _symmetry_equiv_pos_site_id
 _symmetry_equiv_pos_as_xyz
  1  'x, y, z'
loop_
 _atom_type_symbol
 _atom_type_oxidation_number
  H+  1.0
  O2-  -2.0
loop_
 _atom_site_type_symbol
 _atom_site_label
 _atom_site_symmetry_multiplicity
 _atom_site_fract_x
 _atom_site_fract_y
 _atom_site_fract_z
 _atom_site_occupancy
  H+  H0  1  0.78378909  0.37185348  0.33766200  1
  H+  H1  1  0.11932309  0.38530666  0.67729077  1
  H+  H2  1  0.57828821  0.42222926  0.78501237  1
  H+  H3  1  0.53111730  0.14756855  0.67682384  1
  H+  H4  1  0.39520935  0.85023992  0.84970081  1
  H+  H5  1  0.60043105  0.59737508  0.82012002  1
  H+  H6  1  0.86560183  0.15659093  0.73193277  1
  H+  H7  1  0.63877241  0.58508822  0.30790297  1
  H+  H8  1  0.66065134  0.78815807  0.82387094  1
  H+  H9  1  0.77076225  0.88931939  0.16339541  1
  H+  H10  1  0.23502182  0.36301888  0.32520050  1
  H+  H11  1  0.89458324  0.27330063  0.17258271  1
  H+  H12  1  0.02568661  0.39247223  0.49490286  1
  H+  H13  1  0.63544206  0.43766600  0.21149540  1
  H+  H14  1  0.89714703  0.01883195  0.32101101  1
  H+  H15  1  0.27574403  0.15143788  0.49039293  1
  H+  H16  1  0.81524286  0.98262203  0.46374561  1
  H+  H17  1  0.13066186  0.61491824  -0.04432356  1
  H+  H18  1  0.33444973  0.41417599  0.42892850  1
  H+  H19  1  0.21503434  0.11414990  -0.01204733  1
  H+  H20  1  0.61329555  0.38175219  0.83674010  1
  H+  H21  1  0.40499087  0.35847943  0.17224915  1
  H+  H22  1  0.61427874  0.74183881  0.34666902  1
  H+  H23  1  0.48439632  0.88744802  0.64367719  1
  H+  H24  1  0.13143285  0.50774872  0.66066714  1
  H+  H25  1  0.41495002  0.37613743  0.00818917  1
  H+  H26  1  0.35704294  0.46057124  0.82396123  1
  H+  H27  1  0.85795099  0.11149856  0.47717330  1
  H+  H28  1  0.08532629  0.92381515  0.42529958  1
  H+  H29  1  0.37305209  0.37955655  0.67019329  1
  H+  H30  1  0.72104559  0.97440604  0.87097499  1
  H+  H31  1  0.86587452  0.64899506  0.48972159  1
  H+  H32  1  0.53038713  0.64787852  0.16286567  1
  H+  H33  1  0.63906960  0.77759457  0.66600412  1
  H+  H34  1  0.48541171  0.11400600  0.83475508  1
  H+  H35  1  0.89557483  0.36282975  0.17111125  1
  H+  H36  1  0.37113085  0.00906549  0.34650789  1
  H+  H37  1  0.86270545  0.88253666  0.32883794  1
  H+  H38  1  0.67485790  0.37706326  0.29151879  1
  H+  H39  1  0.63495036  0.87823375  0.18182819  1
  H+  H40  1  0.11897240  -0.04323916  0.71005319  1
  H+  H41  1  0.72570800  0.61501596  0.85008959  1
  H+  H42  1  0.80005127  0.14962849  0.00397580  1
  H+  H43  1  0.87979611  0.16465684  0.82424019  1
  H+  H44  1  0.10753657  0.77607733  0.32632332  1
  H+  H45  1  0.32534732  0.68873441  1.01544764  1
  H+  H46  1  0.36793105  0.22681268  0.33588462  1
  H+  H47  1  0.12036247  0.13895896  0.15758269  1
  H+  H48  1  0.47749270  0.37377156  0.32422583  1
  H+  H49  1  0.88967754  0.54519367  0.66072828  1
  H+  H50  1  0.71639676  0.86060340  0.50780022  1
  H+  H51  1  0.10931037  0.13745788  0.00541437  1
  H+  H52  1  0.86423749  0.84462283  0.86744795  1
  H+  H53  1  0.64613009  0.01856745  0.19078660  1
  H+  H54  1  0.49782032  0.10848711  0.98025998  1
  H+  H55  1  0.97518265  0.85568643  0.84684294  1
  H+  H56  1  0.27841988  0.86983624  0.17519941  1
  H+  H57  1  0.63903861  0.26980547  0.65897053  1
  H+  H58  1  0.14959436  0.78574659  -0.00685643  1
  H+  H59  1  0.15377794  0.60510709  0.31851364  1
  H+  H60  1  0.14414025  0.12115383  0.32494261  1
  H+  H61  1  0.11385764  0.63099608  0.67621594  1
  H+  H62  1  0.55134036  0.38699755  0.01133565  1
  H+  H63  1  0.01853893  0.89495410  0.33589206  1
  H+  H64  1  0.87949264  0.53758415  0.32069833  1
  H+  H65  1  0.64122846  0.60778919  0.00633375  1
  H+  H66  1  0.14048430  0.36438590  0.84150216  1
  H+  H67  1  0.28459918  0.38569539  0.16800645  1
  H+  H68  1  0.27219419  0.63402624  0.49415042  1
  H+  H69  1  0.37064440  0.91361187  0.66197109  1
  H+  H70  1  0.22136230  0.58596020  0.64264662  1
  H+  H71  1  0.14587383  0.77494111  0.65657866  1
  H+  H72  1  0.86060849  0.25689240  0.43929112  1
  H+  H73  1  0.67072987  0.58466319  0.94409805  1
  H+  H74  1  0.73225823  0.36627483  0.84455135  1
  H+  H75  1  0.88172291  0.64242368  0.16793561  1
  H+  H76  1  0.63613616  0.47892262  1.01109787  1
  H+  H77  1  0.36254183  0.72292205  0.49153204  1
  H+  H78  1  0.90817496  0.82080270  0.94407938  1
  H+  H79  1  0.85156964  0.26166772  0.84996487  1
  H+  H80  1  0.89340513  0.26688867  0.67242859  1
  H+  H81  1  0.86837821  -0.01546309  0.98034752  1
  H+  H82  1  0.13930793  0.87003315  -0.00517145  1
  H+  H83  1  0.02148238  0.88451116  0.00934008  1
  H+  H84  1  0.36426223  0.96005010  0.17548944  1
  H+  H85  1  0.97703871  0.62257852  0.83783856  1
  H+  H86  1  0.03270668  0.38803443  0.15479766  1
  H+  H87  1  -0.01970926  0.87504671  0.49276549  1
  H+  H88  1  0.02924056  0.38340200  0.68299633  1
  H+  H89  1  0.75803268  0.86184736  1.00980182  1
  H+  H90  1  0.63622426  0.86361375  0.33394555  1
  H+  H91  1  0.86138521  0.97598570  0.68783867  1
  H+  H92  1  -0.01936395  0.65664750  0.34140859  1
  H+  H93  1  0.51706924  0.64047394  0.34524606  1
  H+  H94  1  0.36814882  0.21846477  0.16585316  1
  H+  H95  1  0.11377409  0.22796655  0.00851221  1
  H+  H96  1  0.74297155  0.12432212  0.66020732  1
  H+  H97  1  0.36739047  0.87348336  0.36832033  1
  H+  H98  1  0.60585637  0.98103353  0.75134039  1
  H+  H99  1  0.13210392  0.27159301  0.83480636  1
  H+  H100  1  0.52581135  0.62599465  1.00982397  1
  H+  H101  1  0.23181349  0.11815963  0.32484237  1
  H+  H102  1  0.60788007  0.88233263  0.50372279  1
  H+  H103  1  0.69809916  0.06593858  0.93426763  1
  H+  H104  1  0.39322229  0.81093176  0.66012157  1
  H+  H105  1  0.43307842  0.58345850  0.27327373  1
  H+  H106  1  0.37227681  0.75193818  0.86299123  1
  H+  H107  1  0.90531681  0.26413359  0.43521651  1
  H+  H108  1  -0.00258888  0.14473877  0.50727996  1
  H+  H109  1  0.39780407  0.86136125  0.19743026  1
  H+  H110  1  0.11567533  0.89104435  0.48424373  1
  H+  H111  1  0.92254160  0.90418777  0.63584902  1
  H+  H112  1  0.87447617  0.75077269  0.65168289  1
  H+  H113  1  0.89038336  0.34665653  0.32779705  1
  H+  H114  1  0.92192101  0.32388872  0.26479612  1
  H+  H115  1  0.73819365  0.64541494  0.30696018  1
  H+  H116  1  0.22595143  0.86067833  0.49386410  1
  H+  H117  1  0.12114815  0.38777697  0.15211491  1
  H+  H118  1  0.77655506  0.37647183  0.15359076  1
  H+  H119  1  0.02513742  0.54647729  0.35462312  1
  H+  H120  1  0.36211589  0.47707891  0.48733853  1
  H+  H121  1  0.11539680  0.13729727  0.49434474  1
  H+  H122  1  0.22911263  0.10896709  0.17194486  1
  H+  H123  1  0.63216047  0.02183499  0.33948982  1
  H+  H124  1  0.51953771  0.63600804  0.49773778  1
  H+  H125  1  0.16598206  0.06501385  0.77902634  1
  H+  H126  1  0.84994304  0.88824739  0.71523262  1
  H+  H127  1  0.86050742  0.48696295  0.49173898  1
  H+  H128  1  0.60924957  0.20447229  0.16542539  1
  H+  H129  1  0.12518623  0.23224598  0.49293276  1
  H+  H130  1  0.12368021  0.72076359  0.15788078  1
  H+  H131  1  0.76605312  0.64867220  0.64965334  1
  H+  H132  1  0.13708006  0.85765724  0.66068437  1
  H+  H133  1  0.54633519  0.97524417  0.02415646  1
  H+  H134  1  0.89121812  0.76755754  0.17560213  1
  H+  H135  1  0.36428323  0.24103397  0.49079928  1
  H+  H136  1  0.03013431  0.56320791  0.32258993  1
  H+  H137  1  0.60918407  0.72632814  0.50200674  1
  H+  H138  1  0.28406160  0.62883200  0.33695420  1
  H+  H139  1  0.13490711  0.87126474  0.31554333  1
  H+  H140  1  0.03724610  0.63136103  0.15884169  1
  H+  H141  1  0.88898148  0.78853684  0.49584486  1
  H+  H142  1  0.61020613  0.11855619  0.17923647  1
  H+  H143  1  0.38210633  0.25933276  0.67391421  1
  H+  H144  1  0.35737815  0.62657102  -0.00412326  1
  H+  H145  1  0.65335263  0.03883303  0.65314038  1
  H+  H146  1  0.57757871  0.82479965  -0.05293557  1
  H+  H147  1  0.27755218  0.90023721  0.67091664  1
  H+  H148  1  0.35906488  0.89528075  0.00815390  1
  H+  H149  1  0.72478669  0.86027674  0.32700992  1
  H+  H150  1  0.63836572  0.80793534  0.80707021  1
  H+  H151  1  0.10923118  -0.01493967  0.33492089  1
  H+  H152  1  0.38776286  0.00277776  0.49115825  1
  H+  H153  1  0.01095675  0.15716329  0.80261130  1
  H+  H154  1  0.14427340  0.27391250  0.16972316  1
  H+  H155  1  0.90421978  0.62600197  0.99936960  1
  H+  H156  1  0.87694069  0.66042559  0.65663457  1
  H+  H157  1  0.53268625  0.40081893  0.49016939  1
  H+  H158  1  0.61278954  0.45553560  0.31033141  1
  H+  H159  1  0.47265346  0.09820955  0.18558748  1
  H+  H160  1  0.63495427  0.28185711  0.31999623  1
  H+  H161  1  0.17608103  0.84084705  0.55794173  1
  H+  H162  1  0.16800319  0.08310166  0.22984352  1
  H+  H163  1  0.53856663  0.63368481  0.66398728  1
  H+  H164  1  0.39726459  0.50560320  0.65968198  1
  H+  H165  1  0.08343242  0.42520719  0.05637750  1
  H+  H166  1  0.61811658  0.89456068  0.66377780  1
  H+  H167  1  0.39529131  0.11174465  0.83647200  1
  H+  H168  1  0.29058725  0.17125129  0.68857489  1
  H+  H169  1  0.64019320  0.52692394  0.50605071  1
  H+  H170  1  0.63913805  0.52019729  0.85708063  1
  H+  H171  1  0.44506451  0.83851285  1.00389791  1
  H+  H172  1  0.02493370  0.88279584  0.16139796  1
  H+  H173  1  0.98319140  0.10304724  0.65732233  1
  H+  H174  1  0.17090133  0.33274028  0.22942167  1
  H+  H175  1  0.38907197  0.97294010  0.82583043  1
  H+  H176  1  0.07857915  -0.00657682  0.84257950  1
  H+  H177  1  0.88877098  0.35292729  0.68222249  1
  H+  H178  1  0.91794475  0.07259915  0.60130186  1
  H+  H179  1  0.99020986  0.11007840  0.32557549  1
  H+  H180  1  0.88848712  0.12681941  0.32454234  1
  H+  H181  1  0.25163895  0.40928140  0.01524887  1
  H+  H182  1  0.65732611  0.63519564  0.65374681  1
  H+  H183  1  0.97527661  0.61966148  0.50223936  1
  H+  H184  1  0.89534158  0.08055274  -0.03504703  1
  H+  H185  1  -0.01472727  0.62620117  0.66068776  1
  H+  H186  1  0.63076312  0.10272850  0.80080473  1
  H+  H187  1  0.12957845  1.02361871  -0.01104024  1
  H+  H188  1  0.63821033  0.14332594  0.97811751  1
  H+  H189  1  0.91575261  0.83409189  0.26392251  1
  H+  H190  1  0.36786769  0.38135991  0.33495942  1
  H+  H191  1  0.11975014  0.23046854  0.33860725  1
  H+  H192  1  0.87904227  0.22071742  0.33043210  1
  H+  H193  1  0.63543741  0.61474374  0.50735334  1
  H+  H194  1  0.64634658  0.11154295  0.50113989  1
  H+  H195  1  0.86095649  0.63987276  0.32665817  1
  H+  H196  1  0.10758226  0.63768037  0.83568644  1
  H+  H197  1  0.26854518  0.72256739  0.71673076  1
  H+  H198  1  0.62982725  0.74089718  -0.01000584  1
  H+  H199  1  0.62139008  0.10292044  0.33226127  1
  H+  H200  1  0.86428028  0.97379819  0.15738718  1
  H+  H201  1  0.13395324  0.01840426  0.49897566  1
  H+  H202  1  0.40247762  0.59596708  0.66318646  1
  H+  H203  1  0.62314194  0.14723772  0.66850261  1
  H+  H204  1  0.61529164  0.22052320  0.49622951  1
  H+  H205  1  0.10093142  0.47407883  -0.00845957  1
  H+  H206  1  0.39853228  0.52311614  0.18519735  1
  H+  H207  1  0.47494115  0.86071234  0.49855170  1
  H+  H208  1  0.88473109  0.29551575  0.52153969  1
  H+  H209  1  0.39829673  0.61381393  0.19115002  1
  H+  H210  1  0.39629733  0.61066793  0.33226170  1
  H+  H211  1  0.26932042  0.37177062  0.82279900  1
  H+  H212  1  0.62843743  0.22252052  -0.00216494  1
  H+  H213  1  0.46407507  0.58619974  0.82727160  1
  H+  H214  1  0.36221900  0.12636925  0.16586880  1
  H+  H215  1  0.87638757  0.13388191  0.66645996  1
  H+  H216  1  0.75905775  0.08367190  0.47171998  1
  H+  H217  1  0.49479252  0.87217133  0.20078409  1
  H+  H218  1  0.38364533  0.73100939  0.19081170  1
  H+  H219  1  0.84494464  0.72452848  0.84656816  1
  H+  H220  1  0.72574697  0.36483946  0.50251403  1
  H+  H221  1  0.03336423  0.89099009  0.67293270  1
  H+  H222  1  0.61910977  0.39630681  0.48953700  1
  H+  H223  1  0.61297325  0.74200912  0.15666938  1
  H+  H224  1  0.57856224  0.92388120  0.13157064  1
  H+  H225  1  0.51311465  0.41683580  0.68595294  1
  H+  H226  1  0.17910678  0.57568254  0.25787223  1
  H+  H227  1  0.77678124  0.64745984  0.49056777  1
  H+  H228  1  0.29455472  0.64407122  0.17792318  1
  H+  H229  1  0.61254625  0.97424665  0.49986323  1
  H+  H230  1  0.13919986  0.36472411  0.50249923  1
  H+  H231  1  0.78363638  0.48225415  0.72018050  1
  H+  H232  1  0.35452613  0.22632664  1.01550496  1
  H+  H233  1  0.88814709  0.53508657  0.84481816  1
  H+  H234  1  0.88357784  0.27696785  0.99787769  1
  H+  H235  1  0.53762116  -0.00719043  1.05261464  1
  H+  H236  1  0.23037014  0.35960208  0.65723938  1
  H+  H237  1  0.40361096  0.13905987  0.67833003  1
  H+  H238  1  0.38503677  0.35564649  0.84903217  1
  H+  H239  1  0.38675595  0.52654291  0.99328450  1
  H+  H240  1  0.72492798  0.86850614  0.67244870  1
  H+  H241  1  0.12444309  0.36174571  0.98670559  1
  H+  H242  1  0.95837599  0.19091669  0.54572691  1
  H+  H243  1  0.14695284  0.61370130  0.17099640  1
  H+  H244  1  0.39486994  0.37615572  0.50362849  1
  H+  H245  1  0.11700483  0.48550819  0.84275003  1
  H+  H246  1  0.23011994  0.36736230  0.50148909  1
  H+  H247  1  0.13928538  0.85257847  0.17007401  1
  H+  H248  1  0.25506174  0.61924374  0.85661321  1
  H+  H249  1  0.86596520  0.40277256  0.50239302  1
  H+  H250  1  0.63658680  0.34149542  0.16608467  1
  H+  H251  1  0.67748275  0.33366433  0.90463793  1
  H+  H252  1  0.49407248  0.13710730  0.34802727  1
  H+  H253  1  0.03803823  0.65007662  -0.00102768  1
  H+  H254  1  0.38019440  0.59675227  0.84171027  1
  H+  H255  1  0.88579085  0.85535142  0.17194822  1
  H+  H256  1  0.11147907  0.72798600  0.49336048  1
  H+  H257  1  0.39040596  0.01176099  0.98786393  1
  H+  H258  1  0.38448387  0.61098326  0.50744353  1
  H+  H259  1  0.88275483  0.85256232  1.00574024  1
  H+  H260  1  0.87075948  0.13862193  0.16163320  1
  H+  H261  1  0.60912385  0.49936730  0.69178260  1
  H+  H262  1  0.39348646  0.77129175  0.34049350  1
  H+  H263  1  0.14523305  0.36265536  0.32734782  1
  H+  H264  1  0.85120715  0.63995367  0.83589558  1
  H+  H265  1  0.52501873  0.88345873  0.34963021  1
  H+  H266  1  0.96059697  0.37224062  0.99811723  1
  H+  H267  1  0.75875566  0.40417502  0.67721952  1
  H+  H268  1  0.68498648  0.09110080  0.56013898  1
  H+  H269  1  0.78146303  0.63453701  0.01554281  1
  H+  H270  1  0.36355774  0.87028065  0.46483729  1
  H+  H271  1  0.11403165  0.97168188  0.16099433  1
  H+  H272  1  0.81517202  0.36333810  0.99457182  1
  H+  H273  1  0.13574151  0.52328009  0.49967105  1
  H+  H274  1  0.11803350  0.46977325  0.33514331  1
  H+  H275  1  0.10095837  0.84361634  0.84739926  1
  H+  H276  1  0.62103620  0.22758576  0.82763862  1
  H+  H277  1  0.52319159  0.22181090  0.38380589  1
  H+  H278  1  0.50301856  0.83530778  -0.08886987  1
  H+  H279  1  0.27759667  0.90842554  0.99773076  1
  H+  H280  1  0.69453642  0.52775821  0.25011739  1
  H+  H281  1  0.87332005  0.40398190  0.83611052  1
  H+  H282  1  0.85065239  0.99203768  0.88251948  1
  H+  H283  1  0.32367004  0.68021631  0.70056777  1
  H+  H284  1  0.11001553  0.21897448  0.66071993  1
  H+  H285  1  0.90008488  0.52649879  0.17733137  1
  H+  H286  1  0.88431594  0.77440034  0.32396927  1
  H+  H287  1  0.36672690  0.09604926  0.33614438  1
  H+  H288  1  0.83653888  0.41632929  0.09705089  1
  H+  H289  1  0.59765271  0.41060228  0.12093204  1
  H+  H290  1  0.42204743  0.32963772  0.26384553  1
  H+  H291  1  0.16268459  0.07236546  0.56069825  1
  H+  H292  1  0.58902434  0.65067359  0.72574401  1
  H+  H293  1  0.83978908  0.40693859  0.39825577  1
  H+  H294  1  0.47087040  0.08367843  0.51365002  1
  H+  H295  1  0.09289483  0.42994506  0.78021279  1
  H+  H296  1  0.58681107  0.91402611  0.40729047  1
  H+  H297  1  0.40914742  0.83833846  0.55267133  1
  H+  H298  1  0.35801601  0.91541499  0.76712634  1
  H+  H299  1  0.43108505  0.35389173  0.56407640  1
  H+  H300  1  0.37366297  0.47366037  0.33918474  1
  H+  H301  1  0.37016163  0.22155115  0.83850253  1
  H+  H302  1  0.24196149  0.05676996  0.75533229  1
  H+  H303  1  0.59177256  0.18012132  0.76286065  1
  H+  H304  1  0.83321052  0.67281132  0.38847432  1
  H+  H305  1  0.10357207  0.66805638  0.05339362  1
  H+  H306  1  0.08002973  0.41402020  0.43195444  1
  H+  H307  1  0.04436106  0.68015837  0.40111610  1
  H+  H308  1  0.09110623  0.17090913  0.09785034  1
  H+  H309  1  0.47600427  0.35979758  0.85420630  1
  H+  H310  1  0.57620668  0.16080345  0.43919146  1
  H+  H311  1  0.33850829  0.40372499  0.73028969  1
  H+  H312  1  0.93156234  0.60361319  0.93614589  1
  H+  H313  1  0.41572070  0.57464982  0.56367157  1
  H+  H314  1  0.48245716  0.32387484  0.62952487  1
  H+  H315  1  0.10673024  0.72774438  0.82930412  1
  H+  H316  1  0.86843665  0.72555867  0.01669433  1
  H+  H317  1  0.03592582  0.87947644  0.78377235  1
  H+  H318  1  0.39552585  0.04551720  0.67630357  1
  H+  H319  1  -0.01359749  0.38352075  0.85062830  1
  H+  H320  1  0.14816093  0.52469804  0.16806459  1
  H+  H321  1  0.08486102  0.91778190  0.06628692  1
  H+  H322  1  0.07970340  0.12670928  0.81927831  1
  H+  H323  1  0.15793042  0.82100231  0.23335900  1
  H+  H324  1  0.84460794  0.66626585  0.11060101  1
  H+  H325  1  0.66415109  0.04104668  0.82770496  1
  H+  H326  1  0.43023146  0.08078940  0.92225873  1
  H+  H327  1  0.59375165  0.44890929  0.38344771  1
  H+  H328  1  0.81761364  0.90297219  0.07025801  1
  H+  H329  1  0.51027231  0.79310371  0.07349715  1
  H+  H330  1  0.86937764  0.07489758  0.81003109  1
  H+  H331  1  0.02807059  0.37979575  0.33604679  1
  H+  H332  1  0.78097985  0.13680019  0.16826178  1
  H+  H333  1  0.35915287  0.18654093  0.77154116  1
  H+  H334  1  0.33650016  0.42866091  0.10948261  1
  H+  H335  1  0.68217554  0.08648795  0.24605969  1
  H+  H336  1  0.83553643  0.42715916  0.77637778  1
  H+  H337  1  0.15827108  0.57709794  0.56079620  1
  H+  H338  1  0.13361033  0.07051862  0.88881373  1
  H+  H339  1  0.92384011  0.58835251  0.23762412  1
  H+  H340  1  0.84839023  0.17472022  0.06795218  1
  H+  H341  1  0.57873114  0.67665597  0.41143947  1
  H+  H342  1  0.28702916  0.50047325  0.04612901  1
  H+  H343  1  0.42512748  0.57259349  0.92892647  1
  H+  H344  1  0.67876017  0.78277794  0.92753181  1
  H+  H345  1  0.68245559  0.31422910  0.21766102  1
  H+  H346  1  0.31777715  0.16170788  0.07049711  1
  H+  H347  1  0.75397746  0.16206106  0.92092003  1
  H+  H348  1  0.66831460  0.83357867  0.57314973  1
  H+  H349  1  0.33293035  0.17465487  0.39856153  1
  H+  H350  1  0.92195133  0.35637363  0.90961839  1
  H+  H351  1  0.98656795  0.11479758  0.16465158  1
  H+  H352  1  0.31073359  0.66393840  0.79744958  1
  H+  H353  1  0.42434003  0.83821508  0.28484055  1
  H+  H354  1  0.09012061  0.17133061  0.39898880  1
  H+  H355  1  0.83149706  0.13554908  0.38237076  1
  H+  H356  1  0.55547415  0.82479202  0.06415649  1
  H+  H357  1  0.62632401  0.35156852  0.65386307  1
  H+  H358  1  0.66605538  0.33276335  0.56115907  1
  H+  H359  1  0.93068641  0.85401478  0.57978005  1
  H+  H360  1  0.33484551  0.65596980  0.40093458  1
  H+  H361  1  0.15375392  0.82823450  0.89875063  1
  H+  H362  1  0.54349108  0.53840793  0.76687168  1
  H+  H363  1  0.10976142  0.63783444  0.49148673  1
  H+  H364  1  0.62620772  0.93616537  0.90330379  1
  H+  H365  1  0.85754595  0.92489849  0.48480097  1
  H+  H366  1  0.08887866  0.66571942  0.73650633  1
  H+  H367  1  0.66721063  0.83382276  0.23214109  1
  H+  H368  1  0.93009188  0.08338840  0.22478656  1
  H+  H369  1  0.17195988  0.33871234  0.59789748  1
  H+  H370  1  0.68003199  0.59688740  0.59142003  1
  H+  H371  1  0.76855907  0.17456455  0.82169024  1
  H+  H372  1  0.16705658  0.33502916  0.93322204  1
  H+  H373  1  0.40543629  0.06732239  0.24058584  1
  H+  H374  1  0.08306988  0.16217067  0.71975280  1
  H+  H375  1  0.82400149  0.94147921  0.81588948  1
  H+  H376  1  0.49329526  0.34997477  0.17560843  1
  H+  H377  1  0.66667313  0.37551768  1.00323823  1
  H+  H378  1  0.91783383  0.59424517  0.56181251  1
  H+  H379  1  0.38258520  0.81287204  0.95022450  1
  H+  H380  1  0.42646094  0.33891509  0.94561225  1
  H+  H381  1  0.92037956  0.34628066  0.58306458  1
  H+  H382  1  0.58291042  0.66761143  0.07244597  1
  H+  H383  1  0.82881932  0.91488961  0.38622298  1
  O2-  O384  1  0.09117804  0.17135221  0.14445047  1
  O2-  O385  1  0.08920849  0.17139762  0.47837459  1
  O2-  O386  1  0.07228625  0.17264277  0.79897568  1
  O2-  O387  1  0.09181663  0.41905777  0.13705964  1
  O2-  O388  1  0.08420760  0.41752052  0.47757219  1
  O2-  O389  1  0.08994381  0.42485727  0.82497121  1
  O2-  O390  1  0.09715280  0.66024840  0.14188679  1
  O2-  O391  1  0.07641823  0.66648812  0.48113934  1
  O2-  O392  1  0.08203050  0.66667657  0.81164860  1
  O2-  O393  1  0.08500459  0.91170067  0.14502300  1
  O2-  O394  1  0.08642904  0.92336867  0.47166550  1
  O2-  O395  1  0.03853119  0.88971588  0.82783536  1
  O2-  O396  1  0.33276019  0.15781483  0.15108997  1
  O2-  O397  1  0.33270558  0.18376203  0.47129447  1
  O2-  O398  1  0.35077843  0.16798403  0.81482505  1
  O2-  O399  1  0.34496504  0.41847877  0.15259055  1
  O2-  O400  1  0.33121967  0.41560016  0.47462469  1
  O2-  O401  1  0.33038555  0.40041129  0.80795584  1
  O2-  O402  1  0.35759089  0.67088146  0.17521825  1
  O2-  O403  1  0.33311862  0.66044375  0.47999188  1
  O2-  O404  1  0.31554353  0.64555287  0.83850436  1
  O2-  O405  1  0.34111407  0.89801696  0.16695467  1
  O2-  O406  1  0.32900892  0.89715878  0.44967834  1
  O2-  O407  1  0.37333395  0.91523011  0.81019965  1
  O2-  O408  1  0.57193833  0.14083921  0.16629589  1
  O2-  O409  1  0.58959214  0.15963712  0.48277187  1
  O2-  O410  1  0.58904367  0.17019072  0.80776524  1
  O2-  O411  1  0.58389827  0.38399991  0.16113524  1
  O2-  O412  1  0.59408554  0.43209877  0.47615619  1
  O2-  O413  1  0.58104707  0.41281861  0.82935730  1
  O2-  O414  1  0.58439041  0.68239036  0.13992471  1
  O2-  O415  1  0.58085610  0.66745829  0.48308620  1
  O2-  O416  1  0.55658264  0.59221799  0.78831940  1
  O2-  O417  1  0.58759388  0.92282897  0.17503522  1
  O2-  O418  1  0.58001392  0.91310480  0.48543161  1
  O2-  O419  1  0.57260082  0.91996932  0.73553756  1
  O2-  O420  1  0.84039617  0.17024351  0.15005402  1
  O2-  O421  1  0.80759684  0.08343062  0.44929078  1
  O2-  O422  1  0.81392134  0.19763110  0.85288304  1
  O2-  O423  1  0.83937707  0.41175173  0.14130188  1
  O2-  O424  1  0.83234738  0.42439247  0.48072312  1
  O2-  O425  1  0.83457859  0.42610665  0.82113879  1
  O2-  O426  1  0.84967262  0.67195704  0.15561764  1
  O2-  O427  1  0.83669296  0.68084995  0.47560434  1
  O2-  O428  1  0.81441720  0.66507339  0.82599107  1
  O2-  O429  1  0.83000921  0.91218520  0.14553268  1
  O2-  O430  1  0.80814134  0.92418155  0.46498674  1
  O2-  O431  1  0.81564635  0.97910098  0.84349658  1
  O2-  O432  1  0.16690991  0.08042145  0.18451493  1
  O2-  O433  1  0.16104071  0.07896091  0.51689191  1
  O2-  O434  1  0.11160018  0.05813544  0.84623025  1
  O2-  O435  1  0.17406156  0.33539842  0.18424597  1
  O2-  O436  1  0.16999559  0.33552720  0.51850305  1
  O2-  O437  1  0.16842875  0.33025493  0.85274457  1
  O2-  O438  1  0.17661559  0.58229338  0.18788445  1
  O2-  O439  1  0.16503896  0.58335606  0.51596010  1
  O2-  O440  1  0.15280403  0.58138073  0.87269040  1
  O2-  O441  1  0.16553139  0.81998293  0.18721347  1
  O2-  O442  1  0.16862537  0.83668762  0.51290733  1
  O2-  O443  1  0.13958027  0.81955140  0.85468113  1
  O2-  O444  1  0.40908088  0.07022778  0.19578570  1
  O2-  O445  1  0.41191586  0.04209277  0.52571836  1
  O2-  O446  1  0.42578452  0.08064216  0.85118599  1
  O2-  O447  1  0.42802484  0.32353840  0.18975298  1
  O2-  O448  1  0.42951111  0.35032895  0.51839108  1
  O2-  O449  1  0.41563913  0.32937465  0.86988858  1
  O2-  O450  1  0.42985383  0.58184795  0.20330756  1
  O2-  O451  1  0.41630187  0.58001615  0.51868244  1
  O2-  O452  1  0.40952882  0.56323131  0.85050083  1
  O2-  O453  1  0.43211813  0.83643487  0.21663377  1
  O2-  O454  1  0.41157178  0.82914488  0.50807651  1
  O2-  O455  1  0.40687035  0.81229466  0.87708524  1
  O2-  O456  1  0.68322595  0.08348482  0.20099004  1
  O2-  O457  1  0.67676857  0.08045512  0.51540620  1
  O2-  O458  1  0.66355546  0.07315318  0.79024568  1
  O2-  O459  1  0.67675556  0.31488112  0.17303315  1
  O2-  O460  1  0.66430200  0.33207297  0.51603173  1
  O2-  O461  1  0.67157133  0.33191624  0.85970503  1
  O2-  O462  1  0.67043530  0.46482232  0.25209871  1
  O2-  O463  1  0.66885225  0.58796348  0.52293896  1
  O2-  O464  1  0.66229723  0.58204396  0.86638931  1
  O2-  O465  1  0.66922671  0.84399156  0.18804607  1
  O2-  O466  1  0.65932509  0.82750838  0.52809295  1
  O2-  O467  1  0.67624391  0.98816908  0.88314455  1
  O2-  O468  1  0.92547534  0.08352869  0.17999892  1
  O2-  O469  1  0.94199633  0.13568697  0.52699389  1
  O2-  O470  1  0.90341651  0.13663305  0.79695646  1
  O2-  O471  1  0.92700249  0.33438326  0.18795667  1
  O2-  O472  1  0.92250735  0.35289229  0.53777197  1
  O2-  O473  1  0.92557907  0.36179095  0.86380165  1
  O2-  O474  1  0.93567547  0.58640526  0.19099106  1
  O2-  O475  1  0.91365676  0.59101948  0.51678323  1
  O2-  O476  1  0.91797244  0.59693021  0.85547516  1
  O2-  O477  1  0.92006229  0.83094021  0.18913148  1
  O2-  O478  1  0.92042345  0.85019664  0.50925345  1
  O2-  O479  1  0.89433084  0.81378993  0.87673513  1
  O2-  O480  1  0.17138348  0.08867699  0.30883571  1
  O2-  O481  1  0.19091970  0.05699609  0.74043772  1
  O2-  O482  1  0.15582178  0.08183425  0.97006425  1
  O2-  O483  1  0.17368674  0.33135403  0.31100051  1
  O2-  O484  1  0.17001823  0.33597474  0.64334231  1
  O2-  O485  1  0.16357209  0.33845544  0.97835380  1
  O2-  O486  1  0.18150752  0.57325408  0.30482593  1
  O2-  O487  1  0.16044620  0.56751655  0.64124998  1
  O2-  O488  1  0.13767912  0.56689865  0.93922065  1
  O2-  O489  1  0.15233898  0.82919088  0.30402453  1
  O2-  O490  1  0.17167488  0.83446788  0.64084784  1
  O2-  O491  1  0.17538655  0.84636924  0.97835774  1
  O2-  O492  1  0.39826075  0.06492450  0.32502798  1
  O2-  O493  1  0.43578101  0.10823184  0.67230312  1
  O2-  O494  1  0.43430740  0.07961562  0.96866994  1
  O2-  O495  1  0.41760840  0.33141560  0.30987664  1
  O2-  O496  1  0.44824845  0.34953813  0.64201847  1
  O2-  O497  1  0.43702270  0.34113295  0.99077221  1
  O2-  O498  1  0.43238889  0.58452523  0.32034151  1
  O2-  O499  1  0.42950380  0.56711089  0.64324669  1
  O2-  O500  1  0.43010755  0.58126433  0.97375151  1
  O2-  O501  1  0.42061808  0.83391612  0.33222522  1
  O2-  O502  1  0.42291187  0.85857528  0.63112961  1
  O2-  O503  1  0.38401400  0.81682489  0.99602599  1
  O2-  O504  1  0.66270854  0.08343492  0.32721160  1
  O2-  O505  1  0.68605369  0.10016893  0.64011997  1
  O2-  O506  1  0.71713689  0.12301861  0.95386307  1
  O2-  O507  1  0.68636009  0.32970170  0.30114927  1
  O2-  O508  1  0.66718704  0.33306031  0.64302427  1
  O2-  O509  1  0.69592405  0.34217182  0.98659644  1
  O2-  O510  1  0.68547813  0.62555217  0.28173600  1
  O2-  O511  1  0.69099273  0.60709855  0.63793691  1
  O2-  O512  1  0.67423259  0.58108192  0.98940877  1
  O2-  O513  1  0.66128758  0.82744982  0.31931558  1
  O2-  O514  1  0.66818854  0.83824058  0.65123825  1
  O2-  O515  1  0.65916900  0.79692399  0.96473810  1
  O2-  O516  1  0.93052635  0.08103972  0.30758979  1
  O2-  O517  1  0.91911118  0.06748590  0.64588306  1
  O2-  O518  1  0.89404687  0.02976485  0.94796559  1
  O2-  O519  1  0.92142575  0.31695377  0.31052089  1
  O2-  O520  1  0.92010230  0.33000764  0.66023829  1
  O2-  O521  1  0.90042639  0.33693467  0.98314495  1
  O2-  O522  1  0.90450509  0.59497006  0.30329708  1
  O2-  O523  1  0.92613133  0.60342062  0.64329176  1
  O2-  O524  1  0.94043520  0.60437922  0.98070139  1
  O2-  O525  1  0.91355632  0.83698380  0.30985587  1
  O2-  O526  1  0.93335674  0.85736874  0.62665760  1
  O2-  O527  1  0.91641240  0.82582900  0.99130825  1
  O2-  O528  1  0.08481966  0.16972316  0.02631868  1
  O2-  O529  1  0.08816064  0.16938523  0.35365395  1
  O2-  O530  1  0.08035528  0.15845562  0.67441940  1
  O2-  O531  1  0.07226443  0.41722444  0.01170263  1
  O2-  O532  1  0.08706599  0.41137441  0.35411946  1
  O2-  O533  1  0.09113623  0.41730275  0.69388663  1
  O2-  O534  1  0.10201091  0.67605244  0.00893344  1
  O2-  O535  1  0.03109946  0.70459442  0.36585430  1
  O2-  O536  1  0.08944507  0.66644455  0.69028896  1
  O2-  O537  1  0.08398300  0.91869273  0.02076209  1
  O2-  O538  1  0.07841183  0.92603475  0.35253874  1
  O2-  O539  1  0.07934342  0.89495380  0.69949035  1
  O2-  O540  1  0.31050671  0.16742171  0.02626143  1
  O2-  O541  1  0.33385865  0.16723954  0.35281051  1
  O2-  O542  1  0.35274118  0.20033767  0.69436670  1
  O2-  O543  1  0.30205601  0.45572904  0.03851707  1
  O2-  O544  1  0.33837390  0.41253356  0.35207410  1
  O2-  O545  1  0.34138422  0.40831570  0.68450768  1
  O2-  O546  1  0.30788395  0.62745396  0.01419501  1
  O2-  O547  1  0.34245969  0.65901479  0.35578528  1
  O2-  O548  1  0.32558469  0.72893384  0.72129493  1
  O2-  O549  1  0.33967364  0.93866198  0.01115071  1
  O2-  O550  1  0.33419149  0.90251492  0.38306431  1
  O2-  O551  1  0.33752784  0.93341378  0.68649114  1
  O2-  O552  1  0.59672514  0.15961114  -0.00523944  1
  O2-  O553  1  0.54698247  0.18844160  0.36609102  1
  O2-  O554  1  0.59697613  0.18064126  0.68463557  1
  O2-  O555  1  0.61248101  0.41737447  0.02377671  1
  O2-  O556  1  0.57282353  0.45481254  0.34360548  1
  O2-  O557  1  0.55898263  0.46103601  0.71629375  1
  O2-  O558  1  0.58567590  0.65753701  0.02622504  1
  O2-  O559  1  0.57853681  0.67927981  0.36497205  1
  O2-  O560  1  0.59730139  0.66916370  0.68145136  1
  O2-  O561  1  0.55234825  0.86205307  -0.06009950  1
  O2-  O562  1  0.58746988  0.91416176  0.36185115  1
  O2-  O563  1  0.59011446  0.93083094  0.67008243  1
  O2-  O564  1  0.85805960  0.17964504  0.02319612  1
  O2-  O565  1  0.85238649  0.15571506  0.33943218  1
  O2-  O566  1  0.85275767  0.16599844  0.68879232  1
  O2-  O567  1  0.78429135  0.39302260  0.00986444  1
  O2-  O568  1  0.84346475  0.39879375  0.35406941  1
  O2-  O569  1  0.80896804  0.45190856  0.69973293  1
  O2-  O570  1  0.84147888  0.66422060  0.03104860  1
  O2-  O571  1  0.83322224  0.67592366  0.34376718  1
  O2-  O572  1  0.84202332  0.68932253  0.66486140  1
  O2-  O573  1  0.81766241  0.89751932  0.02462656  1
  O2-  O574  1  0.83328409  0.91706565  0.34126475  1
  O2-  O575  1  0.82187594  0.92237724  0.71107252  1
