# generated using pymatgen
data_H2O
_symmetry_space_group_name_H-M   'P 1'
_cell_length_a   17.99573979
_cell_length_b   17.98893061
_cell_length_c   21.99791864
_cell_angle_alpha   90.04368106
_cell_angle_beta   89.96012026
_cell_angle_gamma   120.00095446
_symmetry_Int_Tables_number   1
_chemical_formula_structural   H2O
_chemical_formula_sum   'H384 O192'
_cell_volume   6167.12771625
_cell_formula_units_Z   192
loop_
 _symmetry_equiv_pos_site_id
 _symmetry_equiv_pos_as_xyz
  1  'x, y, z'
loop_
 _atom_type_symbol
 _atom_type_oxidation_number
  H+  1.0
  O2-  -2.0
loop_
 _atom_site_type_symbol
 _atom_site_label
 _atom_site_symmetry_multiplicity
 _atom_site_fract_x
 _atom_site_fract_y
 _atom_site_fract_z
 _atom_site_occupancy
  H+  H0  1  0.13019478  0.89963265  0.82137541  1
  H+  H1  1  0.33770495  0.37462951  0.32214184  1
  H+  H2  1  0.03521423  0.65924744  0.00390985  1
  H+  H3  1  0.13401558  0.68956258  0.00162131  1
  H+  H4  1  0.68461069  0.62784887  0.85435574  1
  H+  H5  1  0.12331599  0.65146379  0.15732191  1
  H+  H6  1  0.22998223  0.10897320  0.18056109  1
  H+  H7  1  0.24553208  0.59780351  0.51048366  1
  H+  H8  1  0.17229215  0.79593389  0.32227839  1
  H+  H9  1  0.13603126  0.53883466  0.17722667  1
  H+  H10  1  0.52416329  0.63498414  0.66783852  1
  H+  H11  1  0.69821095  0.85798507  0.83587949  1
  H+  H12  1  0.63770432  0.00371035  0.15826215  1
  H+  H13  1  0.24268866  0.37654872  0.32446966  1
  H+  H14  1  0.29417083  0.89993703  0.36820751  1
  H+  H15  1  0.63452789  0.51855113  0.66194762  1
  H+  H16  1  0.11553687  0.89083028  0.33621019  1
  H+  H17  1  0.75298055  0.88013032  0.66310801  1
  H+  H18  1  0.89674060  0.87397457  0.14783521  1
  H+  H19  1  0.62895118  0.19372842  0.48400620  1
  H+  H20  1  0.90711824  0.31825794  0.26723141  1
  H+  H21  1  0.86100512  0.88484217  0.01298770  1
  H+  H22  1  1.01879240  0.13728737  0.36456246  1
  H+  H23  1  0.62627525  0.85687658  0.65675243  1
  H+  H24  1  0.28230086  0.40810544  0.48645910  1
  H+  H25  1  0.12565728  0.47218262  0.00929802  1
  H+  H26  1  0.88396144  0.13916342  0.83217284  1
  H+  H27  1  0.63396891  0.09931772  0.32043909  1
  H+  H28  1  0.03525407  0.39722521  0.66626575  1
  H+  H29  1  0.60652644  0.63231802  0.33838647  1
  H+  H30  1  0.48275268  0.14131172  0.83289860  1
  H+  H31  1  0.95426061  0.84097474  0.34214417  1
  H+  H32  1  0.57105800  0.61482491  0.81303393  1
  H+  H33  1  0.37731903  0.23695881  0.50431101  1
  H+  H34  1  0.88650060  1.02259188  -0.00134932  1
  H+  H35  1  0.35800342  0.94593701  0.05980812  1
  H+  H36  1  0.63237259  0.24788823  1.00968306  1
  H+  H37  1  0.65358725  0.34043781  0.59570594  1
  H+  H38  1  0.58396954  0.96266428  0.83479946  1
  H+  H39  1  0.12573618  0.73093218  0.67059919  1
  H+  H40  1  0.89994105  0.64163497  0.17631641  1
  H+  H41  1  0.11077078  0.20274031  0.16020705  1
  H+  H42  1  0.87754856  0.61669234  0.82543507  1
  H+  H43  1  -0.01566402  0.63535254  0.18561536  1
  H+  H44  1  0.62189882  0.47820135  0.82756858  1
  H+  H45  1  0.93055121  0.83321969  0.68273246  1
  H+  H46  1  0.78068676  0.37467185  0.00010687  1
  H+  H47  1  0.13331645  0.25114095  0.82717083  1
  H+  H48  1  0.97040879  0.41086714  0.59016165  1
  H+  H49  1  0.45604696  0.61255855  0.83912314  1
  H+  H50  1  0.22183808  0.35248348  0.65463184  1
  H+  H51  1  0.11557704  0.22614141  0.67282051  1
  H+  H52  1  0.37817834  0.85090474  0.84620689  1
  H+  H53  1  0.01226815  0.62195149  0.50058644  1
  H+  H54  1  0.86137191  0.25820857  0.16917448  1
  H+  H55  1  0.35731856  0.64247928  1.00299401  1
  H+  H56  1  0.02542518  0.40271863  0.33500643  1
  H+  H57  1  0.24414061  0.62810632  0.32914633  1
  H+  H58  1  0.60162768  0.35798623  0.01314555  1
  H+  H59  1  0.03102118  0.88353424  0.13669911  1
  H+  H60  1  0.91196831  0.75102723  0.83843552  1
  H+  H61  1  0.63533798  0.27465655  0.65100504  1
  H+  H62  1  0.41661504  0.10326336  0.92099189  1
  H+  H63  1  0.25459980  0.85128691  0.28157786  1
  H+  H64  1  0.63693019  0.52104792  0.32902227  1
  H+  H65  1  0.77347356  0.64443825  0.15868224  1
  H+  H66  1  0.92668055  0.83793806  1.06002691  1
  H+  H67  1  0.12479199  0.02142534  0.33146576  1
  H+  H68  1  0.83157397  0.60762812  0.35733865  1
  H+  H69  1  0.28264176  0.66886751  0.00020918  1
  H+  H70  1  0.85250102  0.13524328  0.36482670  1
  H+  H71  1  0.25292617  0.62725839  0.83623375  1
  H+  H72  1  0.36484065  0.24795578  0.83039690  1
  H+  H73  1  0.11871528  0.64410936  0.83395229  1
  H+  H74  1  0.34151275  0.45991661  0.01268104  1
  H+  H75  1  0.36066208  0.34715323  0.16971556  1
  H+  H76  1  0.12011225  0.21042091  1.01003687  1
  H+  H77  1  0.33450740  0.15987815  0.10325659  1
  H+  H78  1  0.64303002  0.61172669  0.65964245  1
  H+  H79  1  0.73055692  0.87306104  0.18232648  1
  H+  H80  1  0.77004858  0.87965491  1.00575771  1
  H+  H81  1  0.91288863  0.91356265  0.79775477  1
  H+  H82  1  0.42135232  0.34049366  0.90653524  1
  H+  H83  1  0.35401031  0.87074795  0.21588308  1
  H+  H84  1  0.84154864  0.64144938  0.76485956  1
  H+  H85  1  0.87279350  0.02142599  0.84593074  1
  H+  H86  1  0.85503052  0.13376756  1.01052318  1
  H+  H87  1  0.79446282  0.50411045  0.29281038  1
  H+  H88  1  0.13236644  1.04552032  0.50363030  1
  H+  H89  1  0.37596827  0.88576108  0.67500181  1
  H+  H90  1  0.39132176  0.13575086  0.83206621  1
  H+  H91  1  0.66969385  0.59383743  0.99159619  1
  H+  H92  1  0.38175224  0.49185098  0.50409803  1
  H+  H93  1  0.85141325  0.69917295  0.67609257  1
  H+  H94  1  0.14342294  0.13836831  0.51432567  1
  H+  H95  1  0.63048433  0.76664527  0.99759989  1
  H+  H96  1  0.61134914  0.38566637  0.67292331  1
  H+  H97  1  0.75136279  0.19393262  0.89509693  1
  H+  H98  1  0.27860126  0.88165057  0.83013889  1
  H+  H99  1  0.60480215  -0.03340539  0.67522193  1
  H+  H100  1  0.60793703  0.21925034  0.17156724  1
  H+  H101  1  0.61279496  0.42022310  0.41326747  1
  H+  H102  1  0.37799169  0.63935915  0.49371404  1
  H+  H103  1  0.46709917  0.59694339  0.32355126  1
  H+  H104  1  0.37059164  0.83701662  0.28046681  1
  H+  H105  1  0.12232965  0.14588724  0.82812750  1
  H+  H106  1  0.62239511  0.39101357  0.82421932  1
  H+  H107  1  0.64571316  0.82449638  0.49118534  1
  H+  H108  1  0.67463490  0.57400833  0.56753641  1
  H+  H109  1  0.23225619  0.36232550  0.83872462  1
  H+  H110  1  0.59640766  0.87849186  0.83488091  1
  H+  H111  1  0.57935334  0.64892609  0.43105220  1
  H+  H112  1  0.70677140  0.34710657  0.17110856  1
  H+  H113  1  0.74249942  0.11790160  0.15738521  1
  H+  H114  1  0.83500866  0.36891163  0.16214665  1
  H+  H115  1  0.50078435  0.86495200  0.99121998  1
  H+  H116  1  0.48260414  0.37012926  0.66042505  1
  H+  H117  1  0.39972179  0.01697357  0.65257973  1
  H+  H118  1  0.73049934  0.10510717  -0.00085681  1
  H+  H119  1  0.34475469  0.47169234  0.32539483  1
  H+  H120  1  0.76862202  0.13321268  0.34172459  1
  H+  H121  1  0.97875091  0.10712041  0.99749483  1
  H+  H122  1  0.47755832  0.10639150  0.18048642  1
  H+  H123  1  1.00720405  0.63473586  0.65384629  1
  H+  H124  1  0.57706523  0.62710097  0.02854059  1
  H+  H125  1  0.16621243  0.48703845  1.02758241  1
  H+  H126  1  0.72225177  0.60202182  0.31068282  1
  H+  H127  1  0.71279532  0.85240768  0.33689619  1
  H+  H128  1  0.32819901  0.45245209  0.16425168  1
  H+  H129  1  0.61624720  0.21589993  0.34004679  1
  H+  H130  1  0.46552622  0.84739238  0.84133887  1
  H+  H131  1  0.39961481  0.77114498  0.99547664  1
  H+  H132  1  0.22426706  0.11929085  0.84086022  1
  H+  H133  1  0.89148400  0.78126777  0.14615833  1
  H+  H134  1  0.75829465  0.97849446  0.78602351  1
  H+  H135  1  0.29287295  0.14239873  0.66341962  1
  H+  H136  1  0.94653943  0.61033313  0.58597833  1
  H+  H137  1  -0.03019423  0.58882681  0.33214803  1
  H+  H138  1  0.62525395  0.85531249  0.33571848  1
  H+  H139  1  0.90937518  0.31753501  0.61423203  1
  H+  H140  1  0.98784026  0.61023691  0.83719269  1
  H+  H141  1  0.37733996  0.87853348  0.51643448  1
  H+  H142  1  0.09240818  0.67360661  0.77077705  1
  H+  H143  1  0.87989193  0.00988798  0.35360132  1
  H+  H144  1  0.62298767  0.97598527  0.00528041  1
  H+  H145  1  0.34524190  0.71285010  0.83589460  1
  H+  H146  1  0.62598718  0.23901457  0.81781837  1
  H+  H147  1  0.38129294  0.36108984  1.00036686  1
  H+  H148  1  0.16993427  0.08597315  0.23968360  1
  H+  H149  1  0.62404572  0.88455001  1.00372507  1
  H+  H150  1  0.18294650  0.83093755  0.60295027  1
  H+  H151  1  0.88923599  1.00894610  0.66166361  1
  H+  H152  1  0.61857865  0.74842421  0.17126209  1
  H+  H153  1  0.48809942  0.37129871  0.50849343  1
  H+  H154  1  0.38102135  0.12747863  0.98732851  1
  H+  H155  1  0.17867897  0.57794484  0.60148265  1
  H+  H156  1  0.58966949  0.48830053  0.15214655  1
  H+  H157  1  0.77486065  0.39007018  0.66503507  1
  H+  H158  1  0.36264250  0.22133002  0.16085724  1
  H+  H159  1  0.13618265  0.48694102  0.81549148  1
  H+  H160  1  0.89997898  0.61655736  0.65235904  1
  H+  H161  1  0.13712230  0.78073875  0.84173715  1
  H+  H162  1  0.90122942  0.51625163  0.83290606  1
  H+  H163  1  0.86249525  0.97869831  0.15983119  1
  H+  H164  1  0.60995837  0.12863132  0.16806287  1
  H+  H165  1  0.86832706  0.37473111  0.33644962  1
  H+  H166  1  0.12107969  0.80766470  0.99811536  1
  H+  H167  1  0.88733253  0.26750348  0.33086161  1
  H+  H168  1  0.12668310  0.14300188  0.67548350  1
  H+  H169  1  0.98964978  0.59928024  0.30078551  1
  H+  H170  1  0.39796982  0.27863005  0.65398996  1
  H+  H171  1  0.16084223  0.82861226  0.49864884  1
  H+  H172  1  0.39468869  0.03890211  0.98687374  1
  H+  H173  1  0.37709255  0.60767105  0.16243469  1
  H+  H174  1  0.38738661  0.10908576  0.32862428  1
  H+  H175  1  0.27672995  0.63685067  0.16060662  1
  H+  H176  1  0.08859027  0.40330378  0.19423006  1
  H+  H177  1  0.36862433  -0.01739139  0.15606781  1
  H+  H178  1  0.90569242  0.60788095  0.99335095  1
  H+  H179  1  0.83755711  0.18899444  0.63187221  1
  H+  H180  1  0.48367532  0.36931201  0.84684767  1
  H+  H181  1  0.01209196  0.88981468  0.49648553  1
  H+  H182  1  0.51493261  0.87506173  0.34882894  1
  H+  H183  1  0.59354083  0.09990322  0.84580987  1
  H+  H184  1  0.11548879  0.23891548  0.55629150  1
  H+  H185  1  0.40133406  0.13415424  0.50847870  1
  H+  H186  1  -0.01921271  0.09903714  0.66820908  1
  H+  H187  1  0.38548573  0.52011659  0.66362111  1
  H+  H188  1  0.64145007  0.59104975  0.50464539  1
  H+  H189  1  0.91394722  0.07854223  0.90574568  1
  H+  H190  1  0.83203478  0.86579214  0.67643306  1
  H+  H191  1  0.53305121  0.13594301  0.66522916  1
  H+  H192  1  0.43382531  0.08699722  0.56329897  1
  H+  H193  1  0.02953499  0.17959020  0.52077992  1
  H+  H194  1  0.73937223  0.34722492  0.32835723  1
  H+  H195  1  0.99802032  0.37640387  0.82074103  1
  H+  H196  1  0.10609960  0.90986526  0.50107468  1
  H+  H197  1  0.62295528  0.70063366  0.49164822  1
  H+  H198  1  0.14904256  0.57260858  0.50741701  1
  H+  H199  1  0.70270765  0.35896955  0.88595121  1
  H+  H200  1  0.41603483  0.07187819  0.27314946  1
  H+  H201  1  0.94760849  0.35239796  0.17417412  1
  H+  H202  1  0.75040261  0.37660704  0.82298346  1
  H+  H203  1  0.84146825  0.39009672  0.49089552  1
  H+  H204  1  0.35888811  0.22728638  1.00584608  1
  H+  H205  1  0.08656509  0.14318980  0.06519916  1
  H+  H206  1  0.62068605  0.12684015  0.02489668  1
  H+  H207  1  0.40264508  0.85693256  0.36455684  1
  H+  H208  1  0.47110200  0.35880228  0.99919157  1
  H+  H209  1  0.49306082  0.12113980  0.49793779  1
  H+  H210  1  0.84643777  0.87175326  0.36242114  1
  H+  H211  1  0.15424499  0.66291536  0.34571134  1
  H+  H212  1  0.96736680  0.37652866  0.91645005  1
  H+  H213  1  0.36833155  0.39180985  0.83127331  1
  H+  H214  1  0.15876913  0.87023791  0.66126221  1
  H+  H215  1  0.63869122  0.47531559  0.50597898  1
  H+  H216  1  0.11269724  0.40476358  0.34016269  1
  H+  H217  1  0.33503346  0.66885604  0.10074209  1
  H+  H218  1  0.37995824  0.98667546  0.36281755  1
  H+  H219  1  0.64009060  0.62835117  0.17419583  1
  H+  H220  1  0.13576081  0.09806536  0.99578594  1
  H+  H221  1  0.06461946  0.91419116  0.66757004  1
  H+  H222  1  0.86267883  0.58916264  0.26129091  1
  H+  H223  1  0.44611385  0.36757780  0.31547064  1
  H+  H224  1  0.87556206  0.19901773  0.56625268  1
  H+  H225  1  0.60075040  0.71842825  0.34228445  1
  H+  H226  1  0.92298239  0.74868735  0.52362732  1
  H+  H227  1  0.37925959  0.74239598  0.34961499  1
  H+  H228  1  0.79391261  0.92397034  0.75577274  1
  H+  H229  1  0.25828749  0.85369111  0.51901261  1
  H+  H230  1  0.48627232  0.60748286  0.51395199  1
  H+  H231  1  0.11994550  0.63774332  0.66775863  1
  H+  H232  1  0.56709926  0.67894469  0.08156862  1
  H+  H233  1  0.12505620  0.87366774  0.15306435  1
  H+  H234  1  0.87034308  0.40567582  0.65972484  1
  H+  H235  1  0.13727164  0.02827666  0.83574649  1
  H+  H236  1  0.13207081  -0.03118846  0.99225539  1
  H+  H237  1  0.16464575  0.04140561  0.65941709  1
  H+  H238  1  0.75723174  0.60526960  0.83846388  1
  H+  H239  1  0.74216412  0.21666238  0.86992513  1
  H+  H240  1  0.86782387  0.46387145  0.00425956  1
  H+  H241  1  0.87262124  0.75535077  0.36394889  1
  H+  H242  1  0.10596269  0.30912480  0.14752004  1
  H+  H243  1  0.28008011  0.89735255  0.14406271  1
  H+  H244  1  0.36344731  0.72012045  0.68146752  1
  H+  H245  1  0.11264613  0.31944215  1.04369602  1
  H+  H246  1  0.92090622  0.10309756  0.57751772  1
  H+  H247  1  0.52204397  0.12900764  0.33841801  1
  H+  H248  1  0.36803491  0.64344856  0.34207911  1
  H+  H249  1  0.28929701  0.14642509  0.50290644  1
  H+  H250  1  0.35858781  0.47573620  0.82939276  1
  H+  H251  1  0.13091191  0.11319177  0.33830886  1
  H+  H252  1  0.39994874  0.10685415  0.64929676  1
  H+  H253  1  0.87904555  0.72021070  1.01356012  1
  H+  H254  1  0.91377437  0.28410124  0.82533997  1
  H+  H255  1  0.76346991  0.92578730  0.50218146  1
  H+  H256  1  0.71478064  0.08609291  0.65826679  1
  H+  H257  1  0.84673314  0.13947850  0.14682081  1
  H+  H258  1  0.37181757  0.39251415  0.49963729  1
  H+  H259  1  0.79738932  0.62463873  0.00509760  1
  H+  H260  1  0.27196783  0.13382427  0.00411316  1
  H+  H261  1  0.65620808  0.35569837  0.33548655  1
  H+  H262  1  0.70531713  0.39313858  0.49738512  1
  H+  H263  1  0.55477752  0.37326177  0.35734464  1
  H+  H264  1  0.77142465  0.60744547  0.67171384  1
  H+  H265  1  0.87639635  0.38807405  0.80990051  1
  H+  H266  1  0.98725938  0.10695419  0.15851806  1
  H+  H267  1  0.80761160  0.15995750  0.83429750  1
  H+  H268  1  0.23124692  0.61368312  0.66381713  1
  H+  H269  1  0.61844047  0.45227235  0.00510780  1
  H+  H270  1  0.62172403  0.13841116  0.66729414  1
  H+  H271  1  0.40401518  0.77132014  0.51076059  1
  H+  H272  1  0.45294485  0.60810709  1.00077570  1
  H+  H273  1  0.14688952  0.33781774  0.49218184  1
  H+  H274  1  0.77842570  0.61022307  0.41502417  1
  H+  H275  1  0.35391276  0.21616992  0.32915321  1
  H+  H276  1  0.15430481  0.58636338  0.99236000  1
  H+  H277  1  0.14186810  0.70703056  0.50647589  1
  H+  H278  1  -0.05715578  0.39484286  -0.02004417  1
  H+  H279  1  0.61625513  0.76240484  0.83828477  1
  H+  H280  1  0.36454477  0.38637016  0.67254684  1
  H+  H281  1  0.42920962  0.55965611  0.14038388  1
  H+  H282  1  0.14816709  0.54386782  0.32606976  1
  H+  H283  1  0.13734454  0.77523916  0.16622161  1
  H+  H284  1  0.31352366  0.91038347  -0.00420185  1
  H+  H285  1  0.11736715  0.11650042  0.16380777  1
  H+  H286  1  0.91477726  0.88556163  0.77314978  1
  H+  H287  1  1.03811258  0.88693213  0.82050448  1
  H+  H288  1  0.17728911  0.60356458  0.23326136  1
  H+  H289  1  0.60770555  0.05715132  0.49357854  1
  H+  H290  1  0.65542894  0.07200522  0.94467804  1
  H+  H291  1  0.33228903  0.41315234  0.73213628  1
  H+  H292  1  0.59047808  0.17585476  0.76013409  1
  H+  H293  1  0.16761636  0.07770861  0.93337513  1
  H+  H294  1  0.25372139  0.36290848  0.01509857  1
  H+  H295  1  0.55991394  0.41999593  0.09729559  1
  H+  H296  1  0.35210924  0.92389367  0.46398010  1
  H+  H297  1  0.81601731  0.39844510  0.09968038  1
  H+  H298  1  0.65819404  0.84061061  0.59179720  1
  H+  H299  1  0.12658560  0.48006314  0.66833387  1
  H+  H300  1  0.32571120  0.65762542  0.73988995  1
  H+  H301  1  0.16094182  0.84709102  0.89757776  1
  H+  H302  1  0.65980173  0.31740914  0.23503876  1
  H+  H303  1  0.38934866  0.10833976  0.17863707  1
  H+  H304  1  0.17007875  0.84367945  0.22380173  1
  H+  H305  1  0.45806559  0.36833321  0.16768398  1
  H+  H306  1  0.66021142  0.81864211  0.93410406  1
  H+  H307  1  0.93347896  0.57703580  0.93346065  1
  H+  H308  1  0.36365157  0.60359006  0.84479709  1
  H+  H309  1  0.62289894  0.28112719  0.94631232  1
  H+  H310  1  0.63004728  0.91112585  0.50658352  1
  H+  H311  1  0.90038892  0.80772046  0.61316437  1
  H+  H312  1  0.91911673  0.82367811  0.88262646  1
  H+  H313  1  0.85368523  0.10128743  0.68142238  1
  H+  H314  1  0.09860257  0.17785854  0.76308920  1
  H+  H315  1  0.14435001  0.36466478  0.83335279  1
  H+  H316  1  0.98225203  0.85835907  1.00055839  1
  H+  H317  1  0.12262507  0.27070308  0.33113706  1
  H+  H318  1  0.07167417  0.67119180  0.35372914  1
  H+  H319  1  0.18284358  0.09942206  0.59928708  1
  H+  H320  1  0.66060350  0.58394668  0.22859362  1
  H+  H321  1  0.10586415  0.54004497  0.87885083  1
  H+  H322  1  0.26921294  0.12798678  0.33707047  1
  H+  H323  1  0.42864802  0.34666608  0.56763380  1
  H+  H324  1  0.69596965  0.56450222  0.93227869  1
  H+  H325  1  0.30860817  0.39899018  0.10144456  1
  H+  H326  1  0.13520588  0.35483259  0.65303130  1
  H+  H327  1  0.61127454  0.72592698  0.66439131  1
  H+  H328  1  0.57782807  0.90931358  0.73665766  1
  H+  H329  1  0.52804441  0.02858796  0.88868244  1
  H+  H330  1  0.39993144  0.57717391  0.93832134  1
  H+  H331  1  0.14028037  0.31685650  0.26522036  1
  H+  H332  1  0.82269585  0.91606546  0.10325950  1
  H+  H333  1  0.10475911  0.42610296  0.75601233  1
  H+  H334  1  0.09108187  0.18695859  0.41436363  1
  H+  H335  1  0.30179392  0.21148125  0.77544308  1
  H+  H336  1  0.34187623  0.90820587  0.77333210  1
  H+  H337  1  0.59898163  0.92030277  0.09233762  1
  H+  H338  1  0.65362460  0.05556623  0.59906715  1
  H+  H339  1  0.63415143  0.01132950  0.32381675  1
  H+  H340  1  0.35833227  0.16551295  0.71885653  1
  H+  H341  1  0.90560738  0.65577617  0.45099018  1
  H+  H342  1  0.34491602  0.66915234  0.43505252  1
  H+  H343  1  0.57007692  0.66669638  0.75582534  1
  H+  H344  1  0.38602801  0.60986397  0.66620784  1
  H+  H345  1  0.41209848  0.57359684  0.26195281  1
  H+  H346  1  0.86084764  0.48509744  0.48913365  1
  H+  H347  1  0.28997126  0.88977221  0.67431489  1
  H+  H348  1  0.19945472  0.34009837  0.17205506  1
  H+  H349  1  0.48967609  0.86671211  0.51670212  1
  H+  H350  1  0.83569441  0.40945252  0.39199139  1
  H+  H351  1  0.18088726  0.43830922  0.50008193  1
  H+  H352  1  0.11696388  0.66568423  0.44131100  1
  H+  H353  1  0.62692505  0.89396362  0.15661740  1
  H+  H354  1  0.09179677  0.68430263  0.09851788  1
  H+  H355  1  0.82890013  0.14420740  0.73589077  1
  H+  H356  1  0.66721239  0.06631853  0.22256869  1
  H+  H357  1  0.58328592  0.41605663  0.73380853  1
  H+  H358  1  0.85853853  0.94112095  0.51188976  1
  H+  H359  1  0.90632766  0.07841474  0.30180201  1
  H+  H360  1  0.58215769  0.14616753  0.42203413  1
  H+  H361  1  0.01255523  0.28375913  0.06932467  1
  H+  H362  1  0.52888182  0.65855707  0.17449648  1
  H+  H363  1  0.41941645  0.82067843  0.60832657  1
  H+  H364  1  0.58719306  0.92233359  0.40308013  1
  H+  H365  1  0.81834541  0.91772693  0.41403851  1
  H+  H366  1  0.10237187  0.90701340  0.08232480  1
  H+  H367  1  0.86487108  0.79031640  0.51486151  1
  H+  H368  1  0.07479225  0.40116292  0.12496159  1
  H+  H369  1  0.47598059  0.85153252  0.66853184  1
  H+  H370  1  0.58713767  0.15878535  0.08220322  1
  H+  H371  1  0.84217111  0.42044980  0.75218819  1
  H+  H372  1  0.15424184  0.32214044  0.96092856  1
  H+  H373  1  0.42848192  0.83074017  0.92967146  1
  H+  H374  1  0.92733357  0.11517065  0.20728619  1
  H+  H375  1  0.81529359  0.16202877  0.06625760  1
  H+  H376  1  0.66524127  0.84390190  0.24067374  1
  H+  H377  1  0.83441663  0.66091468  0.10004845  1
  H+  H378  1  0.08022265  0.91262722  0.39585272  1
  H+  H379  1  0.39376616  0.32918390  0.25350059  1
  H+  H380  1  0.17925610  0.62757218  0.92534906  1
  H+  H381  1  0.10820837  0.93232363  0.73387295  1
  H+  H382  1  0.42351534  0.58277767  0.57383351  1
  H+  H383  1  0.88640037  0.07625537  0.51113892  1
  O2-  O384  1  0.08465116  0.14351714  0.14352209  1
  O2-  O385  1  0.09443699  0.21145636  0.51645888  1
  O2-  O386  1  0.10146117  0.18374466  0.80951640  1
  O2-  O387  1  0.06935672  0.42872605  0.16311463  1
  O2-  O388  1  -0.00163331  0.38992898  0.50195154  1
  O2-  O389  1  0.10764232  0.42655149  0.80212394  1
  O2-  O390  1  0.09283119  0.68260758  0.14393028  1
  O2-  O391  1  0.10584855  0.65043573  0.48567096  1
  O2-  O392  1  0.08932495  0.67657343  0.81539905  1
  O2-  O393  1  0.09438718  0.90685646  0.12777244  1
  O2-  O394  1  0.07034432  0.92827244  0.47995427  1
  O2-  O395  1  0.09749634  0.92761390  0.80487495  1
  O2-  O396  1  0.33601958  0.15998604  0.14826167  1
  O2-  O397  1  0.35178359  0.17446511  0.49640275  1
  O2-  O398  1  0.32694193  0.19258762  0.80685883  1
  O2-  O399  1  0.30199137  0.39364942  0.14783169  1
  O2-  O400  1  0.34872054  0.43049101  0.48435744  1
  O2-  O401  1  0.33356480  0.41559980  0.81339957  1
  O2-  O402  1  0.33595710  0.65752569  0.14465797  1
  O2-  O403  1  0.34634506  0.66870208  0.48147201  1
  O2-  O404  1  0.31333897  0.65281219  0.82005051  1
  O2-  O405  1  0.34143944  0.92624807  0.13342800  1
  O2-  O406  1  0.34466364  0.90923195  0.50827180  1
  O2-  O407  1  0.33893869  0.90232725  0.81817013  1
  O2-  O408  1  0.57638785  0.15624829  0.15633438  1
  O2-  O409  1  0.58119458  0.13983936  0.46921163  1
  O2-  O410  1  0.58645771  0.17861834  0.80548298  1
  O2-  O411  1  0.54005887  0.43759897  0.13371816  1
  O2-  O412  1  0.60525400  0.41206377  0.48825006  1
  O2-  O413  1  0.58696338  0.41781701  0.81362914  1
  O2-  O414  1  0.58600985  0.68696689  0.15500422  1
  O2-  O415  1  0.58335288  0.64300395  0.47673215  1
  O2-  O416  1  0.56111320  0.66145107  0.80179334  1
  O2-  O417  1  0.59910453  0.92415442  0.13767612  1
  O2-  O418  1  0.58872264  0.93956751  0.48928434  1
  O2-  O419  1  0.56697449  0.90658376  0.81471820  1
  O2-  O420  1  0.80941968  0.16328718  0.13905271  1
  O2-  O421  1  0.84945512  0.22270645  0.59375038  1
  O2-  O422  1  0.85941965  0.17395630  0.81133989  1
  O2-  O423  1  0.80541925  0.39745636  0.14393127  1
  O2-  O424  1  0.81673164  0.42582617  0.47875774  1
  O2-  O425  1  0.84480455  0.41902740  0.79877535  1
  O2-  O426  1  0.83388116  0.67577876  0.14373792  1
  O2-  O427  1  0.94681420  0.68079094  0.48638562  1
  O2-  O428  1  0.84528889  0.64678147  0.81005823  1
  O2-  O429  1  0.82836118  0.91653771  0.14860271  1
  O2-  O430  1  0.82664545  0.95969917  0.48646342  1
  O2-  O431  1  0.77857141  0.93894290  0.79629906  1
  O2-  O432  1  0.16958542  0.08107994  0.19477389  1
  O2-  O433  1  0.17037693  0.10270781  0.52170995  1
  O2-  O434  1  0.16314971  0.08766188  0.85366722  1
  O2-  O435  1  0.13772949  0.30703853  0.18503642  1
  O2-  O436  1  0.19358127  0.39391095  0.48239112  1
  O2-  O437  1  0.16949416  0.32993741  0.85002856  1
  O2-  O438  1  0.17357817  0.60062329  0.18765460  1
  O2-  O439  1  0.18738767  0.55487372  0.52641895  1
  O2-  O440  1  0.15509604  0.59363554  0.86508866  1
  O2-  O441  1  0.16499323  0.83935136  0.17820632  1
  O2-  O442  1  0.18983973  0.81256634  0.52875721  1
  O2-  O443  1  0.16890003  0.84317072  0.85346900  1
  O2-  O444  1  0.41548828  0.07461595  0.19425471  1
  O2-  O445  1  0.43442576  0.10034811  0.51795047  1
  O2-  O446  1  0.42446712  0.11287081  0.85167811  1
  O2-  O447  1  0.39917259  0.32633274  0.18564992  1
  O2-  O448  1  0.42758282  0.34734397  0.52163591  1
  O2-  O449  1  0.42265257  0.34146909  0.86057094  1
  O2-  O450  1  0.40881364  0.57459821  0.17696356  1
  O2-  O451  1  0.42539484  0.57987701  0.52787955  1
  O2-  O452  1  0.39932942  0.57743942  0.85864695  1
  O2-  O453  1  0.32601507  0.83809642  0.25204445  1
  O2-  O454  1  0.43027299  0.82774393  0.53260443  1
  O2-  O455  1  0.40862619  0.81929647  0.86272296  1
  O2-  O456  1  0.66592349  0.06905018  0.17754044  1
  O2-  O457  1  0.63244090  0.02706337  0.51647864  1
  O2-  O458  1  0.58521285  0.05017829  0.87149797  1
  O2-  O459  1  0.64850172  0.31332431  0.19085864  1
  O2-  O460  1  0.64546066  0.36448001  0.51404659  1
  O2-  O461  1  0.69034416  0.35062434  0.84240328  1
  O2-  O462  1  0.66613911  0.59236254  0.18385697  1
  O2-  O463  1  0.67612269  0.56767655  0.52237434  1
  O2-  O464  1  0.69682907  0.58100419  0.85823220  1
  O2-  O465  1  0.66877894  0.84485076  0.19510343  1
  O2-  O466  1  0.67073053  0.87123248  0.52148817  1
  O2-  O467  1  0.64349421  0.81971687  0.85821496  1
  O2-  O468  1  0.92441078  0.08712908  0.16898352  1
  O2-  O469  1  0.92391937  0.12733179  0.53615111  1
  O2-  O470  1  0.91382615  0.07965032  0.86019274  1
  O2-  O471  1  0.88978561  0.31592102  0.19079907  1
  O2-  O472  1  0.92505369  0.34756356  0.47893382  1
  O2-  O473  1  0.93708139  0.34617055  0.83433579  1
  O2-  O474  1  0.92868936  0.62018070  0.20378364  1
  O2-  O475  1  0.94952332  0.60661469  0.51294316  1
  O2-  O476  1  0.92703609  0.57457862  0.85232875  1
  O2-  O477  1  0.92920126  0.84423551  0.13645160  1
  O2-  O478  1  0.91608770  0.79884491  0.53629005  1
  O2-  O479  1  0.95297161  0.80678524  0.85772671  1
  O2-  O480  1  0.15869409  0.08307993  0.31990476  1
  O2-  O481  1  0.19063193  0.10184694  0.64458806  1
  O2-  O482  1  0.16983609  0.07128353  0.97817531  1
  O2-  O483  1  0.15231003  0.32753832  0.30958953  1
  O2-  O484  1  0.16139571  0.31946279  0.64035530  1
  O2-  O485  1  0.16513077  0.31014265  1.00226969  1
  O2-  O486  1  0.18424217  0.60508019  0.31199071  1
  O2-  O487  1  0.17183453  0.58504341  0.64618602  1
  O2-  O488  1  0.18930103  0.64280217  0.97358827  1
  O2-  O489  1  0.20106070  0.85096145  0.29945504  1
  O2-  O490  1  0.18235836  0.83316249  0.64864075  1
  O2-  O491  1  0.14942031  0.86767102  0.98009269  1
  O2-  O492  1  0.41989863  0.07852339  0.31845745  1
  O2-  O493  1  0.43035238  0.07683770  0.63442678  1
  O2-  O494  1  0.41444479  0.10002710  0.96801907  1
  O2-  O495  1  0.38781154  0.33134067  0.30070123  1
  O2-  O496  1  0.42280205  0.34017558  0.64279935  1
  O2-  O497  1  0.41152398  0.33182948  0.98226094  1
  O2-  O498  1  0.40742722  0.56722649  0.30664280  1
  O2-  O499  1  0.41699620  0.58106768  0.64881733  1
  O2-  O500  1  0.39426747  0.57660833  0.98362451  1
  O2-  O501  1  0.42378899  0.82860353  0.33700424  1
  O2-  O502  1  0.41497597  0.82092059  0.65389216  1
  O2-  O503  1  0.43717145  0.83310151  0.97660112  1
  O2-  O504  1  0.66458485  0.06991187  0.30487848  1
  O2-  O505  1  0.65497122  0.06492728  0.64356653  1
  O2-  O506  1  0.66481796  0.06844237  0.98822669  1
  O2-  O507  1  0.67523558  0.31789124  0.31760397  1
  O2-  O508  1  0.65999587  0.33657718  0.64003352  1
  O2-  O509  1  0.65189504  0.30465761  0.98470545  1
  O2-  O510  1  0.65996986  0.57898782  0.31048884  1
  O2-  O511  1  0.67087384  0.57866194  0.64600286  1
  O2-  O512  1  0.69419254  0.55922709  0.97794977  1
  O2-  O513  1  0.65420190  0.82320775  0.31867457  1
  O2-  O514  1  0.65646848  0.82882514  0.63721307  1
  O2-  O515  1  0.66727614  0.82415803  0.97941051  1
  O2-  O516  1  0.91380338  0.07392865  0.34514440  1
  O2-  O517  1  0.92174960  0.07129182  0.65119587  1
  O2-  O518  1  0.91796192  0.08276569  0.98357604  1
  O2-  O519  1  0.91922058  0.32616199  0.31188576  1
  O2-  O520  1  0.94606681  0.38003016  0.62826848  1
  O2-  O521  1  0.99288340  0.40518255  0.95451118  1
  O2-  O522  1  0.81356622  0.56507846  0.29152512  1
  O2-  O523  1  0.94542962  0.60657899  0.63228558  1
  O2-  O524  1  0.93761245  0.57928053  0.97863564  1
  O2-  O525  1  0.89121313  0.81113820  0.34426006  1
  O2-  O526  1  0.88071947  0.80214539  0.65647490  1
  O2-  O527  1  0.92201113  0.83085261  1.01440512  1
  O2-  O528  1  0.08652070  0.14547637  0.01976515  1
  O2-  O529  1  0.08230624  0.17569576  0.37072846  1
  O2-  O530  1  0.09087033  0.16660005  0.69168266  1
  O2-  O531  1  0.07294723  0.32256222  0.08065932  1
  O2-  O532  1  0.08635268  0.44021140  0.34737003  1
  O2-  O533  1  0.09503901  0.41857942  0.68219647  1
  O2-  O534  1  0.09243633  0.70525691  0.01980427  1
  O2-  O535  1  0.13142002  0.69830716  0.36722653  1
  O2-  O536  1  0.08893945  0.66847232  0.68204561  1
  O2-  O537  1  0.10080644  0.90610455  0.00648688  1
  O2-  O538  1  0.07705924  0.91116594  0.35102800  1
  O2-  O539  1  0.12004337  0.93846022  0.68771056  1
  O2-  O540  1  0.33314965  0.16560441  0.01859698  1
  O2-  O541  1  0.33177041  0.15810710  0.34536625  1
  O2-  O542  1  0.35569070  0.16907539  0.67452003  1
  O2-  O543  1  0.32021833  0.40149321  0.02890325  1
  O2-  O544  1  0.30832988  0.40790547  0.33766265  1
  O2-  O545  1  0.33150693  0.41410840  0.68680610  1
  O2-  O546  1  0.34133690  0.68566730  0.01778834  1
  O2-  O547  1  0.34042683  0.67272698  0.36118357  1
  O2-  O548  1  0.33194143  0.65821701  0.69476344  1
  O2-  O549  1  0.36650175  0.95469053  0.01420327  1
  O2-  O550  1  0.35114975  0.93235579  0.38697180  1
  O2-  O551  1  0.35071677  0.92199483  0.68829350  1
  O2-  O552  1  0.59288557  0.16028138  0.03660761  1
  O2-  O553  1  0.58298752  0.15416190  0.35356525  1
  O2-  O554  1  0.59302158  0.17083002  0.68091318  1
  O2-  O555  1  0.57659209  0.39566597  0.02211070  1
  O2-  O556  1  0.61022632  0.42272358  0.36734178  1
  O2-  O557  1  0.58199053  0.41714617  0.68844643  1
  O2-  O558  1  0.55837035  0.66868438  0.03605799  1
  O2-  O559  1  0.57183126  0.65633825  0.35582788  1
  O2-  O560  1  0.58496178  0.66698210  0.68284110  1
  O2-  O561  1  0.58988437  0.91142085  0.01727509  1
  O2-  O562  1  0.58259110  0.91054041  0.35898964  1
  O2-  O563  1  0.57866234  0.90642565  0.69138031  1
  O2-  O564  1  0.81842071  0.15855449  0.02031717  1
  O2-  O565  1  0.82434353  0.16983258  0.36262009  1
  O2-  O566  1  0.81247016  0.12038162  0.69393714  1
  O2-  O567  1  0.83855830  0.40304833  0.01756569  1
  O2-  O568  1  0.83425417  0.40360349  0.34759121  1
  O2-  O569  1  0.83356082  0.42388437  0.68143008  1
  O2-  O570  1  0.85498361  0.65820475  0.02396371  1
  O2-  O571  1  0.83503065  0.64038847  0.39626071  1
  O2-  O572  1  0.83301970  0.63811280  0.68558708  1
  O2-  O573  1  0.82829221  0.91381363  0.02433672  1
  O2-  O574  1  0.81856027  0.90750422  0.36936314  1
  O2-  O575  1  0.81152822  0.90675096  0.68363605  1
