# generated using pymatgen
data_H2O
_symmetry_space_group_name_H-M   'P 1'
_cell_length_a   18.00948402
_cell_length_b   18.00031987
_cell_length_c   21.98318964
_cell_angle_alpha   90.05334928
_cell_angle_beta   89.93644296
_cell_angle_gamma   120.03611367
_symmetry_Int_Tables_number   1
_chemical_formula_structural   H2O
_chemical_formula_sum   'H384 O192'
_cell_volume   6169.42041017
_cell_formula_units_Z   192
loop_
 _symmetry_equiv_pos_site_id
 _symmetry_equiv_pos_as_xyz
  1  'x, y, z'
loop_
 _atom_type_symbol
 _atom_type_oxidation_number
  H+  1.0
  O2-  -2.0
loop_
 _atom_site_type_symbol
 _atom_site_label
 _atom_site_symmetry_multiplicity
 _atom_site_fract_x
 _atom_site_fract_y
 _atom_site_fract_z
 _atom_site_occupancy
  H+  H0  1  0.35481462  0.22256353  0.46010301  1
  H+  H1  1  0.62000870  0.47230034  0.00983589  1
  H+  H2  1  0.87409061  0.90184997  0.34999590  1
  H+  H3  1  0.70726896  0.83675584  0.83437915  1
  H+  H4  1  0.42414688  0.92731934  1.03065743  1
  H+  H5  1  0.10731498  0.52492628  0.20422511  1
  H+  H6  1  0.61564321  0.63442956  0.99952216  1
  H+  H7  1  0.34878452  0.45687211  0.33662564  1
  H+  H8  1  0.27817065  0.39059923  0.67454311  1
  H+  H9  1  0.49302167  0.13725561  0.34805836  1
  H+  H10  1  0.85573164  0.47315739  0.66692218  1
  H+  H11  1  0.38614970  0.01587855  0.49481548  1
  H+  H12  1  0.63721965  0.26038746  0.64675686  1
  H+  H13  1  0.33884816  0.97145664  0.37476285  1
  H+  H14  1  0.86305254  0.71635983  0.49866034  1
  H+  H15  1  0.52498948  0.63015409  -0.00687088  1
  H+  H16  1  0.80851415  0.87741000  0.75691750  1
  H+  H17  1  0.10784803  0.23654995  0.34549929  1
  H+  H18  1  0.97678001  0.35499660  0.33528665  1
  H+  H19  1  1.01755595  0.38822594  0.17267672  1
  H+  H20  1  0.76935942  0.38157193  0.66534128  1
  H+  H21  1  0.15611758  0.11724773  0.84645079  1
  H+  H22  1  0.37122767  0.47288227  0.82017484  1
  H+  H23  1  0.08234332  0.41173307  0.44108469  1
  H+  H24  1  0.62320840  0.55740324  0.70378750  1
  H+  H25  1  0.86479919  1.00414049  0.00549072  1
  H+  H26  1  0.26539407  0.87817451  0.82983982  1
  H+  H27  1  0.05062795  0.17803407  0.72282377  1
  H+  H28  1  0.68897155  0.75639166  0.30982214  1
  H+  H29  1  0.60390182  0.87375830  0.82277773  1
  H+  H30  1  0.87927453  0.89747168  0.16705396  1
  H+  H31  1  1.02463031  0.37562479  0.50137118  1
  H+  H32  1  0.37401293  0.70547567  0.00745201  1
  H+  H33  1  0.89151551  0.53171579  0.19261154  1
  H+  H34  1  0.13185936  0.52426718  0.83535803  1
  H+  H35  1  0.81915607  0.68939546  0.75905535  1
  H+  H36  1  0.38672954  0.59533611  0.32767467  1
  H+  H37  1  0.22579722  0.38132456  0.17127432  1
  H+  H38  1  0.85068641  0.23361528  0.67653441  1
  H+  H39  1  0.60458838  0.39083813  0.49989851  1
  H+  H40  1  0.08003364  0.18619376  0.58794150  1
  H+  H41  1  0.11833672  0.23234610  0.16334701  1
  H+  H42  1  0.47493771  0.10452068  0.50141602  1
  H+  H43  1  0.46766511  0.59948912  0.83676330  1
  H+  H44  1  0.63570884  0.03203174  0.66734978  1
  H+  H45  1  0.49397639  0.83980607  0.98954905  1
  H+  H46  1  0.57431202  0.26443566  0.32501532  1
  H+  H47  1  0.79494363  0.75211540  0.79316257  1
  H+  H48  1  0.87184493  0.39226964  0.18027761  1
  H+  H49  1  0.59019153  0.71029552  0.48887086  1
  H+  H50  1  0.85029158  0.94712214  0.40360000  1
  H+  H51  1  0.46438055  0.10045128  0.99399352  1
  H+  H52  1  0.60208041  0.61238160  0.34438359  1
  H+  H53  1  0.23482115  0.12182905  0.18407954  1
  H+  H54  1  0.74722207  0.10163712  0.84976518  1
  H+  H55  1  0.35841216  0.21245066  0.65983006  1
  H+  H56  1  0.27136069  0.62995330  0.49142474  1
  H+  H57  1  0.48896780  0.36588619  0.83265964  1
  H+  H58  1  0.09053003  0.13671426  0.76206979  1
  H+  H59  1  0.27215082  0.88049576  0.67006523  1
  H+  H60  1  0.52871832  0.38549755  1.00584828  1
  H+  H61  1  0.86066524  0.22089414  0.34763237  1
  H+  H62  1  0.88340633  0.58403804  0.83319105  1
  H+  H63  1  0.08196286  0.16557163  0.07154567  1
  H+  H64  1  0.82853196  0.92396393  0.49847896  1
  H+  H65  1  0.80975290  0.68575625  0.64904199  1
  H+  H66  1  0.62535014  0.35012002  0.99402497  1
  H+  H67  1  0.97198206  0.61750619  0.65399627  1
  H+  H68  1  0.63189997  0.76340896  0.98737673  1
  H+  H69  1  0.12598769  0.49141989  0.01393787  1
  H+  H70  1  0.35902117  0.50570532  0.15150399  1
  H+  H71  1  0.37828212  0.86813102  0.17951764  1
  H+  H72  1  0.37615096  0.35406912  0.49309420  1
  H+  H73  1  0.39360079  0.35733250  -0.01029912  1
  H+  H74  1  0.70457370  0.33413065  0.98605376  1
  H+  H75  1  0.21812769  0.66996176  0.64171184  1
  H+  H76  1  0.89545393  0.03345313  0.17728405  1
  H+  H77  1  0.71945565  0.85627088  0.98619715  1
  H+  H78  1  0.10001572  0.63274539  0.67171359  1
  H+  H79  1  0.50604020  0.29574704  0.24754975  1
  H+  H80  1  0.74095701  0.66195113  0.32296052  1
  H+  H81  1  0.16292181  0.82081974  0.24277946  1
  H+  H82  1  0.51105664  0.89953149  0.34436752  1
  H+  H83  1  0.35563366  0.88093266  0.82907052  1
  H+  H84  1  0.59900795  0.71329358  0.83208236  1
  H+  H85  1  0.72680814  0.10143272  0.33032850  1
  H+  H86  1  0.82345558  0.49215746  1.02485344  1
  H+  H87  1  0.91466458  0.32867339  0.24362079  1
  H+  H88  1  0.89825800  0.36796848  0.33791069  1
  H+  H89  1  0.89427779  0.03212742  0.32727645  1
  H+  H90  1  0.36515195  0.38074271  0.24068205  1
  H+  H91  1  0.00835111  0.61878044  0.82321164  1
  H+  H92  1  0.13296322  0.76863064  0.65136550  1
  H+  H93  1  0.82897132  0.37237682  0.97342362  1
  H+  H94  1  0.82842375  0.35428507  0.00450439  1
  H+  H95  1  0.60659425  0.23407866  0.48497411  1
  H+  H96  1  0.51410330  0.89309895  0.16073837  1
  H+  H97  1  0.51084574  0.12696212  0.66304717  1
  H+  H98  1  0.86410523  0.43699461  0.50804871  1
  H+  H99  1  0.36194306  0.71828327  0.82499296  1
  H+  H100  1  0.86377010  0.22353315  0.00821886  1
  H+  H101  1  0.42643295  0.30491637  0.25723518  1
  H+  H102  1  0.52982109  0.37704992  0.17489088  1
  H+  H103  1  0.72805677  0.36137383  0.15977274  1
  H+  H104  1  0.86758089  0.74306576  0.34899097  1
  H+  H105  1  0.78303848  0.95856811  0.04739721  1
  H+  H106  1  0.14584435  0.74065431  0.32558337  1
  H+  H107  1  0.63425164  0.11296634  0.17687026  1
  H+  H108  1  0.87367232  0.19175195  0.49858993  1
  H+  H109  1  0.44474777  0.34885430  0.35050213  1
  H+  H110  1  0.61869611  0.45860881  0.77323854  1
  H+  H111  1  0.14688845  0.37343715  0.51038353  1
  H+  H112  1  0.37504370  0.34718988  0.64301456  1
  H+  H113  1  0.87411741  0.31093555  0.50795137  1
  H+  H114  1  0.12145352  0.25085530  0.64192965  1
  H+  H115  1  0.10525475  0.61013957  0.19087661  1
  H+  H116  1  0.37784602  0.77804425  0.49075091  1
  H+  H117  1  0.40031220  0.77526174  0.67086264  1
  H+  H118  1  0.11718659  0.26868830  0.80811708  1
  H+  H119  1  0.14677514  0.12265874  0.18222459  1
  H+  H120  1  0.90135839  0.69420594  0.01504245  1
  H+  H121  1  0.77055661  0.13660084  1.01274468  1
  H+  H122  1  0.63336586  1.01544634  0.00508873  1
  H+  H123  1  0.97967706  0.87762785  0.34486282  1
  H+  H124  1  0.27030421  0.63124650  0.82498713  1
  H+  H125  1  0.60783993  0.22259508  0.15042166  1
  H+  H126  1  0.10395372  0.63328131  0.81967970  1
  H+  H127  1  0.72422905  0.35763833  0.83716297  1
  H+  H128  1  0.75409787  0.59811682  0.68427603  1
  H+  H129  1  0.27743517  0.63087668  0.01626062  1
  H+  H130  1  0.16271891  0.58927264  0.89253323  1
  H+  H131  1  0.35565326  0.10229213  0.35218636  1
  H+  H132  1  0.12672573  0.83272556  0.49899314  1
  H+  H133  1  0.40458331  0.63481466  0.17813433  1
  H+  H134  1  0.10192771  0.98435842  0.36345624  1
  H+  H135  1  0.38479406  1.01502016  0.65382982  1
  H+  H136  1  0.38828579  0.22145155  0.17404359  1
  H+  H137  1  0.26099095  0.88245610  0.17341773  1
  H+  H138  1  0.61905693  0.96661743  0.83164651  1
  H+  H139  1  1.01045367  0.63181486  0.49744738  1
  H+  H140  1  0.12091542  0.87812663  0.66423582  1
  H+  H141  1  0.86125409  0.59403635  0.96043848  1
  H+  H142  1  0.13497166  0.24685363  0.49915980  1
  H+  H143  1  0.87932010  0.88711896  0.99799921  1
  H+  H144  1  0.59853367  0.11866397  0.00704300  1
  H+  H145  1  0.13120833  1.03067893  -0.00101669  1
  H+  H146  1  0.62775824  0.88019638  0.65902329  1
  H+  H147  1  0.90473840  0.78952224  0.18737222  1
  H+  H148  1  0.89270484  0.12569074  -0.00746544  1
  H+  H149  1  1.00098911  0.36278404  0.99228546  1
  H+  H150  1  0.74423890  0.13776688  0.67656592  1
  H+  H151  1  0.97020770  0.94717323  0.62041895  1
  H+  H152  1  0.98184506  0.12306102  0.33091444  1
  H+  H153  1  0.85223065  0.87528895  0.82097876  1
  H+  H154  1  -0.01189470  0.08455477  0.63388089  1
  H+  H155  1  0.12575342  -0.02039098  0.81865659  1
  H+  H156  1  0.28717569  0.38091391  0.01272652  1
  H+  H157  1  0.89946817  0.56261941  0.49737602  1
  H+  H158  1  0.86742954  0.06318612  0.49136512  1
  H+  H159  1  0.73495037  0.85446194  0.32913896  1
  H+  H160  1  0.14938247  0.13695591  0.49413385  1
  H+  H161  1  0.57101867  0.39533743  0.34853145  1
  H+  H162  1  0.49462294  0.34665960  0.64661762  1
  H+  H163  1  -0.03054237  0.11779760  0.82472417  1
  H+  H164  1  0.63682213  0.68171716  0.68296831  1
  H+  H165  1  0.09398133  0.59850189  0.29008695  1
  H+  H166  1  0.96263532  0.86287698  0.58750173  1
  H+  H167  1  0.08145449  0.71855674  0.00124815  1
  H+  H168  1  0.98406113  0.28377173  0.95344717  1
  H+  H169  1  0.72360270  0.38212994  0.49424318  1
  H+  H170  1  0.36620512  0.13558939  0.82011777  1
  H+  H171  1  0.09206848  0.88522687  0.00950365  1
  H+  H172  1  0.40252015  0.60548540  0.66545321  1
  H+  H173  1  0.71775367  0.60151110  0.16849748  1
  H+  H174  1  0.36432094  0.47683128  0.49101249  1
  H+  H175  1  0.11333455  0.14455438  1.00840431  1
  H+  H176  1  0.88124552  0.61317884  0.64853891  1
  H+  H177  1  0.89398684  0.49972009  0.34989020  1
  H+  H178  1  0.19125783  0.86149307  0.99492348  1
  H+  H179  1  0.88070153  0.79948977  1.00220916  1
  H+  H180  1  0.12250241  0.76328010  0.83673175  1
  H+  H181  1  0.16015126  0.33954676  0.26813615  1
  H+  H182  1  0.21929728  0.68550798  0.96193065  1
  H+  H183  1  0.46283480  0.57295520  0.33141645  1
  H+  H184  1  0.86241244  0.46950885  0.82883928  1
  H+  H185  1  0.13259040  0.37057001  0.17651817  1
  H+  H186  1  0.23395822  0.11548013  0.64121472  1
  H+  H187  1  0.62040232  0.15521731  0.48917838  1
  H+  H188  1  0.64438196  0.34674025  0.28704561  1
  H+  H189  1  0.74709555  0.42480009  0.07089087  1
  H+  H190  1  0.69014131  0.83565980  0.50570817  1
  H+  H191  1  0.62578545  0.39589966  0.82366045  1
  H+  H192  1  0.73847629  0.13234651  0.51003635  1
  H+  H193  1  0.60552049  0.97853134  0.15762340  1
  H+  H194  1  0.12294613  0.71242491  0.47988562  1
  H+  H195  1  0.42420114  0.92966661  -0.00346077  1
  H+  H196  1  0.59327068  0.20476260  1.00484153  1
  H+  H197  1  0.37805700  0.78743748  0.33503623  1
  H+  H198  1  0.60159365  0.47871198  0.50969961  1
  H+  H199  1  0.37777354  0.01715510  0.84141827  1
  H+  H200  1  0.10488651  0.73116624  0.16123398  1
  H+  H201  1  0.13031392  0.40634627  0.02776971  1
  H+  H202  1  0.11114306  0.14883269  0.35091248  1
  H+  H203  1  0.72380035  0.11401154  0.17499077  1
  H+  H204  1  0.60508628  0.22968620  0.82257688  1
  H+  H205  1  0.16898637  0.82592190  0.59056760  1
  H+  H206  1  -0.02829699  0.36381497  0.66351441  1
  H+  H207  1  0.47289381  0.85928949  0.83278787  1
  H+  H208  1  0.62957695  0.12041920  0.66611384  1
  H+  H209  1  -0.02650480  0.62502209  0.18032968  1
  H+  H210  1  0.13706234  0.60290838  0.50929383  1
  H+  H211  1  0.33842016  0.16380076  0.75803411  1
  H+  H212  1  0.62629260  0.52305650  0.18092615  1
  H+  H213  1  0.36138078  0.39215347  0.20842338  1
  H+  H214  1  0.03544715  0.90085739  0.65897101  1
  H+  H215  1  0.38494074  0.23996977  1.01311567  1
  H+  H216  1  0.23778804  0.12506374  0.47712390  1
  H+  H217  1  0.10896521  0.48521429  0.67356886  1
  H+  H218  1  0.55746836  0.41887723  0.41703407  1
  H+  H219  1  0.73879162  0.85889907  0.17600338  1
  H+  H220  1  0.90045163  0.79541162  0.84654078  1
  H+  H221  1  0.61094663  0.98254005  0.34179829  1
  H+  H222  1  0.86134628  0.65112639  0.34539747  1
  H+  H223  1  0.61896062  0.64240812  0.16573025  1
  H+  H224  1  0.60503433  0.62697069  0.83839601  1
  H+  H225  1  0.36032756  0.25208005  0.35232217  1
  H+  H226  1  0.62379861  0.60411332  0.52207715  1
  H+  H227  1  0.38099055  0.59316080  0.99277153  1
  H+  H228  1  0.13079827  0.85621997  0.83454945  1
  H+  H229  1  1.01474436  0.90281062  1.01759040  1
  H+  H230  1  0.97585020  0.62101618  0.32656735  1
  H+  H231  1  0.29203990  0.62621501  0.67299356  1
  H+  H232  1  0.24279090  0.11732211  0.83448252  1
  H+  H233  1  0.82043701  0.17404283  0.73940390  1
  H+  H234  1  0.86550679  0.14141004  0.16605837  1
  H+  H235  1  0.37707302  1.01573941  0.18735319  1
  H+  H236  1  0.64496727  0.52934665  0.84789490  1
  H+  H237  1  0.10206227  0.38721468  0.81852046  1
  H+  H238  1  0.11635727  0.40286619  0.34310150  1
  H+  H239  1  0.21471480  0.83669643  0.34371828  1
  H+  H240  1  0.92532907  0.09446824  0.23565049  1
  H+  H241  1  0.37881006  0.14254801  0.01283553  1
  H+  H242  1  0.50321777  0.88515603  0.48255723  1
  H+  H243  1  0.73577419  0.61773742  0.99901145  1
  H+  H244  1  0.87872388  0.36256652  0.84041584  1
  H+  H245  1  0.61379098  0.88385299  0.01473388  1
  H+  H246  1  0.60690977  0.78487875  0.66061790  1
  H+  H247  1  1.03265194  0.89724037  0.82299288  1
  H+  H248  1  0.82433258  0.40397242  0.76939938  1
  H+  H249  1  0.21712587  0.11675986  0.35165938  1
  H+  H250  1  0.13508403  0.86424966  0.18873990  1
  H+  H251  1  0.18630867  0.09837500  0.54856440  1
  H+  H252  1  -0.00708901  0.87843489  0.18353181  1
  H+  H253  1  0.03030946  0.14290637  0.16590917  1
  H+  H254  1  0.99903061  0.62360873  0.99786312  1
  H+  H255  1  0.53148316  0.65030772  0.16804620  1
  H+  H256  1  0.85106685  0.61622908  0.15869111  1
  H+  H257  1  0.37452657  0.46740151  -0.00239285  1
  H+  H258  1  0.38255463  0.38310691  0.81947979  1
  H+  H259  1  0.37632924  0.59660116  0.83406266  1
  H+  H260  1  0.23908462  0.37664663  0.50809834  1
  H+  H261  1  0.92758953  0.10116833  0.89149692  1
  H+  H262  1  0.81535975  0.66926938  0.43868397  1
  H+  H263  1  0.86739284  0.13608814  0.34102006  1
  H+  H264  1  0.37368195  0.86475138  0.47927862  1
  H+  H265  1  0.86130334  0.23519242  0.82718383  1
  H+  H266  1  0.60320454  0.14084994  0.81919607  1
  H+  H267  1  0.43232296  0.71764555  0.36320891  1
  H+  H268  1  0.62943984  0.34239897  0.64209789  1
  H+  H269  1  0.12855312  0.63138712  -0.00979215  1
  H+  H270  1  0.19175562  0.35370407  1.07797926  1
  H+  H271  1  0.72368616  0.62678828  0.84087799  1
  H+  H272  1  0.12251652  0.98791995  0.17112513  1
  H+  H273  1  0.22390964  0.85275840  0.48652028  1
  H+  H274  1  0.86891452  0.14912390  0.82285258  1
  H+  H275  1  0.37369872  0.73793363  0.16973787  1
  H+  H276  1  0.59017769  0.87697731  0.48478614  1
  H+  H277  1  0.21703731  0.36335537  0.32855157  1
  H+  H278  1  0.38865374  0.85804966  0.66888239  1
  H+  H279  1  0.89603171  -0.00025553  0.64414375  1
  H+  H280  1  0.09396672  0.47942365  0.36027007  1
  H+  H281  1  0.88392721  0.27291503  0.18155243  1
  H+  H282  1  0.46965316  0.60491404  0.50630119  1
  H+  H283  1  0.32408975  0.99080799  0.01479793  1
  H+  H284  1  0.46636787  0.10717640  0.84052051  1
  H+  H285  1  0.98303983  0.12662438  0.99422965  1
  H+  H286  1  0.36121951  0.63345443  0.49493086  1
  H+  H287  1  0.14569395  0.38327742  0.66230041  1
  H+  H288  1  0.92475352  0.85072808  0.28221965  1
  H+  H289  1  0.67214942  0.07131794  0.94550157  1
  H+  H290  1  0.46444642  0.35368425  0.49909502  1
  H+  H291  1  0.56495286  0.63169360  0.43980181  1
  H+  H292  1  0.40617995  0.56735430  0.92853475  1
  H+  H293  1  0.65648973  0.32563845  0.89343319  1
  H+  H294  1  0.37394292  0.47191311  0.67156123  1
  H+  H295  1  0.39948056  0.27478946  0.82903393  1
  H+  H296  1  0.90250019  0.55599535  0.91525904  1
  H+  H297  1  0.08292429  0.62124812  0.43112251  1
  H+  H298  1  0.17037387  0.08632217  0.93966840  1
  H+  H299  1  0.61983740  0.47124242  0.68170466  1
  H+  H300  1  0.79269226  0.56148801  0.10604572  1
  H+  H301  1  0.58727814  0.92878752  0.73341896  1
  H+  H302  1  0.24515432  0.97456515  0.05414488  1
  H+  H303  1  0.62576941  0.81912366  0.55888361  1
  H+  H304  1  0.35955301  0.17959359  0.08233863  1
  H+  H305  1  0.83490819  0.17045785  0.10702070  1
  H+  H306  1  0.53601421  0.33683273  0.70701760  1
  H+  H307  1  0.63667724  0.75025275  0.17287275  1
  H+  H308  1  0.17750956  0.59158743  0.59616595  1
  H+  H309  1  0.83362333  0.14638475  0.43532758  1
  H+  H310  1  0.32578769  0.91126525  0.73229652  1
  H+  H311  1  0.64275024  0.36623476  0.14829965  1
  H+  H312  1  0.48396664  0.76420970  0.94879354  1
  H+  H313  1  0.83804821  0.67520795  0.06941416  1
  H+  H314  1  0.34781653  0.66895649  0.40075120  1
  H+  H315  1  0.66718325  0.07427121  0.27094059  1
  H+  H316  1  0.42104455  0.81954541  0.89309600  1
  H+  H317  1  0.06399874  0.91399706  0.41721035  1
  H+  H318  1  0.32668734  0.41420708  0.43122805  1
  H+  H319  1  0.34235442  0.65464339  0.73575348  1
  H+  H320  1  0.57034883  0.91909269  0.41345407  1
  H+  H321  1  0.42333735  0.32277272  0.93176159  1
  H+  H322  1  0.71252807  0.60768814  0.51904063  1
  H+  H323  1  0.56426877  0.14645262  0.10475130  1
  H+  H324  1  0.56870528  0.17898251  0.39565215  1
  H+  H325  1  0.75449738  0.87662906  0.66361296  1
  H+  H326  1  0.41070890  0.84769586  0.24081741  1
  H+  H327  1  0.08139156  0.43377271  0.11676455  1
  H+  H328  1  0.86411441  0.45694671  0.43721081  1
  H+  H329  1  0.65466837  0.82216608  0.89723206  1
  H+  H330  1  0.57470119  0.91258737  0.07275220  1
  H+  H331  1  0.08734252  0.92675866  0.11165417  1
  H+  H332  1  0.73780990  0.02311822  0.88591375  1
  H+  H333  1  0.07136464  0.66414867  0.73086204  1
  H+  H334  1  0.84976664  0.92760529  0.10747984  1
  H+  H335  1  0.92792221  0.85697531  0.90444707  1
  H+  H336  1  0.31235233  0.92193008  0.11207406  1
  H+  H337  1  0.54277183  0.52161128  0.37246430  1
  H+  H338  1  0.56679907  0.16504669  0.72505172  1
  H+  H339  1  0.41462260  0.06961215  0.59069475  1
  H+  H340  1  0.08704218  0.18174166  0.44424163  1
  H+  H341  1  0.39415316  0.31234874  0.57935255  1
  H+  H342  1  0.52307195  0.89774215  0.67616331  1
  H+  H343  1  0.37350801  0.87200916  0.34866471  1
  H+  H344  1  0.14217766  0.82572634  0.93123494  1
  H+  H345  1  0.92200301  0.33531428  0.89605342  1
  H+  H346  1  0.68147472  0.11733265  0.56870590  1
  H+  H347  1  0.16700617  0.08981779  0.28763935  1
  H+  H348  1  0.91031352  0.59776688  0.27382817  1
  H+  H349  1  0.68297338  0.82420449  0.23907890  1
  H+  H350  1  0.84915289  0.44118600  0.12826772  1
  H+  H351  1  0.34050793  0.43751136  0.09898745  1
  H+  H352  1  0.42659060  0.58674573  0.23178517  1
  H+  H353  1  0.67211657  0.33551950  0.55459401  1
  H+  H354  1  0.97265120  0.50004432  0.37944780  1
  H+  H355  1  0.41304030  0.57399358  0.56650853  1
  H+  H356  1  0.93850542  0.61258372  0.56108822  1
  H+  H357  1  0.91772880  0.03443293  0.53597458  1
  H+  H358  1  0.57146611  0.41450403  0.10817125  1
  H+  H359  1  0.36726463  0.12698715  0.16699221  1
  H+  H360  1  0.48739289  0.59694852  0.66251769  1
  H+  H361  1  0.34656878  0.41127344  0.75440270  1
  H+  H362  1  0.15633373  0.13328892  0.63002772  1
  H+  H363  1  0.38115906  0.06786891  0.29164039  1
  H+  H364  1  0.91380573  0.31481573  0.57296848  1
  H+  H365  1  0.58399670  0.64506531  0.74548604  1
  H+  H366  1  0.34744088  0.67441140  0.11275433  1
  H+  H367  1  0.80266233  0.83108651  0.47060390  1
  H+  H368  1  0.88264648  0.36493115  0.66027973  1
  H+  H369  1  0.36160909  0.12498252  0.66272843  1
  H+  H370  1  0.14203703  0.28147893  1.02840197  1
  H+  H371  1  0.68125192  0.63085702  0.26273001  1
  H+  H372  1  0.07904545  0.42603176  0.73238248  1
  H+  H373  1  0.13602697  0.51346661  0.51278531  1
  H+  H374  1  0.46713669  0.10338183  0.18965437  1
  H+  H375  1  0.83966278  0.86931558  0.66069719  1
  H+  H376  1  0.01533481  0.39189833  0.82259445  1
  H+  H377  1  0.06807083  0.66907779  0.10187155  1
  H+  H378  1  0.40343960  0.08127707  0.93486801  1
  H+  H379  1  0.09067122  0.91058264  0.72841111  1
  H+  H380  1  0.18363978  0.36208743  0.60176106  1
  H+  H381  1  0.15072672  0.31211064  0.87190965  1
  H+  H382  1  0.33913035  0.36271673  0.34488860  1
  H+  H383  1  0.67746170  0.58370228  0.93976346  1
  O2-  O384  1  0.09066233  0.17098310  0.15003903  1
  O2-  O385  1  0.10168953  0.18439646  0.48847738  1
  O2-  O386  1  0.06000097  0.16855524  0.76539764  1
  O2-  O387  1  0.07962236  0.42457067  0.16113202  1
  O2-  O388  1  0.08466641  0.41203776  0.48695263  1
  O2-  O389  1  0.07604968  0.42323542  0.80723231  1
  O2-  O390  1  0.06903987  0.67036864  0.14683096  1
  O2-  O391  1  0.08478610  0.64822811  0.47604423  1
  O2-  O392  1  0.06902443  0.65917030  0.80648383  1
  O2-  O393  1  0.09026463  0.92657170  0.15696595  1
  O2-  O394  1  0.03950729  0.85972961  0.49518007  1
  O2-  O395  1  0.09018663  0.91961923  0.80336671  1
  O2-  O396  1  0.34987048  0.16864522  0.14959279  1
  O2-  O397  1  0.32013071  0.16077424  0.44748741  1
  O2-  O398  1  0.34079128  0.16995553  0.80367380  1
  O2-  O399  1  0.31327108  0.45193119  0.13210826  1
  O2-  O400  1  0.33242074  0.41544390  0.47696260  1
  O2-  O401  1  0.35034507  0.41246796  0.80225922  1
  O2-  O402  1  0.35156618  0.67721968  0.15740574  1
  O2-  O403  1  0.33119664  0.66161595  0.47582825  1
  O2-  O404  1  0.33181489  0.65659196  0.81212609  1
  O2-  O405  1  0.32084603  0.91637201  0.15584895  1
  O2-  O406  1  0.31869104  0.91200909  0.45521803  1
  O2-  O407  1  0.32591085  0.91197967  0.81508233  1
  O2-  O408  1  0.57239475  0.15872194  0.14900924  1
  O2-  O409  1  0.57997832  0.17305673  0.47254194  1
  O2-  O410  1  0.57046042  0.16829031  0.80741293  1
  O2-  O411  1  0.58281868  0.41929883  0.15255582  1
  O2-  O412  1  0.56967941  0.41864821  0.49116459  1
  O2-  O413  1  0.59686349  0.42976873  0.81334492  1
  O2-  O414  1  0.59437122  0.67992869  0.15403660  1
  O2-  O415  1  0.56590431  0.64708906  0.48354895  1
  O2-  O416  1  0.57200621  0.65169496  0.81806981  1
  O2-  O417  1  0.57092556  0.91983621  0.14019777  1
  O2-  O418  1  0.56699522  0.91382194  0.46951842  1
  O2-  O419  1  0.58054404  0.91173814  0.81040237  1
  O2-  O420  1  0.83355263  0.17065860  0.15220582  1
  O2-  O421  1  0.83304527  0.13579516  0.48048913  1
  O2-  O422  1  0.83173475  0.17444413  0.81074365  1
  O2-  O423  1  0.84352570  0.42746329  0.17197473  1
  O2-  O424  1  0.84013456  0.46035835  0.47920150  1
  O2-  O425  1  0.82383401  0.40321742  0.81447478  1
  O2-  O426  1  0.80673568  0.61465304  0.12935942  1
  O2-  O427  1  0.81100393  0.66564041  0.48375796  1
  O2-  O428  1  0.80922920  0.70585835  0.80005414  1
  O2-  O429  1  0.84629291  0.92519105  0.15220853  1
  O2-  O430  1  0.78761112  0.85968651  0.50174903  1
  O2-  O431  1  0.79725440  0.85165014  0.79859856  1
  O2-  O432  1  0.17498311  0.09129650  0.19910013  1
  O2-  O433  1  0.17943806  0.10082751  0.50175166  1
  O2-  O434  1  0.18320292  0.08259761  0.85249330  1
  O2-  O435  1  0.16555526  0.34022009  0.18499736  1
  O2-  O436  1  0.18049168  0.34787964  0.52819408  1
  O2-  O437  1  0.14619877  0.32460899  0.82979916  1
  O2-  O438  1  0.11919924  0.57995771  0.22248017  1
  O2-  O439  1  0.16890661  0.57511495  0.52627320  1
  O2-  O440  1  0.16510845  0.58634795  0.84764591  1
  O2-  O441  1  0.16138312  0.82828567  0.19715679  1
  O2-  O442  1  0.16779729  0.81328177  0.50933917  1
  O2-  O443  1  0.15572766  0.82318099  0.85341651  1
  O2-  O444  1  0.40640434  0.07610178  0.20323247  1
  O2-  O445  1  0.41735565  0.06844228  0.51994251  1
  O2-  O446  1  0.40644049  0.07819859  0.85623851  1
  O2-  O447  1  0.45974451  0.29752052  0.22350375  1
  O2-  O448  1  0.40047945  0.31658561  0.50482060  1
  O2-  O449  1  0.42758390  0.33461185  0.84618834  1
  O2-  O450  1  0.43434909  0.60013137  0.18748222  1
  O2-  O451  1  0.40809058  0.57597716  0.52164898  1
  O2-  O452  1  0.40513273  0.56392240  0.84791555  1
  O2-  O453  1  0.41253045  0.84309712  0.19595346  1
  O2-  O454  1  0.40777160  0.84035705  0.49854160  1
  O2-  O455  1  0.41305680  0.82580589  0.84901108  1
  O2-  O456  1  0.66355278  0.08109649  0.18975674  1
  O2-  O457  1  0.69687224  0.14616427  0.52905299  1
  O2-  O458  1  0.70452228  0.05012259  0.87404389  1
  O2-  O459  1  0.67352440  0.33525980  0.13642318  1
  O2-  O460  1  0.66545339  0.34352119  0.51037038  1
  O2-  O461  1  0.66083512  0.32928691  0.84819418  1
  O2-  O462  1  0.66253366  0.58588658  0.18936932  1
  O2-  O463  1  0.65424686  0.57497054  0.53775103  1
  O2-  O464  1  0.66880574  0.58939044  0.86319422  1
  O2-  O465  1  0.67946288  0.82513877  0.19227517  1
  O2-  O466  1  0.62705498  0.81413776  0.51418713  1
  O2-  O467  1  0.64874294  0.81676366  0.85160760  1
  O2-  O468  1  0.92491147  0.09486495  0.18970299  1
  O2-  O469  1  0.89182653  0.02426268  0.49504027  1
  O2-  O470  1  0.91546816  0.09751727  0.84719249  1
  O2-  O471  1  0.91537810  0.33292484  0.19803398  1
  O2-  O472  1  0.91980212  0.30660144  0.52830759  1
  O2-  O473  1  0.91437312  0.33476123  0.85128188  1
  O2-  O474  1  0.91414876  0.59480246  0.19862912  1
  O2-  O475  1  0.94572596  0.61898033  0.51500251  1
  O2-  O476  1  0.91361902  0.55568170  0.84965047  1
  O2-  O477  1  0.93119482  0.84982200  0.19859067  1
  O2-  O478  1  0.96563536  0.81979468  0.52382105  1
  O2-  O479  1  0.93448397  0.85608509  0.85948456  1
  O2-  O480  1  0.15818983  0.09044640  0.33200487  1
  O2-  O481  1  0.18004770  0.09666402  0.61769948  1
  O2-  O482  1  0.16052133  0.09029880  0.98325854  1
  O2-  O483  1  0.15654091  0.34042710  0.31329502  1
  O2-  O484  1  0.17918478  0.35610856  0.64774790  1
  O2-  O485  1  0.17833904  0.34568140  1.03436266  1
  O2-  O486  1  0.07374101  0.56962097  0.37946962  1
  O2-  O487  1  0.18500498  0.60724799  0.64168234  1
  O2-  O488  1  0.17787452  0.62612678  0.97253239  1
  O2-  O489  1  0.16822578  0.80143275  0.31497757  1
  O2-  O490  1  0.16618573  0.82889654  0.63609770  1
  O2-  O491  1  0.13375817  0.82409674  0.97649599  1
  O2-  O492  1  0.38194677  0.06744975  0.33650785  1
  O2-  O493  1  0.41474583  0.07466199  0.63743901  1
  O2-  O494  1  0.40388772  0.08249795  0.98057354  1
  O2-  O495  1  0.38813295  0.31037266  0.33023309  1
  O2-  O496  1  0.39863453  0.31251855  0.62543502  1
  O2-  O497  1  0.42472266  0.32523529  0.97687734  1
  O2-  O498  1  0.40819565  0.55855072  0.30979684  1
  O2-  O499  1  0.42744735  0.57117066  0.64773409  1
  O2-  O500  1  0.41359867  0.56786850  0.97342128  1
  O2-  O501  1  0.40442153  0.84886013  0.32412570  1
  O2-  O502  1  0.42794395  0.83602009  0.65876403  1
  O2-  O503  1  0.45066795  0.78972113  0.96378669  1
  O2-  O504  1  0.66652513  0.07003209  0.31598056  1
  O2-  O505  1  0.66790046  0.09537216  0.65542205  1
  O2-  O506  1  0.66404219  0.07675074  0.98966506  1
  O2-  O507  1  0.58608143  0.32086973  0.30260985  1
  O2-  O508  1  0.66975524  0.32124922  0.63236367  1
  O2-  O509  1  0.64482186  0.31200515  0.97409319  1
  O2-  O510  1  0.68945322  0.65938407  0.30289243  1
  O2-  O511  1  0.65349341  0.52392809  0.70687453  1
  O2-  O512  1  0.67646113  0.57922100  0.98526455  1
  O2-  O513  1  0.68371777  0.80881919  0.30841476  1
  O2-  O514  1  0.64850326  0.84031246  0.64333233  1
  O2-  O515  1  0.65893734  0.82663982  0.97367935  1
  O2-  O516  1  0.92364464  0.09241433  0.31119504  1
  O2-  O517  1  0.94625972  0.02843592  0.61673249  1
  O2-  O518  1  0.92426982  0.09783336  0.97509431  1
  O2-  O519  1  0.91597322  0.32787102  0.32098197  1
  O2-  O520  1  0.91102506  0.33062949  0.64889278  1
  O2-  O521  1  0.95519885  0.31397143  0.96813700  1
  O2-  O522  1  0.91361781  0.59794353  0.31946573  1
  O2-  O523  1  0.91529187  0.58758781  0.63255465  1
  O2-  O524  1  0.89224307  0.56245560  0.96305506  1
  O2-  O525  1  0.91837526  0.84764991  0.32695302  1
  O2-  O526  1  0.96469365  0.88985748  0.62876416  1
  O2-  O527  1  0.91138490  0.85888518  0.98513519  1
  O2-  O528  1  0.08263496  0.17366905  0.02626357  1
  O2-  O529  1  0.07916023  0.17835301  0.36465874  1
  O2-  O530  1  0.08854383  0.18722319  0.63217598  1
  O2-  O531  1  0.09332222  0.43350852  0.03073394  1
  O2-  O532  1  0.07809952  0.41850340  0.36607658  1
  O2-  O533  1  0.08043507  0.42491872  0.68631946  1
  O2-  O534  1  0.05740874  0.65810335  0.01601813  1
  O2-  O535  1  0.07912072  0.62349135  0.32666921  1
  O2-  O536  1  0.07284399  0.66613275  0.68465360  1
  O2-  O537  1  0.07479934  0.92319342  0.03094658  1
  O2-  O538  1  0.06834516  0.92215105  0.37286413  1
  O2-  O539  1  0.09415106  0.91181661  0.68237028  1
  O2-  O540  1  0.35906945  0.18089003  0.03424553  1
  O2-  O541  1  0.31506854  0.16054733  0.37990886  1
  O2-  O542  1  0.33166852  0.15504847  0.67988320  1
  O2-  O543  1  0.35059215  0.40802345  0.01491608  1
  O2-  O544  1  0.31355028  0.39984101  0.35696786  1
  O2-  O545  1  0.33923023  0.41068924  0.68701185  1
  O2-  O546  1  0.33682164  0.64909710  0.02789178  1
  O2-  O547  1  0.37065154  0.68168512  0.35770506  1
  O2-  O548  1  0.35038872  0.65582887  0.69043744  1
  O2-  O549  1  0.27454935  0.94541705  0.03842698  1
  O2-  O550  1  0.31416472  0.90966633  0.38726999  1
  O2-  O551  1  0.33106752  0.91107535  0.68723450  1
  O2-  O552  1  0.56308263  0.14465010  0.02004612  1
  O2-  O553  1  0.55483176  0.18068012  0.35190291  1
  O2-  O554  1  0.57175561  0.16130541  0.68032194  1
  O2-  O555  1  0.58722556  0.41131368  0.02400790  1
  O2-  O556  1  0.54347885  0.42154713  0.37298769  1
  O2-  O557  1  0.55191591  0.36420824  0.66715513  1
  O2-  O558  1  0.58595490  0.66775537  0.00446362  1
  O2-  O559  1  0.54841699  0.57942794  0.36960397  1
  O2-  O560  1  0.58749710  0.63180752  0.70080783  1
  O2-  O561  1  0.58049483  0.91230618  0.02530374  1
  O2-  O562  1  0.57082633  0.92124072  0.35946290  1
  O2-  O563  1  0.58684152  0.93383420  0.68807704  1
  O2-  O564  1  0.83224578  0.16505062  0.02571406  1
  O2-  O565  1  0.83321280  0.15976604  0.36064823  1
  O2-  O566  1  0.81412071  0.17321537  0.69307167  1
  O2-  O567  1  0.80008148  0.48068217  0.06683290  1
  O2-  O568  1  0.90719542  0.46150702  0.37511796  1
  O2-  O569  1  0.82846099  0.41379435  0.68316520  1
  O2-  O570  1  0.85007715  0.69676646  0.02577965  1
  O2-  O571  1  0.82992141  0.68072975  0.35901870  1
  O2-  O572  1  0.81371493  0.64881663  0.67980898  1
  O2-  O573  1  0.82415895  0.94723947  0.02628703  1
  O2-  O574  1  0.84279075  0.93425524  0.36006862  1
  O2-  O575  1  0.81367514  0.89978676  0.68053021  1
