# generated using pymatgen
data_H2O
_symmetry_space_group_name_H-M   'P 1'
_cell_length_a   17.91234988
_cell_length_b   17.89979333
_cell_length_c   21.90008799
_cell_angle_alpha   89.94107762
_cell_angle_beta   89.99711991
_cell_angle_gamma   119.95443550
_symmetry_Int_Tables_number   1
_chemical_formula_structural   H2O
_chemical_formula_sum   'H384 O192'
_cell_volume   6083.81456698
_cell_formula_units_Z   192
loop_
 _symmetry_equiv_pos_site_id
 _symmetry_equiv_pos_as_xyz
  1  'x, y, z'
loop_
 _atom_type_symbol
 _atom_type_oxidation_number
  H+  1.0
  O2-  -2.0
loop_
 _atom_site_type_symbol
 _atom_site_label
 _atom_site_symmetry_multiplicity
 _atom_site_fract_x
 _atom_site_fract_y
 _atom_site_fract_z
 _atom_site_occupancy
  H+  H0  1  0.63890807  0.78040986  0.65517903  1
  H+  H1  1  0.15031400  0.87429334  0.64629665  1
  H+  H2  1  0.22448432  0.11307220  0.86089086  1
  H+  H3  1  0.28091680  0.12128911  0.68068654  1
  H+  H4  1  0.82795346  0.40033327  0.07625425  1
  H+  H5  1  0.03247770  0.87544401  0.48557726  1
  H+  H6  1  0.23123857  0.09011238  0.51646577  1
  H+  H7  1  0.36996055  0.22531683  0.04499080  1
  H+  H8  1  0.15218408  0.32547528  0.65263443  1
  H+  H9  1  0.62564061  0.37636592  0.82649884  1
  H+  H10  1  0.14256545  0.84734111  0.49761647  1
  H+  H11  1  0.13318910  0.98212468  0.03401720  1
  H+  H12  1  0.21083814  0.35210027  0.47504387  1
  H+  H13  1  0.42592742  0.33811902  1.11508750  1
  H+  H14  1  0.35244328  0.47043244  0.02883038  1
  H+  H15  1  0.86347537  0.63966085  0.82762799  1
  H+  H16  1  0.19144399  0.36340562  0.21217873  1
  H+  H17  1  0.75516334  0.39206219  0.46709411  1
  H+  H18  1  0.10823078  0.72271931  0.82974960  1
  H+  H19  1  0.34851831  0.37404819  0.52119573  1
  H+  H20  1  0.13880219  0.79545282  0.14563895  1
  H+  H21  1  0.65371261  0.30362881  0.63272566  1
  H+  H22  1  0.61354602  0.64876554  0.50222266  1
  H+  H23  1  0.14042232  0.27717979  0.83376243  1
  H+  H24  1  0.82449184  0.16432737  0.42334067  1
  H+  H25  1  0.38473330  0.61126758  0.50749902  1
  H+  H26  1  0.21904133  0.60636329  0.99341907  1
  H+  H27  1  0.52538429  0.37815407  0.04603802  1
  H+  H28  1  0.27512406  0.53923439  0.92567319  1
  H+  H29  1  0.41947924  0.82551766  0.89837580  1
  H+  H30  1  0.11230945  0.10380999  0.68489090  1
  H+  H31  1  0.87401276  0.36697315  1.00003535  1
  H+  H32  1  0.74457393  0.87630931  0.32333299  1
  H+  H33  1  0.83089739  0.67290082  0.06149093  1
  H+  H34  1  0.62264375  0.77253469  0.51290748  1
  H+  H35  1  0.44043957  0.36274920  0.32522661  1
  H+  H36  1  0.71594905  0.11052487  0.49707784  1
  H+  H37  1  0.86262472  0.22257680  0.00213946  1
  H+  H38  1  0.35570552  0.12958174  0.31567883  1
  H+  H39  1  0.74210280  0.75554920  0.96067014  1
  H+  H40  1  0.85290387  0.13972670  0.48720012  1
  H+  H41  1  0.87606625  1.00156585  0.84702966  1
  H+  H42  1  0.13513401  0.26073114  0.99583001  1
  H+  H43  1  0.01041583  0.47093738  0.45349040  1
  H+  H44  1  0.36002856  0.22133514  0.48944784  1
  H+  H45  1  0.63017197  0.35073937  1.00467978  1
  H+  H46  1  0.11009885  0.12669683  0.03052318  1
  H+  H47  1  0.29235887  0.99137628  0.63789239  1
  H+  H48  1  0.05047733  0.65660888  0.32208204  1
  H+  H49  1  0.04689681  0.87707955  0.17409678  1
  H+  H50  1  0.35096415  0.60532774  0.67352584  1
  H+  H51  1  0.65513058  0.33531329  0.40369118  1
  H+  H52  1  0.35950612  0.12500085  0.83652387  1
  H+  H53  1  0.87719358  0.73944905  0.66728809  1
  H+  H54  1  0.39836951  0.36090695  0.67057552  1
  H+  H55  1  0.28695663  0.58230392  0.91254306  1
  H+  H56  1  0.03378037  0.89053061  0.80310710  1
  H+  H57  1  0.50873540  0.61749145  0.33949655  1
  H+  H58  1  0.72030582  0.85825969  0.17144276  1
  H+  H59  1  0.90896749  1.00881373  0.48490535  1
  H+  H60  1  0.16925205  0.25027599  0.33371264  1
  H+  H61  1  1.04515319  0.41860810  0.89524917  1
  H+  H62  1  0.10753511  0.63135512  0.99536421  1
  H+  H63  1  0.11856346  0.88468118  0.80838040  1
  H+  H64  1  0.01798612  0.63242834  0.82735588  1
  H+  H65  1  0.37864174  0.86625737  0.17800792  1
  H+  H66  1  1.03586152  0.44836693  0.45980478  1
  H+  H67  1  0.91352317  0.52303253  0.16874258  1
  H+  H68  1  0.75209767  0.10103956  0.83579671  1
  H+  H69  1  0.36998071  0.88344553  0.49716662  1
  H+  H70  1  0.38396492  0.71560583  0.33754997  1
  H+  H71  1  0.61258734  0.22019773  0.84335530  1
  H+  H72  1  0.07191537  0.35362592  0.18362494  1
  H+  H73  1  0.90554870  0.53905765  0.32092472  1
  H+  H74  1  0.01721518  0.39778503  0.66985468  1
  H+  H75  1  0.62184513  0.09307592  0.84478147  1
  H+  H76  1  0.79250869  0.64135000  0.15875741  1
  H+  H77  1  0.97460384  0.10594303  1.00292798  1
  H+  H78  1  0.27541662  0.90164823  0.15578761  1
  H+  H79  1  0.62979354  0.86990147  0.50621325  1
  H+  H80  1  0.70277315  0.09415118  0.17444815  1
  H+  H81  1  0.27016849  0.13387964  0.32419927  1
  H+  H82  1  0.39688860  0.27067308  0.67121485  1
  H+  H83  1  0.28439842  -0.00723892  0.60456115  1
  H+  H84  1  0.52003280  0.87261992  0.67823598  1
  H+  H85  1  0.14845647  0.25059097  0.69190003  1
  H+  H86  1  0.86535580  0.96760989  0.00966191  1
  H+  H87  1  0.46566855  0.43117581  0.19775150  1
  H+  H88  1  0.13457852  0.43920439  0.34635543  1
  H+  H89  1  0.64808352  0.39281885  0.65129097  1
  H+  H90  1  0.23325481  0.61022802  0.21225564  1
  H+  H91  1  0.71047689  0.28398765  0.88195175  1
  H+  H92  1  0.62175795  0.48756154  0.67499447  1
  H+  H93  1  0.70053484  0.20517574  0.37654621  1
  H+  H94  1  0.72174567  0.10859030  0.99496892  1
  H+  H95  1  0.83534773  0.38230436  0.48995248  1
  H+  H96  1  0.89983766  1.03843533  0.65467963  1
  H+  H97  1  0.39370236  0.76948751  0.50316491  1
  H+  H98  1  0.75100527  0.37497323  0.82788803  1
  H+  H99  1  0.36638162  0.21718992  0.83229585  1
  H+  H100  1  0.49666321  0.57172803  0.18858490  1
  H+  H101  1  0.02449072  0.14051871  0.83210566  1
  H+  H102  1  0.99937660  0.87618723  0.64835211  1
  H+  H103  1  0.39709240  0.52496239  0.84840274  1
  H+  H104  1  0.38547429  0.35978829  1.05774382  1
  H+  H105  1  0.65280620  0.24685373  0.34239746  1
  H+  H106  1  0.86464224  0.78648889  0.01583172  1
  H+  H107  1  0.15810809  0.67946773  0.13929841  1
  H+  H108  1  0.88631586  0.10904932  0.99801684  1
  H+  H109  1  0.13971468  0.38526867  0.53528837  1
  H+  H110  1  0.15490954  0.40335761  0.81106955  1
  H+  H111  1  0.97749687  0.13179192  0.30774639  1
  H+  H112  1  0.28362426  0.63884759  0.82774926  1
  H+  H113  1  0.28239087  0.63632957  0.49181153  1
  H+  H114  1  0.64137680  0.84775420  0.84191787  1
  H+  H115  1  0.87831062  0.64611512  0.33937086  1
  H+  H116  1  0.89073426  0.77661125  0.83739381  1
  H+  H117  1  0.03444944  0.89752351  0.33350383  1
  H+  H118  1  0.81819978  0.42018255  0.73096921  1
  H+  H119  1  0.13635084  0.77545584  0.98670619  1
  H+  H120  1  0.89550134  0.95939128  0.42134490  1
  H+  H121  1  0.11929404  0.27105310  0.46247329  1
  H+  H122  1  0.28652007  0.39578834  0.55902928  1
  H+  H123  1  0.63302887  0.10835073  0.64768115  1
  H+  H124  1  0.36726223  0.87826080  0.34364301  1
  H+  H125  1  0.33286595  0.16472661  0.42754986  1
  H+  H126  1  0.62733671  0.11117469  0.50246011  1
  H+  H127  1  0.89259181  0.33736247  0.25734793  1
  H+  H128  1  0.77914863  0.88548723  0.83133405  1
  H+  H129  1  0.48083376  0.85414071  0.83923055  1
  H+  H130  1  0.88371924  0.12163895  0.31405604  1
  H+  H131  1  0.13139190  0.54009556  0.65890396  1
  H+  H132  1  0.87807347  0.36993509  0.66207898  1
  H+  H133  1  0.54505354  0.17551234  0.64225678  1
  H+  H134  1  0.37389126  0.72657384  0.82469029  1
  H+  H135  1  0.11258874  0.94589067  0.71797605  1
  H+  H136  1  0.59826742  0.60950199  0.01490302  1
  H+  H137  1  0.63205653  0.10736703  1.00388122  1
  H+  H138  1  0.63665310  0.74787269  0.34561673  1
  H+  H139  1  0.48159929  0.85920696  0.50398055  1
  H+  H140  1  0.89652725  0.77723817  0.32613437  1
  H+  H141  1  0.13061792  0.60841483  0.83357321  1
  H+  H142  1  0.38653499  1.02785957  0.18469513  1
  H+  H143  1  0.45832158  0.84954056  0.17477801  1
  H+  H144  1  0.38507397  0.76938862  -0.00384178  1
  H+  H145  1  0.30566546  0.35753461  0.17837284  1
  H+  H146  1  0.14723916  -0.00324865  0.51271037  1
  H+  H147  1  0.92110701  0.13483599  0.66176822  1
  H+  H148  1  0.62070139  0.28066500  0.46457048  1
  H+  H149  1  0.53370066  0.65023584  0.66953582  1
  H+  H150  1  0.04239839  0.37582207  0.88948714  1
  H+  H151  1  0.59628328  -0.03822453  0.17169932  1
  H+  H152  1  0.47543496  0.85807786  -0.00384141  1
  H+  H153  1  0.30638077  0.08225940  0.16705187  1
  H+  H154  1  0.47031199  0.60509695  1.01002559  1
  H+  H155  1  0.84991164  0.16680271  0.73848362  1
  H+  H156  1  0.36339437  0.88351768  1.00588322  1
  H+  H157  1  0.48464216  0.85696269  0.32763989  1
  H+  H158  1  0.61672145  0.61934055  0.84334738  1
  H+  H159  1  0.28330353  0.37837666  0.69071929  1
  H+  H160  1  0.63150175  0.86799624  0.65903407  1
  H+  H161  1  0.66095969  0.63652443  0.33199753  1
  H+  H162  1  0.86467974  0.49073139  0.67607473  1
  H+  H163  1  0.57261315  0.50179091  0.33956004  1
  H+  H164  1  0.76208005  0.12046771  0.32683160  1
  H+  H165  1  0.30820109  0.66961503  0.06919102  1
  H+  H166  1  0.64060427  0.51338224  0.84439948  1
  H+  H167  1  0.43579279  0.10727959  0.59088210  1
  H+  H168  1  0.85787031  0.52016230  0.51289650  1
  H+  H169  1  0.36195375  0.87869036  0.83023037  1
  H+  H170  1  0.60206251  0.41379844  0.76714982  1
  H+  H171  1  0.61295020  0.97663248  0.01312437  1
  H+  H172  1  0.29227444  0.90053939  0.33701258  1
  H+  H173  1  0.46466482  0.36191172  0.50812909  1
  H+  H174  1  0.39093128  0.52123493  0.66322709  1
  H+  H175  1  0.06022660  0.90365957  0.07102626  1
  H+  H176  1  0.87695115  0.37033078  0.32054556  1
  H+  H177  1  0.88117788  0.64077260  0.14814133  1
  H+  H178  1  0.86263636  0.88913369  0.16183935  1
  H+  H179  1  0.46915375  0.10182644  0.85001507  1
  H+  H180  1  0.38820744  1.02309424  0.00164249  1
  H+  H181  1  0.61589179  0.71339302  0.16849595  1
  H+  H182  1  0.74422913  0.39570545  0.65166321  1
  H+  H183  1  0.73279680  0.62401553  0.66080114  1
  H+  H184  1  0.97781466  0.62058748  0.66629133  1
  H+  H185  1  0.87449235  0.51915258  -0.00141186  1
  H+  H186  1  0.38939850  0.02060701  0.50305486  1
  H+  H187  1  0.37940473  0.51901657  0.51715396  1
  H+  H188  1  0.10649716  0.41976815  0.63931060  1
  H+  H189  1  0.78627938  0.64177340  0.34082577  1
  H+  H190  1  0.26808680  0.37825682  0.02086927  1
  H+  H191  1  0.75203003  0.83809130  0.98881117  1
  H+  H192  1  0.93405494  0.59635577  0.26060484  1
  H+  H193  1  0.15018393  0.49976164  0.81113139  1
  H+  H194  1  0.77606271  0.64114804  0.83152145  1
  H+  H195  1  0.92956034  0.32762912  0.84556813  1
  H+  H196  1  0.13241885  0.51618297  0.99709644  1
  H+  H197  1  0.13313451  0.34749250  -0.00202287  1
  H+  H198  1  0.39628815  0.49436946  0.19376120  1
  H+  H199  1  0.78907905  0.37164867  0.17468134  1
  H+  H200  1  0.61288548  -0.04221162  0.83199882  1
  H+  H201  1  0.12759010  0.90664457  0.32803493  1
  H+  H202  1  0.65716647  0.26944940  0.18766434  1
  H+  H203  1  0.62742122  0.85153933  0.17598636  1
  H+  H204  1  0.15865848  0.88810619  0.12117485  1
  H+  H205  1  0.84870555  0.13913223  0.15361920  1
  H+  H206  1  0.58873707  0.39699543  0.45983722  1
  H+  H207  1  0.14131502  0.12635385  0.30581169  1
  H+  H208  1  0.71978122  0.62100065  0.50307408  1
  H+  H209  1  0.62242565  0.71839368  0.83438741  1
  H+  H210  1  0.22883087  0.12083828  1.01519830  1
  H+  H211  1  0.87483788  0.60795578  0.99171811  1
  H+  H212  1  0.03297746  0.12144341  0.67554259  1
  H+  H213  1  0.15360999  0.60794069  0.49954062  1
  H+  H214  1  0.62150509  0.88519104  0.34063321  1
  H+  H215  1  0.58743741  0.90209838  0.77042646  1
  H+  H216  1  0.62492054  0.49946805  0.00602639  1
  H+  H217  1  0.61506714  0.88903524  0.01619177  1
  H+  H218  1  0.87876478  -0.01135045  0.32612582  1
  H+  H219  1  0.14083802  0.12106611  0.86095480  1
  H+  H220  1  -0.00166343  0.61570885  0.16350771  1
  H+  H221  1  0.15591615  0.55734644  0.29851325  1
  H+  H222  1  0.58990318  0.16738658  0.43246445  1
  H+  H223  1  0.37640048  0.25814735  0.31658939  1
  H+  H224  1  0.43200259  0.34170195  0.22957824  1
  H+  H225  1  0.28653618  0.38774306  0.83419816  1
  H+  H226  1  0.78048695  0.40387800  0.33518511  1
  H+  H227  1  0.14252683  0.86638178  0.99685865  1
  H+  H228  1  0.77409253  0.90668391  0.67158119  1
  H+  H229  1  0.07666458  0.39743950  0.07719501  1
  H+  H230  1  0.09922305  0.13590126  0.12742161  1
  H+  H231  1  0.61260421  0.21887322  0.02044917  1
  H+  H232  1  0.94097282  0.35299715  0.50457756  1
  H+  H233  1  0.85780039  0.26119879  0.50224545  1
  H+  H234  1  0.88889564  0.78076261  0.49822998  1
  H+  H235  1  0.66002638  0.61445542  0.17586402  1
  H+  H236  1  0.41353447  0.13795639  0.65489958  1
  H+  H237  1  0.38323174  0.62473630  0.34167035  1
  H+  H238  1  0.61813846  0.70458786  0.00950260  1
  H+  H239  1  0.22335509  0.85512019  0.83670650  1
  H+  H240  1  0.85045204  0.21992970  0.32825385  1
  H+  H241  1  0.87301693  0.51817485  0.83738082  1
  H+  H242  1  0.49312025  0.36022874  0.83844267  1
  H+  H243  1  0.65439396  0.39072517  0.17764268  1
  H+  H244  1  0.87982460  0.89912863  0.33150172  1
  H+  H245  1  1.13265499  0.71507911  0.48152762  1
  H+  H246  1  0.67301460  0.53154902  0.18209593  1
  H+  H247  1  0.38659075  0.83041446  0.66676161  1
  H+  H248  1  0.26578599  0.85254201  0.67436928  1
  H+  H249  1  0.10507988  0.23582252  0.28157742  1
  H+  H250  1  0.16647644  0.08976310  0.95751348  1
  H+  H251  1  0.53489589  0.39204717  0.67510524  1
  H+  H252  1  0.01897441  0.63382805  -0.00181107  1
  H+  H253  1  0.85732592  0.97605341  0.15729300  1
  H+  H254  1  0.76098552  0.37280891  1.01876214  1
  H+  H255  1  0.18586299  0.08685145  0.15247275  1
  H+  H256  1  0.88863641  0.62278719  0.66806295  1
  H+  H257  1  0.88461164  0.24017085  0.68674682  1
  H+  H258  1  0.14457955  0.66742491  0.31257705  1
  H+  H259  1  0.52622002  0.14596109  0.17965135  1
  H+  H260  1  0.64262551  0.36032253  0.31577527  1
  H+  H261  1  0.25530208  0.62476117  0.31149842  1
  H+  H262  1  0.14271637  0.63456451  0.66593260  1
  H+  H263  1  0.60481196  0.12726134  0.17793618  1
  H+  H264  1  0.69276361  0.33109039  0.24877451  1
  H+  H265  1  0.92127934  0.88367091  0.49448520  1
  H+  H266  1  0.37696854  0.38888903  0.83695096  1
  H+  H267  1  0.13673273  1.03406231  0.31276244  1
  H+  H268  1  0.61249913  0.97594377  0.48818650  1
  H+  H269  1  0.83602289  0.19283468  0.83950335  1
  H+  H270  1  0.35328077  0.63335052  0.02273483  1
  H+  H271  1  0.86872294  0.09661736  0.85046711  1
  H+  H272  1  0.65754332  0.56249928  0.90890588  1
  H+  H273  1  0.37107873  0.14131859  0.01609584  1
  H+  H274  1  0.15958565  0.38362193  0.38845473  1
  H+  H275  1  0.60528060  0.96773500  0.67719763  1
  H+  H276  1  0.96250482  0.11360001  0.15046060  1
  H+  H277  1  0.83881343  0.37860238  0.82117150  1
  H+  H278  1  0.51862364  0.13813732  0.48748503  1
  H+  H279  1  0.52304184  0.62700405  0.84170310  1
  H+  H280  1  0.47904970  0.11023246  1.00398428  1
  H+  H281  1  0.15383603  0.79723010  0.30689679  1
  H+  H282  1  0.00537909  0.42227033  0.31570382  1
  H+  H283  1  0.92636191  0.83347487  0.26464448  1
  H+  H284  1  0.70939464  0.59268838  -0.00034921  1
  H+  H285  1  0.02059535  0.37085488  0.01844233  1
  H+  H286  1  0.11320325  0.73583052  0.67271183  1
  H+  H287  1  0.89852018  0.77240526  0.16186077  1
  H+  H288  1  0.83050354  0.67137687  0.43472076  1
  H+  H289  1  0.87399546  0.89296793  0.83126920  1
  H+  H290  1  0.41092788  0.57747818  0.95171375  1
  H+  H291  1  0.97158858  0.13875866  0.49926931  1
  H+  H292  1  0.33950715  0.91153420  0.43644604  1
  H+  H293  1  0.18520740  0.60513088  0.56750985  1
  H+  H294  1  0.08500018  0.67684874  0.73457914  1
  H+  H295  1  0.31941566  0.73287637  0.16125759  1
  H+  H296  1  0.41818804  0.32299035  0.57278983  1
  H+  H297  1  0.14961228  0.37145489  0.27410710  1
  H+  H298  1  0.65758950  0.31778772  0.94321217  1
  H+  H299  1  0.84337631  0.43521820  0.39320491  1
  H+  H300  1  0.26286270  0.37926691  0.34346467  1
  H+  H301  1  0.52026230  0.64105053  0.50018760  1
  H+  H302  1  0.15755637  0.17672242  0.56803620  1
  H+  H303  1  0.64637254  0.09555009  0.32307620  1
  H+  H304  1  0.11721797  0.66922100  0.41761983  1
  H+  H305  1  0.25454330  0.61734145  0.67706435  1
  H+  H306  1  0.87333186  0.30879104  0.90379297  1
  H+  H307  1  0.50760639  0.23036698  0.28788871  1
  H+  H308  1  0.65087661  0.06469263  0.90534769  1
  H+  H309  1  0.89941976  0.33041568  0.60405184  1
  H+  H310  1  0.83215250  0.90915703  0.06917892  1
  H+  H311  1  0.09691822  0.67726892  0.08652016  1
  H+  H312  1  0.91484240  0.09295727  0.21639368  1
  H+  H313  1  0.18115207  0.86356585  0.25144537  1
  H+  H314  1  0.50301128  0.26141494  0.26729307  1
  H+  H315  1  0.11409037  0.16426937  0.55503427  1
  H+  H316  1  0.56796188  0.39870670  0.17869990  1
  H+  H317  1  0.32535941  0.64324606  0.73974222  1
  H+  H318  1  0.67740146  0.83732359  0.26663161  1
  H+  H319  1  0.82643076  0.16563975  0.06263558  1
  H+  H320  1  0.42714305  0.82047775  0.60517745  1
  H+  H321  1  0.40944615  0.07257127  0.90872836  1
  H+  H322  1  0.16695135  0.82447957  0.59156520  1
  H+  H323  1  0.62635662  0.53397748  0.50306168  1
  H+  H324  1  0.93703905  0.83739147  0.59162579  1
  H+  H325  1  0.15875294  0.57326570  0.89204558  1
  H+  H326  1  0.57189583  0.90677690  0.11034392  1
  H+  H327  1  0.65795201  0.83953865  0.57767496  1
  H+  H328  1  0.93811871  0.36194715  0.16187629  1
  H+  H329  1  0.43854071  0.33325774  0.89924377  1
  H+  H330  1  0.92646208  0.10536100  0.56472807  1
  H+  H331  1  0.66035979  0.06482943  0.24338292  1
  H+  H332  1  0.95707974  0.40094233  0.95879150  1
  H+  H333  1  0.29538082  0.40715555  0.12335513  1
  H+  H334  1  0.56711964  0.15453356  0.78354281  1
  H+  H335  1  0.91165052  0.07299585  0.91220854  1
  H+  H336  1  0.35395885  0.42266414  0.74136335  1
  H+  H337  1  0.83250554  0.22083559  0.15386675  1
  H+  H338  1  0.62271264  0.65117643  0.66778835  1
  H+  H339  1  0.38527888  0.10873845  0.49695564  1
  H+  H340  1  0.30953653  0.32452380  0.32878443  1
  H+  H341  1  0.01193172  0.29042683  0.13403517  1
  H+  H342  1  0.83982364  0.68502433  0.72983458  1
  H+  H343  1  0.68249968  0.81313898  0.89599795  1
  H+  H344  1  0.48344025  0.49583354  0.35373531  1
  H+  H345  1  0.14217166  0.09800627  0.21134720  1
  H+  H346  1  0.83325193  0.93481650  0.73070275  1
  H+  H347  1  0.58286985  0.16048016  0.08120407  1
  H+  H348  1  0.84487131  0.63875919  0.49957459  1
  H+  H349  1  0.33757349  0.15748231  0.74057198  1
  H+  H350  1  0.41714622  0.82392232  0.27153577  1
  H+  H351  1  0.12062646  0.43475195  0.74521247  1
  H+  H352  1  0.34137444  0.92573558  0.10180341  1
  H+  H353  1  0.16768636  0.33520893  0.89380263  1
  H+  H354  1  0.08361562  0.15545362  0.77382614  1
  H+  H355  1  0.62391444  0.97577699  0.33630712  1
  H+  H356  1  0.89267754  0.57827816  0.57362735  1
  H+  H357  1  0.34143479  0.65956689  0.43041966  1
  H+  H358  1  0.44822929  0.55353802  0.28744206  1
  H+  H359  1  0.27488368  0.88532961  0.00459579  1
  H+  H360  1  0.23420872  0.85311573  0.50396641  1
  H+  H361  1  0.04659084  0.49013530  0.36932865  1
  H+  H362  1  0.58877702  0.65369058  0.10918139  1
  H+  H363  1  0.41190275  0.58179030  0.60272988  1
  H+  H364  1  0.68489385  0.59761159  0.27307283  1
  H+  H365  1  0.60442953  0.68979534  0.40772060  1
  H+  H366  1  0.39847722  0.61513840  0.84257274  1
  H+  H367  1  0.65466808  0.06519319  0.59502297  1
  H+  H368  1  0.60970304  0.41597222  0.08590877  1
  H+  H369  1  0.62428660  0.21117589  0.69185855  1
  H+  H370  1  0.53720673  0.43726900  0.42673661  1
  H+  H371  1  0.94000183  0.84404754  0.89043658  1
  H+  H372  1  0.58949256  0.91433637  0.42839265  1
  H+  H373  1  0.35887144  0.96652111  0.83173041  1
  H+  H374  1  0.31965741  0.88094600  0.73663525  1
  H+  H375  1  0.16916660  0.04244574  0.60849018  1
  H+  H376  1  0.29322636  0.10454317  0.09953542  1
  H+  H377  1  0.03079218  0.09254502  0.44379789  1
  H+  H378  1  0.09446223  0.91413273  0.42684476  1
  H+  H379  1  0.16399351  0.48092196  0.54962600  1
  H+  H380  1  0.16198918  0.83485929  0.89421360  1
  H+  H381  1  0.66944869  0.58906243  0.60283748  1
  H+  H382  1  0.90521808  0.57535658  0.89798871  1
  H+  H383  1  0.06566594  0.16700828  0.39464616  1
  O2-  O384  1  0.06470190  0.16212867  0.10522788  1
  O2-  O385  1  0.05804272  0.15578707  0.43895422  1
  O2-  O386  1  0.08462188  0.17119363  0.81810351  1
  O2-  O387  1  0.03254571  0.34901696  0.14885192  1
  O2-  O388  1  0.15380574  0.42652630  0.56951369  1
  O2-  O389  1  0.15254835  0.45120724  0.78610971  1
  O2-  O390  1  0.10720066  0.68610620  0.13163519  1
  O2-  O391  1  0.11316934  0.65798243  0.46195577  1
  O2-  O392  1  0.07928644  0.66154591  0.81374698  1
  O2-  O393  1  0.00543359  0.88406606  0.14852509  1
  O2-  O394  1  0.09421944  0.90383753  0.47164223  1
  O2-  O395  1  0.09253107  0.91506673  0.78681744  1
  O2-  O396  1  0.26226864  0.06775044  0.13541350  1
  O2-  O397  1  0.33282891  0.16174010  0.47274001  1
  O2-  O398  1  0.33139207  0.15677492  0.81881313  1
  O2-  O399  1  0.29251989  0.40307028  0.16910235  1
  O2-  O400  1  0.31386845  0.40449978  0.51918525  1
  O2-  O401  1  0.34867790  0.42166286  0.82275911  1
  O2-  O402  1  0.26773595  0.68387890  0.13953296  1
  O2-  O403  1  0.34329761  0.66460506  0.47599725  1
  O2-  O404  1  0.34261027  0.66397335  0.81078290  1
  O2-  O405  1  0.33821812  0.92731151  0.14738139  1
  O2-  O406  1  0.33905177  0.91376284  0.48264929  1
  O2-  O407  1  0.32827612  0.90593610  0.81630829  1
  O2-  O408  1  0.58464947  0.16756147  0.16241217  1
  O2-  O409  1  0.58193398  0.17265342  0.47717374  1
  O2-  O410  1  0.57352856  0.15330505  0.82749273  1
  O2-  O411  1  0.62777015  0.42524133  0.16208939  1
  O2-  O412  1  0.55573683  0.42722693  0.46775943  1
  O2-  O413  1  0.59843650  0.40972836  0.81280178  1
  O2-  O414  1  0.59288024  0.65251814  0.15461494  1
  O2-  O415  1  0.58168999  0.67868372  0.48742872  1
  O2-  O416  1  0.58676661  0.65285237  0.82752262  1
  O2-  O417  1  0.56764850  0.90061930  0.15539318  1
  O2-  O418  1  0.58758399  0.91414072  0.47504944  1
  O2-  O419  1  0.58805370  0.89747585  0.81654043  1
  O2-  O420  1  0.81276590  0.16290824  0.13662727  1
  O2-  O421  1  0.82000004  0.16619497  0.46906504  1
  O2-  O422  1  0.81571598  0.13270341  0.82579312  1
  O2-  O423  1  0.85000092  0.39911810  0.15419490  1
  O2-  O424  1  0.81957724  0.42244030  0.47044720  1
  O2-  O425  1  0.81061505  0.41150497  0.80845852  1
  O2-  O426  1  0.84991894  0.67159485  0.13633717  1
  O2-  O427  1  0.82107633  0.67363965  0.47938736  1
  O2-  O428  1  0.83536678  0.67377104  0.81516660  1
  O2-  O429  1  0.82717074  0.91344598  0.14650715  1
  O2-  O430  1  0.92948627  0.97628064  0.45998674  1
  O2-  O431  1  0.84191169  0.92495005  0.82136226  1
  O2-  O432  1  0.13752432  0.09651249  0.16639072  1
  O2-  O433  1  0.17797894  0.04978776  0.53844812  1
  O2-  O434  1  0.16939255  0.09381211  0.88249228  1
  O2-  O435  1  0.13561002  0.34081283  0.23395033  1
  O2-  O436  1  0.15020598  0.33450997  0.46520337  1
  O2-  O437  1  0.17379483  0.33890514  0.84852850  1
  O2-  O438  1  0.25401849  0.60500208  0.17052617  1
  O2-  O439  1  0.18612371  0.58607729  0.52518842  1
  O2-  O440  1  0.16329289  0.57833767  0.84664098  1
  O2-  O441  1  0.16084862  0.85679861  0.15776413  1
  O2-  O442  1  0.17185568  0.81753460  0.51610974  1
  O2-  O443  1  0.16099402  0.82729946  0.84897077  1
  O2-  O444  1  0.40723982  0.08769459  0.20097024  1
  O2-  O445  1  0.41956259  0.08350563  0.51420439  1
  O2-  O446  1  0.40726213  0.07010605  0.86303159  1
  O2-  O447  1  0.45988072  0.37336407  0.19049347  1
  O2-  O448  1  0.40737759  0.32431796  0.52827631  1
  O2-  O449  1  0.43292316  0.33396388  0.85500792  1
  O2-  O450  1  0.45408653  0.52117837  0.21297145  1
  O2-  O451  1  0.41425428  0.58148821  0.52732256  1
  O2-  O452  1  0.42899938  0.58698997  0.86176456  1
  O2-  O453  1  0.39793336  0.82459104  0.19035127  1
  O2-  O454  1  0.42224656  0.82858754  0.52127225  1
  O2-  O455  1  0.41912205  0.82432077  0.85266501  1
  O2-  O456  1  0.64647529  0.06437549  0.19522955  1
  O2-  O457  1  0.65611560  0.07747419  0.51381530  1
  O2-  O458  1  0.65128978  0.06129315  0.85976944  1
  O2-  O459  1  0.69691799  0.33034934  0.20135008  1
  O2-  O460  1  0.64832601  0.34127768  0.44819308  1
  O2-  O461  1  0.66998313  0.30194015  0.86795462  1
  O2-  O462  1  0.69888606  0.59410313  0.19285431  1
  O2-  O463  1  0.66016102  0.59197880  0.52201257  1
  O2-  O464  1  0.66280660  0.57153941  0.86324771  1
  O2-  O465  1  0.66129809  0.82348878  0.18907958  1
  O2-  O466  1  0.65521336  0.83537472  0.52734763  1
  O2-  O467  1  0.67542472  0.81765607  0.85081751  1
  O2-  O468  1  0.90547795  0.08727855  0.17099620  1
  O2-  O469  1  0.91530972  0.10423578  0.51940411  1
  O2-  O470  1  0.90611802  0.06968836  0.86499961  1
  O2-  O471  1  0.87703572  0.33777293  0.17575474  1
  O2-  O472  1  0.88325293  0.32016005  0.52200264  1
  O2-  O473  1  0.86935585  0.30001585  0.85848198  1
  O2-  O474  1  0.93713768  0.58507149  0.17714013  1
  O2-  O475  1  0.87584777  0.57751405  0.53063503  1
  O2-  O476  1  0.90780236  0.57860668  0.85247721  1
  O2-  O477  1  0.92265237  0.83229972  0.18027155  1
  O2-  O478  1  0.93303249  0.83949820  0.51270002  1
  O2-  O479  1  0.92421307  0.84022863  0.84744822  1
  O2-  O480  1  0.16869015  0.09237104  0.29316892  1
  O2-  O481  1  0.16555880  0.04394609  0.65609030  1
  O2-  O482  1  0.16644276  0.08848579  1.00381438  1
  O2-  O483  1  0.17334758  0.41456350  0.34875919  1
  O2-  O484  1  0.17572141  0.31483911  0.68957534  1
  O2-  O485  1  0.16442420  0.32038360  0.97930615  1
  O2-  O486  1  0.20457017  0.61391470  0.28569598  1
  O2-  O487  1  0.17210856  0.60226584  0.64995346  1
  O2-  O488  1  0.15887673  0.57320825  0.97673624  1
  O2-  O489  1  0.18156155  0.85992571  0.29613181  1
  O2-  O490  1  0.16509152  0.82911266  0.63747724  1
  O2-  O491  1  0.16913301  0.83718855  0.97416239  1
  O2-  O492  1  0.39412382  0.07545608  0.26499224  1
  O2-  O493  1  0.45467705  0.12457002  0.63406063  1
  O2-  O494  1  0.41940201  0.08435111  0.98714945  1
  O2-  O495  1  0.39272251  0.31750363  0.30039143  1
  O2-  O496  1  0.42954529  0.33116647  0.65538125  1
  O2-  O497  1  0.41931086  0.33180323  1.06977066  1
  O2-  O498  1  0.44924224  0.56804599  0.33151793  1
  O2-  O499  1  0.41208141  0.58175520  0.64903258  1
  O2-  O500  1  0.40862498  0.57589571  0.99676685  1
  O2-  O501  1  0.42230943  0.82002700  0.31648129  1
  O2-  O502  1  0.42835633  0.81378820  0.65002291  1
  O2-  O503  1  0.41654977  0.82880620  0.97826883  1
  O2-  O504  1  0.67588559  0.06578482  0.30731859  1
  O2-  O505  1  0.65130941  0.06597822  0.64030989  1
  O2-  O506  1  0.65931609  0.07570677  0.98439661  1
  O2-  O507  1  0.68320895  0.33935157  0.31841810  1
  O2-  O508  1  0.68487004  0.37093240  0.62913530  1
  O2-  O509  1  0.66090003  0.32067209  0.98941267  1
  O2-  O510  1  0.67920702  0.59455448  0.31843647  1
  O2-  O511  1  0.67065304  0.58876908  0.64846957  1
  O2-  O512  1  0.64850076  0.55756838  0.98541729  1
  O2-  O513  1  0.68221715  0.84190756  0.31223396  1
  O2-  O514  1  0.66520968  0.84223497  0.63897635  1
  O2-  O515  1  0.70854997  0.78558348  0.96465923  1
  O2-  O516  1  0.91742929  0.09529746  0.29494247  1
  O2-  O517  1  0.94122687  0.09867909  0.63998754  1
  O2-  O518  1  0.91629001  0.07809155  0.98279541  1
  O2-  O519  1  0.90572105  0.33967595  0.30141844  1
  O2-  O520  1  0.91005054  0.34048514  0.64868413  1
  O2-  O521  1  0.91148822  0.34746863  0.97684847  1
  O2-  O522  1  0.93777278  0.60020829  0.30581882  1
  O2-  O523  1  0.91519873  0.58714967  0.65537540  1
  O2-  O524  1  0.90480231  0.57644418  0.97861541  1
  O2-  O525  1  0.92640071  0.83785287  0.30962275  1
  O2-  O526  1  0.94007396  0.83337269  0.63681484  1
  O2-  O527  1  0.83957136  0.74177934  0.98383502  1
  O2-  O528  1  0.07264803  0.15520840  0.03833252  1
  O2-  O529  1  0.10980476  0.20440579  0.31719822  1
  O2-  O530  1  0.08830868  0.14021274  0.69882878  1
  O2-  O531  1  0.08105533  0.40323324  0.03179280  1
  O2-  O532  1  0.06101677  0.47250242  0.33104280  1
  O2-  O533  1  0.08123976  0.43043553  0.67702782  1
  O2-  O534  1  0.08090181  0.66584837  0.00961191  1
  O2-  O535  1  0.11268292  0.69253543  0.33296996  1
  O2-  O536  1  0.08446187  0.67480234  0.68901305  1
  O2-  O537  1  0.11374603  0.92208171  0.04803500  1
  O2-  O538  1  0.09543104  0.93336070  0.34699611  1
  O2-  O539  1  0.11607712  0.95124109  0.67104619  1
  O2-  O540  1  0.33474787  0.16298266  0.03492887  1
  O2-  O541  1  0.33048576  0.15859305  0.34020511  1
  O2-  O542  1  0.34002411  0.16226997  0.69480879  1
  O2-  O543  1  0.32045281  0.41103387  0.04645377  1
  O2-  O544  1  0.26126658  0.32478390  0.35176343  1
  O2-  O545  1  0.34738094  0.41735170  0.69611395  1
  O2-  O546  1  0.32183390  0.66588526  0.02546441  1
  O2-  O547  1  0.34995103  0.65383124  0.35162403  1
  O2-  O548  1  0.30594613  0.61540868  0.69797166  1
  O2-  O549  1  0.33453421  0.91489027  0.02192564  1
  O2-  O550  1  0.34297249  0.91227519  0.36160526  1
  O2-  O551  1  0.31560743  0.85548766  0.69592082  1
  O2-  O552  1  0.58346504  0.15785924  0.03554529  1
  O2-  O553  1  0.64283104  0.19097201  0.36368223  1
  O2-  O554  1  0.61375893  0.21039750  0.64821135  1
  O2-  O555  1  0.58958619  0.40729188  0.04214804  1
  O2-  O556  1  0.51456618  0.46238174  0.35710919  1
  O2-  O557  1  0.59744749  0.42513772  0.68776117  1
  O2-  O558  1  0.57764640  0.64912588  0.02981207  1
  O2-  O559  1  0.60998860  0.68743208  0.36262873  1
  O2-  O560  1  0.59514449  0.68526008  0.68016615  1
  O2-  O561  1  0.58094113  0.91506138  0.02851973  1
  O2-  O562  1  0.58932990  0.91399069  0.35493736  1
  O2-  O563  1  0.58201466  0.90825395  0.69448733  1
  O2-  O564  1  0.83170353  0.16272588  0.01662037  1
  O2-  O565  1  0.82725886  0.16086186  0.34433491  1
  O2-  O566  1  0.88897658  0.19124727  0.70355937  1
  O2-  O567  1  0.82360383  0.40587738  0.03125396  1
  O2-  O568  1  0.84438879  0.43551995  0.34749069  1
  O2-  O569  1  0.82633800  0.42621157  0.68549396  1
  O2-  O570  1  0.81655644  0.65963024  0.01614091  1
  O2-  O571  1  0.84732840  0.67540593  0.35539467  1
  O2-  O572  1  0.83875518  0.67946509  0.68484350  1
  O2-  O573  1  0.83816160  0.90714850  0.02391100  1
  O2-  O574  1  0.85179737  0.93168508  0.34707468  1
  O2-  O575  1  0.83334654  0.94436854  0.68672922  1
