# generated using pymatgen
data_H2O
_symmetry_space_group_name_H-M   'P 1'
_cell_length_a   17.99251370
_cell_length_b   17.99197136
_cell_length_c   22.00176173
_cell_angle_alpha   89.99489772
_cell_angle_beta   89.99685846
_cell_angle_gamma   120.02145323
_symmetry_Int_Tables_number   1
_chemical_formula_structural   H2O
_chemical_formula_sum   'H384 O192'
_cell_volume   6166.86941759
_cell_formula_units_Z   192
loop_
 _symmetry_equiv_pos_site_id
 _symmetry_equiv_pos_as_xyz
  1  'x, y, z'
loop_
 _atom_type_symbol
 _atom_type_oxidation_number
  H+  1.0
  O2-  -2.0
loop_
 _atom_site_type_symbol
 _atom_site_label
 _atom_site_symmetry_multiplicity
 _atom_site_fract_x
 _atom_site_fract_y
 _atom_site_fract_z
 _atom_site_occupancy
  H+  H0  1  0.85921929  0.13883119  1.01674534  1
  H+  H1  1  0.21897568  0.34781851  0.97939218  1
  H+  H2  1  0.85919071  0.22796410  1.01638034  1
  H+  H3  1  0.02534255  0.14096016  0.16359231  1
  H+  H4  1  0.97664480  0.60548624  0.49836413  1
  H+  H5  1  0.89612535  0.26259941  0.66012109  1
  H+  H6  1  0.88542039  1.03803610  0.17847723  1
  H+  H7  1  0.86796111  0.72920558  1.01374852  1
  H+  H8  1  0.63207578  0.39488849  0.82546985  1
  H+  H9  1  0.11214996  0.15791731  0.64205287  1
  H+  H10  1  0.20766894  0.64102246  0.63987534  1
  H+  H11  1  0.61137592  0.13987634  0.33129151  1
  H+  H12  1  0.22798065  0.08603412  0.83638502  1
  H+  H13  1  0.84143986  0.43357258  0.06669925  1
  H+  H14  1  0.72519121  0.12471022  0.64943057  1
  H+  H15  1  0.58204861  0.18627971  0.38126949  1
  H+  H16  1  0.14998066  0.78300316  0.33264946  1
  H+  H17  1  0.35542959  0.13391700  1.01543408  1
  H+  H18  1  0.63838500  0.59912951  0.17355610  1
  H+  H19  1  0.88529768  0.86503029  1.00706739  1
  H+  H20  1  0.82162370  0.67681943  0.73342756  1
  H+  H21  1  0.61404074  0.14050054  0.82618131  1
  H+  H22  1  0.96775061  0.11103484  0.33430457  1
  H+  H23  1  0.14351571  0.27162308  0.17365092  1
  H+  H24  1  0.85580521  0.24067518  0.84294084  1
  H+  H25  1  0.09372488  0.96016038  0.82578729  1
  H+  H26  1  0.13962395  0.62273029  0.84487368  1
  H+  H27  1  0.33513338  0.20109341  0.81106697  1
  H+  H28  1  0.86024367  0.38602708  0.33609724  1
  H+  H29  1  0.53280230  0.15291944  0.82720461  1
  H+  H30  1  0.61743361  0.96436396  0.17583261  1
  H+  H31  1  0.95160887  0.84279655  0.84955544  1
  H+  H32  1  0.12967606  0.02272905  0.45724390  1
  H+  H33  1  0.61962248  0.49960552  0.67360508  1
  H+  H34  1  0.61439713  0.47637987  0.34331725  1
  H+  H35  1  0.57488557  0.20054642  -0.00435437  1
  H+  H36  1  0.21590974  0.35434530  0.50491945  1
  H+  H37  1  0.72905554  0.60225252  0.17653083  1
  H+  H38  1  0.68925857  0.58972124  0.93529387  1
  H+  H39  1  0.89106889  0.12914342  0.17843556  1
  H+  H40  1  0.34555954  0.67105142  0.40120389  1
  H+  H41  1  0.89687475  0.62541485  0.99750293  1
  H+  H42  1  0.64807147  0.61440757  0.99113410  1
  H+  H43  1  0.37017356  0.47638153  0.17483562  1
  H+  H44  1  0.62043268  0.01107290  0.32891107  1
  H+  H45  1  0.63181652  0.10753004  0.99898012  1
  H+  H46  1  0.08709510  0.25549606  0.84158626  1
  H+  H47  1  0.14351075  0.36088038  0.17461485  1
  H+  H48  1  0.44299838  0.40050804  0.91254718  1
  H+  H49  1  0.15888387  0.86169176  0.65900408  1
  H+  H50  1  0.52700129  0.88430544  0.02244877  1
  H+  H51  1  0.63448015  0.87530211  0.66294079  1
  H+  H52  1  0.11513442  0.98012849  0.16195212  1
  H+  H53  1  1.01664743  0.88072633  1.00875965  1
  H+  H54  1  0.08663959  0.92060230  0.10080351  1
  H+  H55  1  0.36929965  0.38021276  0.17187183  1
  H+  H56  1  0.15516581  0.38704996  0.66078714  1
  H+  H57  1  0.85563636  0.91497071  0.20601187  1
  H+  H58  1  0.35446300  0.28733131  1.00714426  1
  H+  H59  1  0.04641353  -0.06359230  0.52853592  1
  H+  H60  1  0.89335283  0.61952233  0.32560839  1
  H+  H61  1  0.50996874  0.15195113  0.15984692  1
  H+  H62  1  0.39818046  0.77081738  0.65287500  1
  H+  H63  1  0.38879931  0.74914075  1.01915513  1
  H+  H64  1  0.72345486  0.11285757  1.00006696  1
  H+  H65  1  0.15140312  0.09923160  0.85588767  1
  H+  H66  1  0.66120943  0.02212172  0.47288095  1
  H+  H67  1  0.86416053  0.72968410  0.33952991  1
  H+  H68  1  0.16258785  0.08190381  0.27534537  1
  H+  H69  1  0.64246288  0.77931152  0.80418199  1
  H+  H70  1  0.63346504  0.61070070  0.65576341  1
  H+  H71  1  0.62933682  0.84915572  0.17787382  1
  H+  H72  1  0.82087594  0.15817794  0.72578366  1
  H+  H73  1  0.39251568  0.73618710  0.34695137  1
  H+  H74  1  0.89555742  0.84387693  0.16561828  1
  H+  H75  1  0.03204876  0.64355582  0.00933928  1
  H+  H76  1  0.61144779  0.31036474  0.15576645  1
  H+  H77  1  0.02262129  0.88733019  0.66663466  1
  H+  H78  1  0.40155986  0.61475557  0.65698769  1
  H+  H79  1  0.87093946  0.59611660  0.65158344  1
  H+  H80  1  0.27354329  0.13506348  0.48786765  1
  H+  H81  1  0.09719694  0.71992523  0.82777913  1
  H+  H82  1  0.67029766  0.83923568  0.74646577  1
  H+  H83  1  0.98861915  0.85649571  0.17134211  1
  H+  H84  1  0.41980299  0.43312842  0.82125094  1
  H+  H85  1  0.83717945  0.12120981  0.82583330  1
  H+  H86  1  0.37520026  0.97843512  0.16657977  1
  H+  H87  1  0.13255936  0.98759278  0.35450742  1
  H+  H88  1  0.92948357  0.04383793  0.49407508  1
  H+  H89  1  0.88864874  0.03228306  0.84472344  1
  H+  H90  1  0.38894673  0.02650995  0.49580569  1
  H+  H91  1  0.08249230  0.33972532  0.85067733  1
  H+  H92  1  0.39382729  0.13003559  0.84262164  1
  H+  H93  1  0.47785312  0.86180325  0.17917406  1
  H+  H94  1  0.03096029  0.43369470  0.82157689  1
  H+  H95  1  0.39033201  0.35961935  0.50986512  1
  H+  H96  1  0.37733197  0.88296277  0.17200235  1
  H+  H97  1  0.89057863  0.52916129  0.32625206  1
  H+  H98  1  0.87615783  0.47068866  0.67603354  1
  H+  H99  1  0.27691961  0.62624840  0.02004783  1
  H+  H100  1  0.81827912  0.89829661  0.49853828  1
  H+  H101  1  0.11834830  0.48855744  0.67644317  1
  H+  H102  1  0.87167083  0.61225684  0.85128603  1
  H+  H103  1  0.89946194  0.53631312  -0.00393276  1
  H+  H104  1  0.11323868  0.84651755  0.51338938  1
  H+  H105  1  0.53170670  0.64007534  0.66080667  1
  H+  H106  1  0.70928371  0.85718752  0.32857591  1
  H+  H107  1  0.47839470  0.11612366  0.31991366  1
  H+  H108  1  0.63880789  0.86262931  0.02872482  1
  H+  H109  1  0.36615917  0.22079486  0.67278594  1
  H+  H110  1  0.06792798  0.02726073  0.62829854  1
  H+  H111  1  0.65622305  0.38207654  0.64235710  1
  H+  H112  1  0.14931543  0.54008835  0.84605377  1
  H+  H113  1  0.47946298  0.35886701  0.17660159  1
  H+  H114  1  0.28515763  0.36570604  0.87278984  1
  H+  H115  1  0.93837873  0.85407029  0.26607654  1
  H+  H116  1  0.85483874  0.13210685  0.66547028  1
  H+  H117  1  0.88387939  0.28034011  0.17772190  1
  H+  H118  1  0.77465997  0.37366812  0.82488991  1
  H+  H119  1  -0.04181049  0.35681901  0.49778860  1
  H+  H120  1  0.88530193  0.36940607  0.17604838  1
  H+  H121  1  0.15329483  0.19140810  0.78473737  1
  H+  H122  1  0.66083359  0.81871591  1.08084315  1
  H+  H123  1  0.85162940  0.13441515  0.33919447  1
  H+  H124  1  0.78007446  0.90131227  0.67936628  1
  H+  H125  1  0.15247120  0.87407742  0.34476046  1
  H+  H126  1  0.11929932  0.85189168  0.83747522  1
  H+  H127  1  0.36853592  0.65102331  0.83397020  1
  H+  H128  1  0.22823991  0.11869159  0.33084176  1
  H+  H129  1  0.27297144  0.37968948  0.17178267  1
  H+  H130  1  0.35883254  0.95486568  0.01942138  1
  H+  H131  1  0.05154150  0.89970052  0.37373318  1
  H+  H132  1  0.14735024  0.61706114  0.32877658  1
  H+  H133  1  0.13204852  0.35724963  0.32969670  1
  H+  H134  1  0.77274390  0.39096181  0.33042231  1
  H+  H135  1  0.85539442  0.38586831  0.48215131  1
  H+  H136  1  0.63209760  0.08550659  0.18310547  1
  H+  H137  1  0.61116821  0.71033838  0.16196956  1
  H+  H138  1  0.85433646  0.89144313  0.33746080  1
  H+  H139  1  0.35424779  0.46722287  0.49490037  1
  H+  H140  1  0.62008163  0.31705499  0.49181072  1
  H+  H141  1  0.36004063  0.46970662  0.34265750  1
  H+  H142  1  0.38553576  1.01988318  0.64589817  1
  H+  H143  1  0.77513230  0.13845420  0.17091265  1
  H+  H144  1  0.47524448  0.40749615  0.00599943  1
  H+  H145  1  -0.03003167  0.30655293  0.61183277  1
  H+  H146  1  0.61238227  0.99036259  0.66051728  1
  H+  H147  1  0.45404588  0.08690986  0.00362027  1
  H+  H148  1  0.47325944  0.61865917  0.50389382  1
  H+  H149  1  0.84733220  0.40526347  0.76238830  1
  H+  H150  1  0.02668057  0.64864788  0.16550884  1
  H+  H151  1  0.41174299  0.32646164  0.86475990  1
  H+  H152  1  1.02625162  0.39289854  1.00962209  1
  H+  H153  1  0.77806679  0.88968762  1.03212926  1
  H+  H154  1  0.63970548  0.63127534  0.81695464  1
  H+  H155  1  0.10781622  0.72150060  0.48941030  1
  H+  H156  1  0.66488707  0.10222200  0.59145097  1
  H+  H157  1  0.02114143  0.13301662  0.01097530  1
  H+  H158  1  0.66269201  0.35071092  0.25544570  1
  H+  H159  1  0.87342268  0.13875200  0.48604172  1
  H+  H160  1  0.78337728  0.90078358  0.81630805  1
  H+  H161  1  0.36813565  0.22992760  0.33693422  1
  H+  H162  1  0.10448007  0.22119747  0.34869093  1
  H+  H163  1  0.95867100  0.13269159  0.85632976  1
  H+  H164  1  0.10872579  -0.03075755  1.00754155  1
  H+  H165  1  0.13128031  0.10489036  -0.00179146  1
  H+  H166  1  0.85017517  0.97718209  0.33985016  1
  H+  H167  1  0.48115207  0.36700491  0.32911902  1
  H+  H168  1  0.61394850  -0.02254907  1.01539166  1
  H+  H169  1  0.48608028  0.63563506  0.85329080  1
  H+  H170  1  0.61442634  0.38810997  0.33714822  1
  H+  H171  1  0.47894743  0.59770168  0.17795374  1
  H+  H172  1  0.12335224  0.75599377  0.16241070  1
  H+  H173  1  0.54617016  0.57441595  0.79270825  1
  H+  H174  1  0.37911425  0.10567696  0.17401957  1
  H+  H175  1  0.34136778  0.97227167  0.80548723  1
  H+  H176  1  0.38133061  0.48840819  0.66605906  1
  H+  H177  1  0.63422028  0.78304756  0.66126386  1
  H+  H178  1  0.26941616  0.88715152  0.48631486  1
  H+  H179  1  0.76695070  0.40815660  0.15311198  1
  H+  H180  1  0.88455937  0.02615562  1.00756558  1
  H+  H181  1  0.12884068  0.76760073  0.99416961  1
  H+  H182  1  0.46097132  0.18179546  0.89311446  1
  H+  H183  1  0.37265456  0.63800269  0.17053996  1
  H+  H184  1  0.63424935  0.28810235  0.63633842  1
  H+  H185  1  0.26748133  0.13284561  0.01648321  1
  H+  H186  1  0.86066313  0.36066281  0.82845200  1
  H+  H187  1  0.52771069  0.62930513  0.00393010  1
  H+  H188  1  0.79016542  0.41309245  0.00390544  1
  H+  H189  1  0.13967597  0.07890855  0.58104878  1
  H+  H190  1  0.26978257  0.63250434  0.49138699  1
  H+  H191  1  0.42768874  0.80537329  0.96101985  1
  H+  H192  1  0.87977144  0.27254996  0.33019607  1
  H+  H193  1  0.04572401  0.15489717  0.44333140  1
  H+  H194  1  0.38952847  0.36394904  0.32873846  1
  H+  H195  1  0.40469568  0.51868791  0.81812761  1
  H+  H196  1  0.48189840  0.86485354  0.64997012  1
  H+  H197  1  0.78878943  0.63579433  0.49297624  1
  H+  H198  1  0.60762552  0.15068236  0.66351716  1
  H+  H199  1  0.76458883  0.88152435  0.17631963  1
  H+  H200  1  0.11473306  0.47471846  0.34186143  1
  H+  H201  1  0.36089665  0.22072414  0.16822840  1
  H+  H202  1  0.11003514  0.63284122  0.48627866  1
  H+  H203  1  0.15290331  0.51988435  0.17821598  1
  H+  H204  1  0.03478479  0.64543527  0.33342908  1
  H+  H205  1  0.13325476  0.11049290  0.17784159  1
  H+  H206  1  0.38771310  0.77371516  0.18183065  1
  H+  H207  1  0.95133565  0.30961054  0.85472809  1
  H+  H208  1  0.74860451  0.12203750  0.82422458  1
  H+  H209  1  0.82963506  0.17124699  0.10904576  1
  H+  H210  1  0.67168999  0.31399180  1.01458475  1
  H+  H211  1  0.13754545  0.26731478  0.65403515  1
  H+  H212  1  0.38285052  0.59223487  1.00343569  1
  H+  H213  1  0.23000356  0.86442918  0.16896925  1
  H+  H214  1  0.35820603  0.72367609  0.49296580  1
  H+  H215  1  0.62074702  0.48347312  0.01062431  1
  H+  H216  1  0.12339094  0.26860751  0.51482684  1
  H+  H217  1  0.26032086  0.88577846  0.33740979  1
  H+  H218  1  0.56381686  0.75446157  0.46947786  1
  H+  H219  1  0.47643912  0.60585304  0.33185675  1
  H+  H220  1  0.27768040  0.64833080  0.82994334  1
  H+  H221  1  0.38875914  0.11614475  0.32377553  1
  H+  H222  1  0.83952872  0.72564284  0.66833439  1
  H+  H223  1  0.18073667  0.35739559  0.59726429  1
  H+  H224  1  0.61450581  0.71889487  0.01558001  1
  H+  H225  1  0.28786576  0.61581881  0.68229964  1
  H+  H226  1  0.60638050  0.71988175  0.34022508  1
  H+  H227  1  0.62681520  0.46874557  0.16721086  1
  H+  H228  1  0.36945945  0.86984791  1.02589187  1
  H+  H229  1  0.66308939  0.50923759  0.50728812  1
  H+  H230  1  0.09878973  0.71752692  0.67427626  1
  H+  H231  1  0.02265056  0.38718384  0.33914601  1
  H+  H232  1  0.10467624  0.13311014  0.35127395  1
  H+  H233  1  0.71335667  0.10061652  0.33295903  1
  H+  H234  1  0.12409093  0.51389195  0.49878134  1
  H+  H235  1  0.89020798  0.36941102  1.00023571  1
  H+  H236  1  0.27069976  0.38031140  0.34286824  1
  H+  H237  1  0.08683577  0.67976174  0.10265505  1
  H+  H238  1  0.64612439  0.27568998  0.83804949  1
  H+  H239  1  0.11995245  0.85940889  0.99311370  1
  H+  H240  1  0.87230089  0.85696536  0.84718112  1
  H+  H241  1  0.40177868  0.85341285  0.88068764  1
  H+  H242  1  0.55452652  0.41325618  0.83565257  1
  H+  H243  1  1.01056293  0.91862215  0.67995295  1
  H+  H244  1  0.47131222  0.11286334  0.65113765  1
  H+  H245  1  0.86882350  0.71374117  0.16553407  1
  H+  H246  1  0.88005141  0.72732333  0.48414026  1
  H+  H247  1  0.72232230  0.60896255  0.66720254  1
  H+  H248  1  0.21122721  0.85820129  0.83551407  1
  H+  H249  1  0.09591337  0.37781649  0.49323149  1
  H+  H250  1  0.86625823  0.48552462  0.48271607  1
  H+  H251  1  0.11558376  0.39448647  0.00951520  1
  H+  H252  1  0.60604936  0.88908772  0.80654489  1
  H+  H253  1  0.57856461  0.17798328  0.72318751  1
  H+  H254  1  0.02747823  0.38600060  0.16544771  1
  H+  H255  1  0.35712840  0.88394291  0.48682951  1
  H+  H256  1  0.18216857  1.00749120  0.67724873  1
  H+  H257  1  0.22211734  0.11004179  0.17976636  1
  H+  H258  1  0.68885824  0.54251422  0.83517718  1
  H+  H259  1  0.63834718  0.37735279  0.99578917  1
  H+  H260  1  0.26196662  0.36779013  0.84500320  1
  H+  H261  1  0.78249873  0.63713932  1.01012909  1
  H+  H262  1  0.88672695  0.38672387  0.67541780  1
  H+  H263  1  0.58924524  0.42055418  0.06880247  1
  H+  H264  1  0.05954851  0.11320859  0.78804876  1
  H+  H265  1  0.36214790  0.13020197  0.66552502  1
  H+  H266  1  0.12345792  0.64624455  0.01230055  1
  H+  H267  1  0.36844637  0.87943678  0.65711722  1
  H+  H268  1  0.84573624  0.20906958  0.49034855  1
  H+  H269  1  0.98554284  0.93841188  0.30387021  1
  H+  H270  1  0.91390933  0.83409529  0.59179955  1
  H+  H271  1  0.11372047  0.61161754  0.65990119  1
  H+  H272  1  0.51443994  0.16422938  0.47725905  1
  H+  H273  1  0.00639197  0.62984745  0.67200356  1
  H+  H274  1  0.86422092  0.48337613  0.16138951  1
  H+  H275  1  0.39673234  0.36524392  0.65972602  1
  H+  H276  1  0.39093836  0.27202339  0.50885921  1
  H+  H277  1  0.22983454  0.84014429  0.64864562  1
  H+  H278  1  0.88751424  0.02959064  0.65242072  1
  H+  H279  1  0.63928069  0.28041990  0.30845852  1
  H+  H280  1  0.13953067  0.53156694  1.00042799  1
  H+  H281  1  0.61151907  0.63367052  0.34627245  1
  H+  H282  1  0.72585308  0.61377969  0.32932523  1
  H+  H283  1  0.53716263  0.38042814  0.49675077  1
  H+  H284  1  0.34678478  0.91098581  0.10059894  1
  H+  H285  1  0.23553395  0.61622669  0.33178883  1
  H+  H286  1  0.91508877  0.08941793  0.27201912  1
  H+  H287  1  0.89455039  0.61115667  0.17550524  1
  H+  H288  1  0.33087201  0.90912287  0.71238433  1
  H+  H289  1  0.71610920  0.86155179  0.91997715  1
  H+  H290  1  0.33586198  0.92191192  0.39737770  1
  H+  H291  1  0.39460192  0.06056580  0.94635869  1
  H+  H292  1  0.28998792  0.40258040  0.67759997  1
  H+  H293  1  0.66611715  0.07064478  0.24623272  1
  H+  H294  1  0.68356511  0.77586656  0.51933474  1
  H+  H295  1  0.08966413  0.67163303  0.39394532  1
  H+  H296  1  0.32582052  0.40687569  0.43680605  1
  H+  H297  1  0.37841704  0.78014164  0.83070864  1
  H+  H298  1  0.42295988  0.33466679  0.23776731  1
  H+  H299  1  0.58563691  0.91528191  0.11228314  1
  H+  H300  1  0.06232443  0.65675775  0.77013447  1
  H+  H301  1  0.28103558  0.63288572  0.17062534  1
  H+  H302  1  0.58247959  0.65063579  0.10210171  1
  H+  H303  1  0.41777535  0.58663425  0.90583470  1
  H+  H304  1  0.52274298  0.39190797  0.67532720  1
  H+  H305  1  0.42098137  0.57339020  0.23960756  1
  H+  H306  1  0.68688693  0.87516473  0.90562796  1
  H+  H307  1  0.14330591  0.87240991  0.16621777  1
  H+  H308  1  0.32868200  0.16384055  0.10804972  1
  H+  H309  1  0.47117984  0.86182900  0.28635110  1
  H+  H310  1  0.32659661  0.14712996  0.75140182  1
  H+  H311  1  0.17586495  0.59590710  0.94350158  1
  H+  H312  1  0.84929924  0.92820690  0.43044498  1
  H+  H313  1  0.46732512  0.86013917  0.48996289  1
  H+  H314  1  0.34608312  0.66776161  0.73708082  1
  H+  H315  1  0.41787330  0.08509016  0.55556524  1
  H+  H316  1  0.83735579  0.66853746  0.39703892  1
  H+  H317  1  0.59068496  0.40662919  0.43584473  1
  H+  H318  1  0.56425210  0.90721437  0.40871180  1
  H+  H319  1  0.14942530  0.57331987  0.55741226  1
  H+  H320  1  0.38119246  0.60968243  0.50648260  1
  H+  H321  1  0.08602516  0.18801069  0.70632455  1
  H+  H322  1  0.16932066  0.95746740  0.73821529  1
  H+  H323  1  0.83748490  0.65771380  0.10497324  1
  H+  H324  1  0.91282827  0.33431060  0.27155512  1
  H+  H325  1  0.88982516  0.60975008  0.49728618  1
  H+  H326  1  0.03706983  0.39365478  0.67954770  1
  H+  H327  1  0.67958759  0.33873659  0.89710165  1
  H+  H328  1  0.84763782  0.92598013  0.08335777  1
  H+  H329  1  0.90683172  0.57065320  0.59359292  1
  H+  H330  1  0.33830638  0.16989646  0.39582482  1
  H+  H331  1  0.15173177  0.82718085  0.92870332  1
  H+  H332  1  0.33571437  0.65013447  0.08105006  1
  H+  H333  1  0.85968650  0.89076430  0.66647885  1
  H+  H334  1  0.09981658  0.08484638  0.48625164  1
  H+  H335  1  0.91803506  0.59402676  0.91478995  1
  H+  H336  1  0.59223801  0.66477665  0.71986661  1
  H+  H337  1  0.07073084  0.40750268  0.43178908  1
  H+  H338  1  0.16371858  0.32515039  0.27276489  1
  H+  H339  1  0.36226568  0.13457538  0.48944125  1
  H+  H340  1  0.65665160  0.81618418  0.23589443  1
  H+  H341  1  0.66473775  0.57903002  0.27167239  1
  H+  H342  1  0.61617501  0.85050469  0.32356623  1
  H+  H343  1  0.18045097  0.57904647  0.23705043  1
  H+  H344  1  0.40128409  0.51341108  0.99066259  1
  H+  H345  1  0.42327612  0.58406711  0.59298857  1
  H+  H346  1  0.61174544  0.19326233  0.16228294  1
  H+  H347  1  0.71022009  0.84082145  0.57380298  1
  H+  H348  1  0.39055971  0.61073099  0.32903782  1
  H+  H349  1  0.58032401  0.93562299  0.72259518  1
  H+  H350  1  0.90383634  0.83093493  0.94430029  1
  H+  H351  1  -0.03042938  0.61911683  0.84408568  1
  H+  H352  1  0.90464576  0.08123740  0.94636940  1
  H+  H353  1  0.92796233  0.58539909  0.23513977  1
  H+  H354  1  0.68653425  0.56893637  0.56524303  1
  H+  H355  1  0.08530533  0.41472799  0.10564005  1
  H+  H356  1  0.37976641  0.45264752  0.75062404  1
  H+  H357  1  0.65645399  0.07711631  0.90322574  1
  H+  H358  1  0.34655364  0.88746702  0.81064824  1
  H+  H359  1  0.41772659  0.83381048  0.55415299  1
  H+  H360  1  0.58313670  0.68993725  0.43495461  1
  H+  H361  1  0.92618899  0.88021907  0.47837191  1
  H+  H362  1  0.82088633  0.15941182  0.39915656  1
  H+  H363  1  0.08331903  0.16365109  0.10340015  1
  H+  H364  1  0.09276701  0.43320240  0.77131761  1
  H+  H365  1  0.16839462  0.07164978  0.94402853  1
  H+  H366  1  0.92280728  0.09069951  0.59412168  1
  H+  H367  1  0.03871627  0.89877661  0.77016749  1
  H+  H368  1  0.83027321  0.42098969  0.41749721  1
  H+  H369  1  0.82997861  0.70882942  0.84325203  1
  H+  H370  1  0.56640336  0.16969174  0.06476063  1
  H+  H371  1  0.36442548  -0.01602395  0.33616098  1
  H+  H372  1  0.62323935  0.01890856  0.84203527  1
  H+  H373  1  0.15930254  0.82200115  0.56365989  1
  H+  H374  1  0.51721994  0.89016305  0.81627234  1
  H+  H375  1  0.89223671  0.33129257  0.55322712  1
  H+  H376  1  0.58806377  0.42545233  0.73782043  1
  H+  H377  1  0.11140376  0.22000785  0.00857631  1
  H+  H378  1  0.85510382  0.93261707  0.76792959  1
  H+  H379  1  0.42799702  0.33471481  0.60138122  1
  H+  H380  1  0.81490874  0.80330985  0.58880956  1
  H+  H381  1  0.41623495  0.08168240  0.23275462  1
  H+  H382  1  0.90611715  0.32381601  0.94367791  1
  H+  H383  1  0.13540896  0.31544395  0.93722870  1
  O2-  O384  1  0.08580547  0.16659883  0.14880887  1
  O2-  O385  1  0.04700161  0.14933773  0.48918137  1
  O2-  O386  1  0.09274029  0.17538725  0.78168710  1
  O2-  O387  1  0.08737559  0.40973031  0.15059088  1
  O2-  O388  1  0.06434978  0.40603233  0.47751215  1
  O2-  O389  1  0.08495826  0.43375106  0.81669868  1
  O2-  O390  1  0.08712020  0.68597598  0.14798053  1
  O2-  O391  1  0.07823607  0.66206864  0.47206523  1
  O2-  O392  1  0.06339941  0.65804396  0.81591382  1
  O2-  O393  1  0.08778260  0.91920417  0.14608466  1
  O2-  O394  1  0.00745985  0.87427751  0.53675090  1
  O2-  O395  1  0.05979892  0.89934091  0.81141466  1
  O2-  O396  1  0.32890990  0.16024276  0.15359120  1
  O2-  O397  1  0.33392524  0.16813254  0.47547838  1
  O2-  O398  1  0.32135461  0.14298073  0.79998212  1
  O2-  O399  1  0.33738028  0.41224400  0.15984137  1
  O2-  O400  1  0.32216938  0.40597777  0.48239165  1
  O2-  O401  1  0.41327777  0.47544949  0.79284775  1
  O2-  O402  1  0.34322806  0.66807639  0.15466961  1
  O2-  O403  1  0.33141481  0.66179421  0.47987860  1
  O2-  O404  1  0.33838845  0.67834672  0.81406937  1
  O2-  O405  1  0.34689572  0.91602877  0.15250329  1
  O2-  O406  1  0.32937725  0.91691179  0.47130294  1
  O2-  O407  1  0.30929034  0.91089966  0.79648884  1
  O2-  O408  1  0.56620374  0.19513022  0.13947126  1
  O2-  O409  1  0.55737119  0.20965831  0.44969684  1
  O2-  O410  1  0.59158480  0.17779673  0.81033131  1
  O2-  O411  1  0.59520847  0.40814874  0.14938950  1
  O2-  O412  1  0.59583972  0.40229424  0.48072760  1
  O2-  O413  1  0.60822497  0.43217079  0.81230329  1
  O2-  O414  1  0.58224879  0.64963054  0.14747944  1
  O2-  O415  1  0.57823601  0.70955986  0.47696803  1
  O2-  O416  1  0.59045818  0.63446282  0.79875070  1
  O2-  O417  1  0.58241459  0.90590309  0.15732218  1
  O2-  O418  1  0.56520998  0.90856637  0.45795304  1
  O2-  O419  1  0.57766629  0.92433386  0.80248796  1
  O2-  O420  1  0.83434372  0.17447648  0.15450228  1
  O2-  O421  1  0.82721901  0.15076056  0.47529069  1
  O2-  O422  1  0.80912493  0.15187151  0.80775962  1
  O2-  O423  1  0.82697671  0.42554264  0.14242253  1
  O2-  O424  1  0.83266315  0.42348474  0.46503207  1
  O2-  O425  1  0.83697858  0.39679472  0.81062465  1
  O2-  O426  1  0.83585892  0.65356996  0.15037738  1
  O2-  O427  1  0.84709000  0.66617669  0.47193472  1
  O2-  O428  1  0.80607285  0.64893313  0.82587025  1
  O2-  O429  1  0.82884558  0.91701539  0.16792375  1
  O2-  O430  1  0.87035351  0.93451780  0.47349162  1
  O2-  O431  1  0.84692383  0.93020772  0.81317600  1
  O2-  O432  1  0.16103868  0.07805682  0.19381850  1
  O2-  O433  1  0.13032506  0.05264630  0.49501950  1
  O2-  O434  1  0.17049868  0.05715045  0.85805934  1
  O2-  O435  1  0.17558556  0.33199524  0.18970670  1
  O2-  O436  1  0.15770304  0.33062291  0.52465670  1
  O2-  O437  1  0.06828103  0.28451791  0.87040321  1
  O2-  O438  1  0.18611625  0.58023126  0.19210206  1
  O2-  O439  1  0.15647704  0.57504353  0.51284296  1
  O2-  O440  1  0.17706903  0.60078249  0.86014833  1
  O2-  O441  1  0.16825237  0.83559990  0.17897370  1
  O2-  O442  1  0.15423589  0.82597099  0.51844176  1
  O2-  O443  1  0.15282098  0.82645662  0.85470606  1
  O2-  O444  1  0.41533640  0.07974595  0.18655958  1
  O2-  O445  1  0.41676709  0.08709897  0.51010707  1
  O2-  O446  1  0.43643748  0.12756834  0.87083834  1
  O2-  O447  1  0.41957100  0.33255435  0.19150168  1
  O2-  O448  1  0.42176625  0.33145862  0.52586165  1
  O2-  O449  1  0.44885668  0.38859898  0.86746956  1
  O2-  O450  1  0.41854215  0.56835622  0.19362756  1
  O2-  O451  1  0.41444968  0.58132757  0.52039857  1
  O2-  O452  1  0.42409369  0.59842771  0.86025586  1
  O2-  O453  1  0.41714035  0.83590662  0.19402916  1
  O2-  O454  1  0.40841881  0.82997880  0.50946089  1
  O2-  O455  1  0.40569579  0.84443285  0.83735918  1
  O2-  O456  1  0.67157499  0.06832257  0.19933024  1
  O2-  O457  1  0.59922113  0.00040555  0.47257440  1
  O2-  O458  1  0.65356299  0.07921761  0.85791042  1
  O2-  O459  1  0.64820176  0.37036227  0.17056657  1
  O2-  O460  1  0.62868753  0.26610807  0.48953012  1
  O2-  O461  1  0.68115242  0.33795230  0.85200323  1
  O2-  O462  1  0.66827163  0.56972718  0.19086126  1
  O2-  O463  1  0.69651461  0.57000609  0.52141729  1
  O2-  O464  1  0.71374594  0.60303126  0.85052041  1
  O2-  O465  1  0.66133311  0.81871787  0.18978632  1
  O2-  O466  1  0.73383374  0.81821543  0.54345435  1
  O2-  O467  1  0.66819709  0.83937829  0.79165028  1
  O2-  O468  1  0.92100867  0.09762976  0.19284606  1
  O2-  O469  1  0.95521182  0.10514557  0.50895143  1
  O2-  O470  1  0.89999315  0.08722884  0.86482298  1
  O2-  O471  1  0.91611754  0.34111386  0.19239452  1
  O2-  O472  1  0.89538210  0.32990276  0.50873585  1
  O2-  O473  1  0.89362968  0.30072012  0.86125527  1
  O2-  O474  1  0.93042773  0.58572328  0.18927412  1
  O2-  O475  1  0.91494168  0.57373295  0.51248714  1
  O2-  O476  1  0.91105480  0.59098846  0.86615406  1
  O2-  O477  1  0.92809647  0.82249012  0.18806686  1
  O2-  O478  1  0.95687900  0.84597133  0.47945232  1
  O2-  O479  1  0.89245817  0.81890445  0.86520990  1
  O2-  O480  1  0.16545467  0.08453422  0.32066434  1
  O2-  O481  1  0.12336983  0.08006783  0.62373083  1
  O2-  O482  1  0.16228960  0.07249838  0.98849921  1
  O2-  O483  1  0.16162550  0.32472599  0.31792815  1
  O2-  O484  1  0.18620096  0.35839310  0.64340708  1
  O2-  O485  1  0.15689351  0.32562491  0.97992610  1
  O2-  O486  1  0.17489582  0.58241621  0.31826601  1
  O2-  O487  1  0.15125420  0.58929351  0.64211604  1
  O2-  O488  1  0.17350174  0.59393877  0.98868426  1
  O2-  O489  1  0.18156130  0.84639083  0.32342891  1
  O2-  O490  1  0.16652817  0.81500949  0.64139745  1
  O2-  O491  1  0.15078145  0.82778300  0.97521431  1
  O2-  O492  1  0.41586233  0.08284849  0.30784911  1
  O2-  O493  1  0.41148803  0.08129963  0.63402655  1
  O2-  O494  1  0.39244154  0.05459795  0.99099748  1
  O2-  O495  1  0.42126397  0.33604336  0.31175184  1
  O2-  O496  1  0.42948900  0.33685697  0.64760763  1
  O2-  O497  1  0.34535762  0.33752876  1.00348071  1
  O2-  O498  1  0.41654975  0.57573225  0.31480197  1
  O2-  O499  1  0.42932738  0.58362937  0.63929462  1
  O2-  O500  1  0.41801664  0.57278349  0.97973099  1
  O2-  O501  1  0.47376367  0.85175342  0.32998261  1
  O2-  O502  1  0.42147139  0.82851445  0.63499852  1
  O2-  O503  1  0.41941416  0.81141600  1.00412648  1
  O2-  O504  1  0.65426406  0.07269699  0.31470555  1
  O2-  O505  1  0.66384760  0.09694473  0.63567621  1
  O2-  O506  1  0.66324075  0.07912264  0.98387952  1
  O2-  O507  1  0.67063655  0.34349609  0.29901473  1
  O2-  O508  1  0.67252319  0.34577547  0.61997808  1
  O2-  O509  1  0.67339016  0.35068306  0.98121499  1
  O2-  O510  1  0.66435745  0.58201499  0.31689948  1
  O2-  O511  1  0.66134991  0.57409752  0.65048902  1
  O2-  O512  1  0.68126353  0.58514914  0.97987915  1
  O2-  O513  1  0.65101006  0.82209475  0.31079496  1
  O2-  O514  1  0.67050519  0.84678043  0.66305957  1
  O2-  O515  1  0.66772138  0.82805122  1.03695981  1
  O2-  O516  1  0.90840222  0.08200069  0.31704359  1
  O2-  O517  1  0.91058860  0.08941216  0.63788059  1
  O2-  O518  1  0.91259581  0.08597240  0.99120002  1
  O2-  O519  1  0.91231429  0.33421103  0.31708815  1
  O2-  O520  1  0.93937523  0.32094525  0.64210989  1
  O2-  O521  1  0.91584653  0.33367206  0.98795639  1
  O2-  O522  1  0.92404167  0.58937949  0.31120015  1
  O2-  O523  1  0.90548807  0.57015287  0.63914935  1
  O2-  O524  1  0.92866673  0.59703282  0.97922205  1
  O2-  O525  1  0.94412518  0.87722619  0.30809485  1
  O2-  O526  1  0.86147253  0.81223803  0.61716320  1
  O2-  O527  1  0.91315210  0.83363226  0.98925071  1
  O2-  O528  1  0.08274010  0.15947478  0.02348575  1
  O2-  O529  1  0.07208987  0.16131425  0.36529271  1
  O2-  O530  1  0.09643916  0.20049991  0.66161375  1
  O2-  O531  1  0.08692901  0.42608975  0.02408549  1
  O2-  O532  1  0.08222665  0.41341997  0.35570798  1
  O2-  O533  1  0.09743986  0.43025681  0.69415699  1
  O2-  O534  1  0.09219819  0.67765497  0.02513469  1
  O2-  O535  1  0.09510656  0.67593248  0.34859384  1
  O2-  O536  1  0.06479979  0.65756339  0.69118882  1
  O2-  O537  1  0.07910200  0.90712709  0.02083762  1
  O2-  O538  1  0.11348141  0.93506198  0.38039602  1
  O2-  O539  1  0.18652130  0.96046568  0.69591803  1
  O2-  O540  1  0.32855763  0.16711061  0.02972141  1
  O2-  O541  1  0.33653336  0.16847849  0.35038398  1
  O2-  O542  1  0.33405436  0.16003405  0.68596317  1
  O2-  O543  1  0.42900434  0.41080727  -0.01765965  1
  O2-  O544  1  0.33113794  0.40924818  0.35799524  1
  O2-  O545  1  0.35201491  0.43109235  0.68884148  1
  O2-  O546  1  0.33689531  0.64816631  0.03482014  1
  O2-  O547  1  0.35120854  0.67505496  0.35594206  1
  O2-  O548  1  0.34635547  0.66061953  0.69178314  1
  O2-  O549  1  0.33968506  0.89981657  0.04228015  1
  O2-  O550  1  0.33247491  0.92251028  0.35123839  1
  O2-  O551  1  0.33474507  0.90830993  0.66768344  1
  O2-  O552  1  0.56191356  0.15098572  0.02112378  1
  O2-  O553  1  0.58426854  0.17619966  0.33646647  1
  O2-  O554  1  0.57242534  0.17522278  0.67852655  1
  O2-  O555  1  0.58310809  0.42244217  0.02385139  1
  O2-  O556  1  0.58323034  0.41479059  0.35628245  1
  O2-  O557  1  0.58376057  0.43021083  0.69228338  1
  O2-  O558  1  0.58721279  0.65541809  0.02015377  1
  O2-  O559  1  0.57888108  0.66207042  0.36026562  1
  O2-  O560  1  0.59329996  0.67190096  0.67502624  1
  O2-  O561  1  0.58794463  0.91956496  0.03532649  1
  O2-  O562  1  0.56723754  0.90213370  0.34418844  1
  O2-  O563  1  0.58316381  0.93075764  0.67752720  1
  O2-  O564  1  0.82624912  0.16706059  0.03050055  1
  O2-  O565  1  0.81992959  0.16345091  0.35352916  1
  O2-  O566  1  0.82711249  0.16566021  0.68089883  1
  O2-  O567  1  0.84870058  0.43743506  0.02093680  1
  O2-  O568  1  0.83127119  0.41918709  0.34952782  1
  O2-  O569  1  0.86971211  0.42092204  0.70024171  1
  O2-  O570  1  0.84298596  0.66748927  0.02595346  1
  O2-  O571  1  0.83563900  0.66916647  0.35105779  1
  O2-  O572  1  0.81895487  0.66909954  0.68894406  1
  O2-  O573  1  0.84175731  0.92289989  0.03871309  1
  O2-  O574  1  0.82080250  0.91623160  0.35492286  1
  O2-  O575  1  0.84226999  0.92760800  0.68913418  1
