# generated using pymatgen
data_H2O
_symmetry_space_group_name_H-M   'P 1'
_cell_length_a   17.99793265
_cell_length_b   17.99780438
_cell_length_c   22.00973527
_cell_angle_alpha   90.01441197
_cell_angle_beta   90.00154052
_cell_angle_gamma   119.98605003
_symmetry_Int_Tables_number   1
_chemical_formula_structural   H2O
_chemical_formula_sum   'H384 O192'
_cell_volume   6175.16563286
_cell_formula_units_Z   192
loop_
 _symmetry_equiv_pos_site_id
 _symmetry_equiv_pos_as_xyz
  1  'x, y, z'
loop_
 _atom_type_symbol
 _atom_type_oxidation_number
  H+  1.0
  O2-  -2.0
loop_
 _atom_site_type_symbol
 _atom_site_label
 _atom_site_symmetry_multiplicity
 _atom_site_fract_x
 _atom_site_fract_y
 _atom_site_fract_z
 _atom_site_occupancy
  H+  H0  1  0.12539524  0.66575195  0.20248847  1
  H+  H1  1  0.11032666  0.34713704  1.01207110  1
  H+  H2  1  0.37962296  0.14908529  0.49509089  1
  H+  H3  1  0.71365877  0.59636687  0.66292234  1
  H+  H4  1  0.47269102  0.11055187  0.32755057  1
  H+  H5  1  0.53310081  0.88220149  -0.00077897  1
  H+  H6  1  0.22120319  0.85126347  0.83886830  1
  H+  H7  1  0.86011172  0.70554556  0.34691134  1
  H+  H8  1  0.63811386  0.90256521  0.67997829  1
  H+  H9  1  1.00362805  0.84149768  0.31969753  1
  H+  H10  1  0.74707997  0.91801550  0.32272249  1
  H+  H11  1  0.86956336  0.50961451  0.50700197  1
  H+  H12  1  0.51686823  0.63368297  0.02199104  1
  H+  H13  1  0.11960077  1.01943906  0.83579124  1
  H+  H14  1  0.41239679  0.77950377  0.17030202  1
  H+  H15  1  0.68118441  0.66946188  0.01645196  1
  H+  H16  1  0.09571209  0.62032989  0.49978062  1
  H+  H17  1  0.62210703  0.99070083  0.15320676  1
  H+  H18  1  0.61683851  0.23110837  0.67277444  1
  H+  H19  1  0.21288137  0.63019910  0.99919533  1
  H+  H20  1  0.85532012  0.23847875  0.66666140  1
  H+  H21  1  0.89905126  0.88847861  0.84531930  1
  H+  H22  1  0.98383040  0.09358543  0.84930802  1
  H+  H23  1  0.76170096  0.37675566  0.49208860  1
  H+  H24  1  0.33899991  0.67078039  0.10815045  1
  H+  H25  1  0.62722488  0.64510316  0.16605469  1
  H+  H26  1  0.39524329  0.35887937  0.84389438  1
  H+  H27  1  0.85478410  0.62342560  0.67274213  1
  H+  H28  1  0.10503883  0.86084884  0.81260078  1
  H+  H29  1  0.16122601  0.55642425  0.18814136  1
  H+  H30  1  0.23421945  0.87564106  -0.02128648  1
  H+  H31  1  0.04770973  0.41886469  0.15860888  1
  H+  H32  1  0.88313289  0.12500343  0.66989114  1
  H+  H33  1  0.36985109  0.14880249  0.67890645  1
  H+  H34  1  0.86299416  0.22754355  0.01162556  1
  H+  H35  1  0.97126471  0.11207926  0.15744780  1
  H+  H36  1  0.60625418  0.46450555  1.00364951  1
  H+  H37  1  0.58725477  0.84148803  0.31203417  1
  H+  H38  1  0.24277275  0.62542814  0.34488346  1
  H+  H39  1  0.77805711  0.19542937  0.82046688  1
  H+  H40  1  0.63806237  0.36874697  0.50372677  1
  H+  H41  1  0.24118083  0.19283384  0.77520033  1
  H+  H42  1  0.23483935  0.88058840  0.50182113  1
  H+  H43  1  0.39615696  0.37513502  0.66734817  1
  H+  H44  1  0.74730452  0.87666476  0.31874177  1
  H+  H45  1  0.32067615  0.45500333  0.13236155  1
  H+  H46  1  0.86243467  0.97334134  0.49648585  1
  H+  H47  1  0.11059348  0.22844463  1.00545662  1
  H+  H48  1  0.14066010  0.36658114  0.49743060  1
  H+  H49  1  0.60592891  0.87771445  0.49284337  1
  H+  H50  1  0.62812966  0.35989360  0.65984011  1
  H+  H51  1  0.35357868  0.34051926  0.00152083  1
  H+  H52  1  0.36762521  0.23382877  0.34050510  1
  H+  H53  1  0.37326987  0.09450770  0.81715089  1
  H+  H54  1  0.66213963  0.32908193  0.56197341  1
  H+  H55  1  0.14165661  0.52613348  0.65929447  1
  H+  H56  1  0.23522232  0.11490806  0.32533531  1
  H+  H57  1  0.61981063  0.39354540  0.16474708  1
  H+  H58  1  0.14495173  0.78703398  0.17774996  1
  H+  H59  1  0.61109043  0.13152491  0.34019942  1
  H+  H60  1  0.63772484  0.52972302  0.32589967  1
  H+  H61  1  0.26291285  0.83847577  0.12659597  1
  H+  H62  1  0.57904904  0.16018686  0.43588666  1
  H+  H63  1  0.36688472  0.12335579  0.15575750  1
  H+  H64  1  0.35552654  0.95563616  0.82579199  1
  H+  H65  1  0.46489053  0.83871719  0.83939258  1
  H+  H66  1  0.40981082  0.83040739  0.55969867  1
  H+  H67  1  0.62031092  0.39756112  0.34614698  1
  H+  H68  1  0.03024357  0.39691073  0.49890814  1
  H+  H69  1  0.28790595  0.73957823  0.06595012  1
  H+  H70  1  0.24036183  0.36417227  0.35468808  1
  H+  H71  1  0.60998733  0.70791306  0.51164006  1
  H+  H72  1  0.39944757  0.37453015  0.34103319  1
  H+  H73  1  1.02491680  0.64105403  0.81993224  1
  H+  H74  1  0.12595419  0.75153251  0.34101050  1
  H+  H75  1  0.38567984  1.02405301  0.50342898  1
  H+  H76  1  0.64163400  0.02088989  0.50023325  1
  H+  H77  1  0.86964080  0.72165499  0.15845550  1
  H+  H78  1  0.19233089  0.60564279  0.28272772  1
  H+  H79  1  0.16347062  0.04647981  0.65960599  1
  H+  H80  1  0.52810930  0.38827219  0.16285851  1
  H+  H81  1  0.32659874  0.51284174  0.98988045  1
  H+  H82  1  0.03009064  0.65577465  0.20121577  1
  H+  H83  1  0.72999952  0.86635360  0.66199818  1
  H+  H84  1  0.89558054  0.08728590  0.43762986  1
  H+  H85  1  0.07803133  0.91890676  0.65340802  1
  H+  H86  1  0.22817634  0.10646286  0.16852668  1
  H+  H87  1  0.15550406  0.89424888  0.51188982  1
  H+  H88  1  0.50210547  0.62640047  0.17496507  1
  H+  H89  1  0.62884526  0.25475322  0.17819547  1
  H+  H90  1  0.60968910  0.97932029  0.34026910  1
  H+  H91  1  0.77720397  0.13901352  1.00603073  1
  H+  H92  1  0.85904477  0.22148868  0.34591710  1
  H+  H93  1  0.11156970  0.88446256  -0.00008833  1
  H+  H94  1  0.41495687  0.72941756  0.37905836  1
  H+  H95  1  0.72830224  0.61380579  0.32849252  1
  H+  H96  1  0.89278822  0.62218413  0.83409285  1
  H+  H97  1  0.10396920  0.21040283  0.16813917  1
  H+  H98  1  0.86869870  0.48620045  0.16344988  1
  H+  H99  1  0.91391215  0.34959172  0.58173601  1
  H+  H100  1  0.36074416  0.88491223  0.48484457  1
  H+  H101  1  0.85414858  0.38243666  0.49303772  1
  H+  H102  1  0.91231137  0.82456898  0.60784324  1
  H+  H103  1  0.20420967  0.31120893  0.99423829  1
  H+  H104  1  0.39575180  0.60938800  0.51614380  1
  H+  H105  1  0.49350600  0.87523040  0.16347596  1
  H+  H106  1  0.86305021  0.48823532  0.33372137  1
  H+  H107  1  0.63255964  0.26643098  -0.01648960  1
  H+  H108  1  0.86431604  0.38699503  0.01296892  1
  H+  H109  1  0.52643432  0.63577021  0.81578682  1
  H+  H110  1  0.62562197  0.48389882  0.50568804  1
  H+  H111  1  0.12107987  0.54495169  0.98849762  1
  H+  H112  1  0.08940411  -0.00905524  0.48444205  1
  H+  H113  1  0.63497605  0.52444086  0.83664389  1
  H+  H114  1  0.47657853  0.10964680  0.50746218  1
  H+  H115  1  0.31386511  0.86130266  0.73990629  1
  H+  H116  1  0.86826202  0.88463277  0.16795987  1
  H+  H117  1  0.35905722  0.20968203  -0.00161344  1
  H+  H118  1  0.35604899  0.84609061  0.13375602  1
  H+  H119  1  0.39012837  0.51718697  0.82658531  1
  H+  H120  1  0.66378128  0.33316129  0.39557270  1
  H+  H121  1  0.63572626  0.10156654  0.97404661  1
  H+  H122  1  0.77673061  0.12836031  0.52822885  1
  H+  H123  1  0.58802689  0.18311911  0.85271706  1
  H+  H124  1  0.13232401  0.11696050  0.50176660  1
  H+  H125  1  0.33213146  0.41622476  -0.00264439  1
  H+  H126  1  0.62407094  0.73437388  0.16216497  1
  H+  H127  1  0.38029570  0.10570712  -0.01792001  1
  H+  H128  1  0.38062937  0.36097763  0.51854490  1
  H+  H129  1  0.25965032  0.83412228  0.67825007  1
  H+  H130  1  0.64046272  0.76896292  0.84011984  1
  H+  H131  1  0.20204188  0.34143649  0.17436036  1
  H+  H132  1  0.07941515  0.42757711  0.43113874  1
  H+  H133  1  0.16022434  0.86681278  0.65742314  1
  H+  H134  1  0.77530932  0.38380262  0.00841957  1
  H+  H135  1  0.86423329  0.97234232  0.15971915  1
  H+  H136  1  0.25478588  0.63591336  0.18527585  1
  H+  H137  1  0.13023042  0.38923249  0.67567124  1
  H+  H138  1  0.61756216  0.81366811  0.25217578  1
  H+  H139  1  0.12503792  0.48595960  0.83183012  1
  H+  H140  1  0.14285116  0.44425916  0.02964652  1
  H+  H141  1  0.38190108  0.78212620  0.30895495  1
  H+  H142  1  0.38765205  0.26876482  0.51331361  1
  H+  H143  1  0.64270403  0.77618741  0.66126788  1
  H+  H144  1  0.28573161  0.63658802  0.66053295  1
  H+  H145  1  0.87605702  0.25059793  0.82672076  1
  H+  H146  1  0.71065119  0.07069661  0.82735459  1
  H+  H147  1  0.88293218  0.12048555  -0.00839858  1
  H+  H148  1  0.93884134  0.36323180  0.66520817  1
  H+  H149  1  0.90779418  0.57293511  0.60120652  1
  H+  H150  1  0.61067946  0.47565207  0.67190177  1
  H+  H151  1  0.99266585  0.37667132  0.84501702  1
  H+  H152  1  0.77678958  0.63153834  0.83059500  1
  H+  H153  1  0.73988468  0.12814598  0.67149310  1
  H+  H154  1  0.95010259  0.83181170  0.67585615  1
  H+  H155  1  0.12521882  0.87845096  0.34090889  1
  H+  H156  1  0.59409725  0.94851532  0.83254351  1
  H+  H157  1  0.01008763  0.94971013  0.43755907  1
  H+  H158  1  0.48374980  0.36080203  0.84377772  1
  H+  H159  1  0.37911917  0.36977875  0.17266745  1
  H+  H160  1  0.86472085  0.21688762  0.52989532  1
  H+  H161  1  -0.02101910  0.86133667  -0.00619245  1
  H+  H162  1  0.68155709  0.79621016  1.00011949  1
  H+  H163  1  0.62669914  0.88938782  1.00186076  1
  H+  H164  1  0.87972040  0.36358535  0.32646458  1
  H+  H165  1  0.64181681  0.01612048  0.98241822  1
  H+  H166  1  0.35571168  0.62557715  0.80919656  1
  H+  H167  1  0.39012836  0.27818333  0.66729828  1
  H+  H168  1  0.28576389  0.15500956  0.67410872  1
  H+  H169  1  -0.00417687  0.94403717  0.86737623  1
  H+  H170  1  0.97105326  0.86212773  0.51208260  1
  H+  H171  1  0.10927831  0.33058351  0.18048344  1
  H+  H172  1  0.72533499  0.12854550  0.18114708  1
  H+  H173  1  0.41440866  0.08704464  0.23327620  1
  H+  H174  1  0.47524971  0.34626591  0.99413476  1
  H+  H175  1  0.26170784  0.87838098  0.33155678  1
  H+  H176  1  0.50052396  0.58592243  1.02222117  1
  H+  H177  1  0.11510589  0.97656072  0.15415509  1
  H+  H178  1  0.12298702  0.26099651  0.65700175  1
  H+  H179  1  0.10602334  0.12114427  0.16745243  1
  H+  H180  1  0.11483749  0.12730384  0.32890087  1
  H+  H181  1  0.86282700  0.71856819  0.49826233  1
  H+  H182  1  0.41208447  0.52823457  0.67025494  1
  H+  H183  1  0.35402028  0.72376879  0.50056356  1
  H+  H184  1  0.61168625  0.22077720  0.34524680  1
  H+  H185  1  0.14401502  0.12373342  0.65499491  1
  H+  H186  1  0.60319235  0.86488181  0.83242568  1
  H+  H187  1  0.71682185  0.60357253  0.52114548  1
  H+  H188  1  0.52997248  0.39501536  0.34409116  1
  H+  H189  1  0.72156662  0.85662961  0.50846941  1
  H+  H190  1  0.37252399  0.63111721  0.66868884  1
  H+  H191  1  0.64036843  0.11894499  0.67206439  1
  H+  H192  1  0.36733229  0.14444228  0.33964459  1
  H+  H193  1  0.89220225  0.09286482  0.11570990  1
  H+  H194  1  0.64113912  0.52862561  0.17414251  1
  H+  H195  1  0.34812823  0.74082679  0.01553985  1
  H+  H196  1  0.13181209  0.76331608  0.83554001  1
  H+  H197  1  0.53627191  0.64385541  0.67246282  1
  H+  H198  1  0.33259954  0.52423018  0.02329182  1
  H+  H199  1  0.60309141  0.11113995  0.82562002  1
  H+  H200  1  0.36792243  0.28556160  0.20143000  1
  H+  H201  1  0.11071718  0.65904087  1.00649105  1
  H+  H202  1  0.98441033  0.10966010  0.32397379  1
  H+  H203  1  0.13187285  0.75424357  1.01085665  1
  H+  H204  1  0.01430591  0.39833436  0.34543170  1
  H+  H205  1  0.11904267  0.89032883  0.14712913  1
  H+  H206  1  0.12737202  0.01076380  0.99219443  1
  H+  H207  1  0.87630549  0.60255964  0.50968973  1
  H+  H208  1  -0.01724608  0.36112145  -0.00147449  1
  H+  H209  1  0.33315759  0.89555290  1.04180579  1
  H+  H210  1  0.88462113  0.88518791  0.35001478  1
  H+  H211  1  0.11186522  0.63268023  0.35352875  1
  H+  H212  1  0.27883304  0.38926730  0.49866695  1
  H+  H213  1  0.00472425  0.61599938  0.49909370  1
  H+  H214  1  0.90580665  0.38094025  0.84380902  1
  H+  H215  1  0.38087890  0.63760582  0.16075345  1
  H+  H216  1  0.79826345  0.40986045  0.83228178  1
  H+  H217  1  0.46612755  0.85286364  0.49916408  1
  H+  H218  1  0.09856708  0.11102755  0.01350727  1
  H+  H219  1  0.37053869  0.47731054  0.50667060  1
  H+  H220  1  0.38471449  0.63900588  0.34841646  1
  H+  H221  1  0.88792332  0.87035942  1.00071051  1
  H+  H222  1  0.67197639  0.30807553  0.83098074  1
  H+  H223  1  0.86477111  -0.01681168  0.67761375  1
  H+  H224  1  0.13159498  0.50255180  0.50197218  1
  H+  H225  1  0.92753621  0.30462709  0.16830106  1
  H+  H226  1  0.96500314  0.75010536  0.28960210  1
  H+  H227  1  0.78327214  0.63387741  0.16360755  1
  H+  H228  1  0.21520728  0.33865450  0.64505807  1
  H+  H229  1  0.88189427  0.85564830  0.52056395  1
  H+  H230  1  0.62389647  0.40094877  0.82350105  1
  H+  H231  1  0.86126889  0.13475138  0.34087461  1
  H+  H232  1  0.51205087  0.12281910  0.98324845  1
  H+  H233  1  0.02527993  0.14455527  0.47528961  1
  H+  H234  1  0.84390511  0.70655591  0.67341559  1
  H+  H235  1  0.96048994  0.10133988  0.99419513  1
  H+  H236  1  0.42141281  0.32114531  0.92980877  1
  H+  H237  1  0.37190685  0.21134372  0.13693847  1
  H+  H238  1  0.59086782  0.71832403  0.32763300  1
  H+  H239  1  0.46210666  0.09665496  0.82476374  1
  H+  H240  1  0.60987646  0.22282607  0.49372721  1
  H+  H241  1  0.74548328  0.38716711  0.17524599  1
  H+  H242  1  0.57814612  0.56060601  0.97409212  1
  H+  H243  1  0.48061866  0.12525807  0.17897666  1
  H+  H244  1  0.79775723  0.90000983  1.00826676  1
  H+  H245  1  0.86261212  -0.01934988  0.83235906  1
  H+  H246  1  0.42387574  0.53318294  0.18657932  1
  H+  H247  1  0.07157286  0.14064968  0.07610148  1
  H+  H248  1  0.41175911  0.08629531  0.60397589  1
  H+  H249  1  0.63583017  0.12506847  0.17848143  1
  H+  H250  1  0.48698799  0.61425810  0.33547251  1
  H+  H251  1  0.10710837  0.48764044  0.34752780  1
  H+  H252  1  0.71790281  0.36265213  0.66232187  1
  H+  H253  1  0.86302937  0.89238130  0.67667741  1
  H+  H254  1  0.51542192  0.89827224  0.33752245  1
  H+  H255  1  0.04309756  0.38539421  0.68453486  1
  H+  H256  1  0.95891627  0.43701603  0.54350896  1
  H+  H257  1  0.73000074  0.86693550  0.17295836  1
  H+  H258  1  0.82745908  0.65410224  0.76826405  1
  H+  H259  1  0.00372344  0.68237168  0.01059730  1
  H+  H260  1  0.22881112  0.61620558  0.82967115  1
  H+  H261  1  0.86788879  0.16358204  0.18164646  1
  H+  H262  1  0.61400516  0.64234475  0.33535941  1
  H+  H263  1  0.02210718  0.13891684  0.68502959  1
  H+  H264  1  0.38405736  0.84376304  0.65483732  1
  H+  H265  1  0.64458661  0.11080645  0.50100947  1
  H+  H266  1  0.64440253  0.87302540  0.16252614  1
  H+  H267  1  0.21585648  0.10040083  0.98639841  1
  H+  H268  1  0.35483222  0.89012825  0.32625535  1
  H+  H269  1  0.38010251  0.48334491  0.35223145  1
  H+  H270  1  0.36921362  -0.02524864  0.99229476  1
  H+  H271  1  0.95795660  0.59984613  0.33294813  1
  H+  H272  1  0.31297835  0.41718475  0.68337376  1
  H+  H273  1  0.47434716  0.11595928  0.65988177  1
  H+  H274  1  0.11598949  0.23204757  0.47934461  1
  H+  H275  1  0.59505272  0.67088432  0.76205277  1
  H+  H276  1  0.35607001  0.86642943  0.83495115  1
  H+  H277  1  0.85495625  0.61332341  0.34396564  1
  H+  H278  1  0.36829979  0.64340584  0.95860153  1
  H+  H279  1  0.98150357  0.86389685  0.16692231  1
  H+  H280  1  0.72713327  0.11211573  0.33028026  1
  H+  H281  1  0.11217566  0.72056857  0.66367956  1
  H+  H282  1  0.90253708  0.53728843  0.83590562  1
  H+  H283  1  0.39858446  0.86352387  0.98158545  1
  H+  H284  1  0.62109457  0.63627748  0.67037051  1
  H+  H285  1  0.84189218  0.37807713  0.67164091  1
  H+  H286  1  -0.02740560  0.60706318  0.65812487  1
  H+  H287  1  0.13562998  0.61282148  0.65431457  1
  H+  H288  1  0.15108792  0.02062510  0.32270599  1
  H+  H289  1  0.07950588  0.91123565  0.06100083  1
  H+  H290  1  0.09905438  0.42567781  0.77340856  1
  H+  H291  1  0.17315969  0.59652848  0.89177197  1
  H+  H292  1  0.21458456  0.88031516  0.20135225  1
  H+  H293  1  0.08390042  0.66398688  0.72448406  1
  H+  H294  1  0.91861527  0.60024299  0.92458949  1
  H+  H295  1  0.14180524  0.36747353  0.83777602  1
  H+  H296  1  0.17478838  0.07795144  0.23127418  1
  H+  H297  1  0.83224997  0.92087860  0.77257102  1
  H+  H298  1  0.83489427  0.18741768  0.73216487  1
  H+  H299  1  0.63849621  0.61511649  0.83762476  1
  H+  H300  1  0.37943055  0.02539186  0.32454957  1
  H+  H301  1  0.46309027  0.66740678  0.96777116  1
  H+  H302  1  0.05131617  0.36865184  0.10111150  1
  H+  H303  1  0.40528774  0.07635475  0.91960726  1
  H+  H304  1  0.90776309  0.98233579  0.35322591  1
  H+  H305  1  0.56919211  0.13059640  0.03971226  1
  H+  H306  1  0.35504730  0.42506514  0.41330399  1
  H+  H307  1  0.08792038  0.16312128  0.38644460  1
  H+  H308  1  0.11195961  0.17616177  0.72571851  1
  H+  H309  1  0.67238175  0.58681568  0.23485368  1
  H+  H310  1  0.35192171  0.18442736  0.43692868  1
  H+  H311  1  0.17567383  0.83398684  0.59413184  1
  H+  H312  1  0.85351685  0.47288182  0.67550524  1
  H+  H313  1  0.61137406  0.61643546  0.51762913  1
  H+  H314  1  0.16237893  0.83583699  0.92615473  1
  H+  H315  1  0.73697159  0.36980916  0.34621265  1
  H+  H316  1  0.35997949  0.41943382  0.76271853  1
  H+  H317  1  0.41097799  0.32958559  0.58455937  1
  H+  H318  1  0.59663802  0.20738415  0.11661736  1
  H+  H319  1  0.48747264  0.60706708  0.51869420  1
  H+  H320  1  0.91741232  0.08365157  0.90008845  1
  H+  H321  1  0.11263426  0.63677548  0.81905126  1
  H+  H322  1  0.91531766  0.09840615  0.61259294  1
  H+  H323  1  0.32919551  0.66389775  0.75366172  1
  H+  H324  1  0.92496729  0.85228109  0.93147869  1
  H+  H325  1  0.08902396  0.91701610  0.39345320  1
  H+  H326  1  0.84326162  0.90560822  0.07221030  1
  H+  H327  1  0.84997123  0.90947872  0.44564569  1
  H+  H328  1  0.83163364  0.42485001  0.10396415  1
  H+  H329  1  0.88430560  0.11598654  0.50328873  1
  H+  H330  1  0.65740377  0.57049034  0.59768391  1
  H+  H331  1  0.59969518  0.92038051  0.74164333  1
  H+  H332  1  0.10226465  0.91906998  0.72399811  1
  H+  H333  1  0.37396198  0.75281530  0.83610058  1
  H+  H334  1  0.63298213  0.35551020  0.99082598  1
  H+  H335  1  0.57716281  0.90935017  0.43336091  1
  H+  H336  1  0.16447267  0.57242021  0.56966990  1
  H+  H337  1  0.90131064  0.31666892  0.27347998  1
  H+  H338  1  0.82983732  0.65626036  0.43953905  1
  H+  H339  1  0.84470138  0.42502388  0.76840609  1
  H+  H340  1  0.59672065  0.93158565  0.09239949  1
  H+  H341  1  0.68955172  0.36406916  0.23843216  1
  H+  H342  1  0.31033567  0.37976707  0.09008929  1
  H+  H343  1  0.16025931  0.08391561  0.56062192  1
  H+  H344  1  0.58477622  0.41043406  0.06566347  1
  H+  H345  1  0.15241561  0.28454753  0.33773725  1
  H+  H346  1  0.83876450  0.42196489  0.39386632  1
  H+  H347  1  0.32615030  0.14409479  0.05500264  1
  H+  H348  1  0.42161462  0.84596318  0.25304176  1
  H+  H349  1  0.42801894  0.58081772  0.60717290  1
  H+  H350  1  0.92690969  0.34006478  0.93855731  1
  H+  H351  1  0.64946931  0.57155178  0.92777323  1
  H+  H352  1  0.93019085  0.82428338  0.22829947  1
  H+  H353  1  0.28961985  0.38354062  0.81831844  1
  H+  H354  1  0.40833667  0.77499925  0.64278382  1
  H+  H355  1  0.91447715  0.58073578  0.24466455  1
  H+  H356  1  0.13566794  0.77846706  0.27391656  1
  H+  H357  1  0.90876137  0.06780350  0.27449837  1
  H+  H358  1  0.58581958  0.17187283  0.73283215  1
  H+  H359  1  0.67879781  0.34550217  0.89857042  1
  H+  H360  1  0.41527069  0.59588450  0.87433592  1
  H+  H361  1  0.66742008  0.06637797  0.89269013  1
  H+  H362  1  0.72679567  0.86188889  0.84035543  1
  H+  H363  1  0.17923700  0.21022189  0.81755218  1
  H+  H364  1  0.15684733  0.32790030  0.55762929  1
  H+  H365  1  0.11983739  0.05464051  0.90208701  1
  H+  H366  1  0.42772389  0.35301962  0.27754515  1
  H+  H367  1  0.12860721  0.26185422  0.91062555  1
  H+  H368  1  0.65168930  0.69893797  0.07504798  1
  H+  H369  1  0.58425377  0.41966100  0.76387919  1
  H+  H370  1  0.66640738  0.08506405  0.27055613  1
  H+  H371  1  0.01967217  0.86871730  0.81151745  1
  H+  H372  1  0.23060250  0.60821960  0.50868014  1
  H+  H373  1  0.68329020  0.83987079  0.93553458  1
  H+  H374  1  0.41820914  0.81358390  0.93114066  1
  H+  H375  1  0.60054812  0.43275784  0.44057867  1
  H+  H376  1  0.65054822  1.02644568  0.67970161  1
  H+  H377  1  0.66524510  0.83412651  0.56816269  1
  H+  H378  1  0.89866655  0.61816386  0.18134415  1
  H+  H379  1  0.52252382  0.38496563  0.67374287  1
  H+  H380  1  0.07060901  0.65326474  0.41159427  1
  H+  H381  1  0.42327029  0.58698218  0.27762648  1
  H+  H382  1  0.33186635  0.91754720  0.42602607  1
  H+  H383  1  0.32847772  0.65701435  0.44557884  1
  O2-  O384  1  0.07419243  0.14935394  0.15163244  1
  O2-  O385  1  0.08731317  0.17133207  0.46502811  1
  O2-  O386  1  0.12611787  0.25559457  0.86512920  1
  O2-  O387  1  0.03471791  0.36207220  0.14519143  1
  O2-  O388  1  0.08884962  0.42635816  0.47968040  1
  O2-  O389  1  0.09528272  0.42374781  0.81841852  1
  O2-  O390  1  0.09485890  0.69797547  0.20728216  1
  O2-  O391  1  0.06460989  0.64713936  0.48278157  1
  O2-  O392  1  0.08500834  0.66846581  0.80224958  1
  O2-  O393  1  0.08362752  0.91710436  0.13678129  1
  O2-  O394  1  0.04849971  0.93575668  0.46025518  1
  O2-  O395  1  0.07287976  0.88368028  0.78895611  1
  O2-  O396  1  0.33355917  0.14956225  0.13427638  1
  O2-  O397  1  0.35973800  0.18937883  0.48161812  1
  O2-  O398  1  0.19073331  0.19948776  0.77578743  1
  O2-  O399  1  0.31137192  0.39680574  0.13417144  1
  O2-  O400  1  0.34144786  0.41634108  0.49015465  1
  O2-  O401  1  0.35183727  0.41454989  0.81028164  1
  O2-  O402  1  0.35012501  0.66983908  0.15248562  1
  O2-  O403  1  0.32291593  0.65932197  0.49025818  1
  O2-  O404  1  0.32489837  0.65764263  0.79942552  1
  O2-  O405  1  0.30894926  0.83422890  0.10441544  1
  O2-  O406  1  0.33417337  0.91946133  0.47114816  1
  O2-  O407  1  0.32311959  0.89331130  0.81820530  1
  O2-  O408  1  0.59461848  0.19488233  0.15980306  1
  O2-  O409  1  0.58084897  0.16109968  0.48113354  1
  O2-  O410  1  0.57363164  0.14525874  0.81764716  1
  O2-  O411  1  0.58616869  0.41810081  0.14535354  1
  O2-  O412  1  0.60464596  0.42481519  0.48446069  1
  O2-  O413  1  0.58615174  0.42300081  0.80995125  1
  O2-  O414  1  0.59565612  0.67306864  0.14808123  1
  O2-  O415  1  0.57615044  0.64569473  0.50442179  1
  O2-  O416  1  0.58963046  0.66808063  0.80785640  1
  O2-  O417  1  0.59498473  0.93048547  0.13781108  1
  O2-  O418  1  0.57456577  0.90736398  0.47862386  1
  O2-  O419  1  0.56702443  0.88916911  0.81652316  1
  O2-  O420  1  0.83183255  0.18857568  0.16960189  1
  O2-  O421  1  0.84000828  0.15636393  0.53974392  1
  O2-  O422  1  0.82997517  0.19537203  0.80825905  1
  O2-  O423  1  0.82992519  0.42627828  0.14964372  1
  O2-  O424  1  0.82239806  0.40915654  0.47546018  1
  O2-  O425  1  0.85576388  0.43203231  0.81349977  1
  O2-  O426  1  0.84371344  0.65966524  0.15025368  1
  O2-  O427  1  0.83322450  0.65798108  0.48508132  1
  O2-  O428  1  0.83533883  0.65905163  0.81312179  1
  O2-  O429  1  0.83415053  0.91011628  0.15068355  1
  O2-  O430  1  0.83601840  0.91052695  0.48934027  1
  O2-  O431  1  0.82996784  0.91836929  0.81773996  1
  O2-  O432  1  0.16922562  0.07708236  0.18558138  1
  O2-  O433  1  0.14882107  0.07488149  0.51627863  1
  O2-  O434  1  0.08914765  0.03893256  0.86224289  1
  O2-  O435  1  0.14523168  0.30599112  0.19279135  1
  O2-  O436  1  0.16757542  0.33385163  0.51324955  1
  O2-  O437  1  0.18184286  0.34542792  0.84819131  1
  O2-  O438  1  0.19611027  0.61451339  0.20355777  1
  O2-  O439  1  0.16660856  0.57063278  0.52252787  1
  O2-  O440  1  0.16871361  0.58787888  0.84706609  1
  O2-  O441  1  0.18508063  0.84960543  0.16450630  1
  O2-  O442  1  0.17746138  0.85623319  0.52189117  1
  O2-  O443  1  0.15936999  0.82389005  0.85159983  1
  O2-  O444  1  0.41875383  0.08897213  0.18785425  1
  O2-  O445  1  0.41545036  0.08285903  0.52113014  1
  O2-  O446  1  0.40194118  0.06951722  0.83990830  1
  O2-  O447  1  0.41175579  0.34407277  0.19127078  1
  O2-  O448  1  0.40839695  0.32822161  0.53560355  1
  O2-  O449  1  0.42500108  0.32931649  0.86143666  1
  O2-  O450  1  0.43989153  0.59318306  0.19090902  1
  O2-  O451  1  0.42082844  0.57512537  0.53079147  1
  O2-  O452  1  0.41649771  0.58144484  0.83108924  1
  O2-  O453  1  0.43274626  0.84107739  0.17890267  1
  O2-  O454  1  0.40483486  0.82459492  0.51287676  1
  O2-  O455  1  0.40503022  0.81070354  0.85622418  1
  O2-  O456  1  0.66276927  0.09052394  0.18986776  1
  O2-  O457  1  0.67843438  0.08254592  0.51004557  1
  O2-  O458  1  0.65716935  0.06023577  0.84648268  1
  O2-  O459  1  0.68208058  0.35557247  0.19462771  1
  O2-  O460  1  0.66302068  0.32920932  0.51681018  1
  O2-  O461  1  0.69027787  0.36072392  0.85377941  1
  O2-  O462  1  0.67248069  0.58871136  0.18889241  1
  O2-  O463  1  0.65739209  0.57003494  0.53557038  1
  O2-  O464  1  0.66531500  0.58292831  0.85581717  1
  O2-  O465  1  0.66699931  0.83791249  0.18136492  1
  O2-  O466  1  0.66147072  0.82920335  0.52283329  1
  O2-  O467  1  0.66677910  0.82860859  0.85709638  1
  O2-  O468  1  0.90707597  0.08911796  0.15795164  1
  O2-  O469  1  0.91232404  0.08679885  0.47979217  1
  O2-  O470  1  0.92378876  0.07691503  0.85480045  1
  O2-  O471  1  0.87466346  0.27604818  0.19369605  1
  O2-  O472  1  0.93761973  0.37618382  0.53611992  1
  O2-  O473  1  0.93207483  0.34721334  0.86001502  1
  O2-  O474  1  0.93093474  0.59084926  0.19941620  1
  O2-  O475  1  0.90288162  0.56819838  0.52544098  1
  O2-  O476  1  0.93044145  0.59814928  0.84978792  1
  O2-  O477  1  0.92263783  0.83459373  0.18491775  1
  O2-  O478  1  0.91517511  0.82723717  0.53355746  1
  O2-  O479  1  0.94695805  0.88323779  0.86468063  1
  O2-  O480  1  0.17639667  0.08028725  0.30685050  1
  O2-  O481  1  0.18175827  0.10242926  0.63935357  1
  O2-  O482  1  0.15349278  0.07156510  0.97684489  1
  O2-  O483  1  0.17804633  0.34131991  0.35659855  1
  O2-  O484  1  0.15520186  0.32230830  0.63939917  1
  O2-  O485  1  0.14239138  0.28816267  0.98508818  1
  O2-  O486  1  0.18475797  0.59822370  0.32746695  1
  O2-  O487  1  0.16618639  0.58219154  0.63820321  1
  O2-  O488  1  0.16288530  0.59955597  0.97067149  1
  O2-  O489  1  0.15350425  0.80580197  0.31431567  1
  O2-  O490  1  0.17082619  0.82264309  0.63933513  1
  O2-  O491  1  0.17111618  0.84720647  0.97121922  1
  O2-  O492  1  0.41296580  0.08663076  0.31136944  1
  O2-  O493  1  0.41346253  0.09124701  0.64898426  1
  O2-  O494  1  0.41380176  0.07919307  0.96441641  1
  O2-  O495  1  0.42644740  0.34191510  0.32133560  1
  O2-  O496  1  0.41972578  0.33700501  0.64756246  1
  O2-  O497  1  0.41591541  0.31318583  0.97697448  1
  O2-  O498  1  0.42141201  0.58374179  0.32236331  1
  O2-  O499  1  0.43201673  0.58781889  0.65253110  1
  O2-  O500  1  0.42127661  0.65999464  0.93671700  1
  O2-  O501  1  0.41099876  0.84316904  0.29832420  1
  O2-  O502  1  0.42410543  0.83326531  0.62905739  1
  O2-  O503  1  0.42410601  0.82555549  0.97624642  1
  O2-  O504  1  0.66555787  0.08294461  0.31579832  1
  O2-  O505  1  0.67442545  0.08953184  0.66106100  1
  O2-  O506  1  0.67077466  0.07501737  0.96318080  1
  O2-  O507  1  0.67016713  0.33438599  0.35142646  1
  O2-  O508  1  0.65855521  0.32873497  0.64532696  1
  O2-  O509  1  0.66332176  0.32748983  0.97146012  1
  O2-  O510  1  0.66992846  0.58978745  0.30950242  1
  O2-  O511  1  0.65377247  0.57049887  0.64798614  1
  O2-  O512  1  0.63348407  0.56299630  0.97285931  1
  O2-  O513  1  0.57939516  0.79141736  0.28809119  1
  O2-  O514  1  0.66990653  0.83729334  0.64658759  1
  O2-  O515  1  0.69028912  0.85053962  0.98031493  1
  O2-  O516  1  0.91901456  0.07423332  0.31819122  1
  O2-  O517  1  0.91445798  0.09411514  0.65682962  1
  O2-  O518  1  0.90799787  0.08792224  0.97173594  1
  O2-  O519  1  0.91044261  0.33084741  0.31708455  1
  O2-  O520  1  0.88755749  0.32665328  0.64187362  1
  O2-  O521  1  0.92339825  0.33618063  0.98390400  1
  O2-  O522  1  0.89945775  0.57220674  0.31614840  1
  O2-  O523  1  0.91045425  0.57566863  0.64693855  1
  O2-  O524  1  0.90449554  0.59414914  0.96943361  1
  O2-  O525  1  0.95039127  0.79419378  0.29964775  1
  O2-  O526  1  0.89915477  0.82021363  0.65301812  1
  O2-  O527  1  0.91829402  0.83811863  0.97730589  1
  O2-  O528  1  0.06653866  0.13859308  0.03067892  1
  O2-  O529  1  0.08153498  0.15538318  0.34134401  1
  O2-  O530  1  0.08584798  0.17073398  0.68457998  1
  O2-  O531  1  0.09134069  0.38792045  0.02991732  1
  O2-  O532  1  0.06852091  0.43331800  0.36855939  1
  O2-  O533  1  0.10384964  0.42224942  0.69347364  1
  O2-  O534  1  0.09935317  0.69737646  0.03161231  1
  O2-  O535  1  0.07627959  0.65809329  0.36549793  1
  O2-  O536  1  0.08191413  0.65969758  0.67892754  1
  O2-  O537  1  0.07659119  0.91026843  0.01537300  1
  O2-  O538  1  0.09772134  0.91399405  0.34884459  1
  O2-  O539  1  0.12627522  0.94091087  0.68134251  1
  O2-  O540  1  0.32498828  0.14722050  0.00973756  1
  O2-  O541  1  0.33545707  0.17305692  0.35483198  1
  O2-  O542  1  0.34192544  0.18105284  0.69524879  1
  O2-  O543  1  0.31213135  0.36068560  0.01705661  1
  O2-  O544  1  0.35737743  0.42368208  0.36789879  1
  O2-  O545  1  0.37029772  0.43165379  0.69566752  1
  O2-  O546  1  0.29995436  0.69883938  0.04268361  1
  O2-  O547  1  0.36276525  0.67815332  0.36573032  1
  O2-  O548  1  0.34284723  0.66439275  0.67956094  1
  O2-  O549  1  0.33918376  0.91145636  -0.00229827  1
  O2-  O550  1  0.32248536  0.91659696  0.34407622  1
  O2-  O551  1  0.30625190  0.83199961  0.70063224  1
  O2-  O552  1  0.57417386  0.14901250  -0.00246322  1
  O2-  O553  1  0.57688821  0.15846448  0.35461928  1
  O2-  O554  1  0.59049141  0.16987954  0.68844872  1
  O2-  O555  1  0.58101257  0.40485942  0.02042573  1
  O2-  O556  1  0.59168821  0.43112017  0.35580146  1
  O2-  O557  1  0.58318488  0.41427691  0.68889966  1
  O2-  O558  1  0.68905843  0.72043021  0.03869567  1
  O2-  O559  1  0.57767442  0.66530663  0.35102019  1
  O2-  O560  1  0.59777876  0.67374501  0.68628242  1
  O2-  O561  1  0.59341783  0.91866509  0.01375719  1
  O2-  O562  1  0.57352614  0.91832262  0.35414092  1
  O2-  O563  1  0.62900899  0.94573804  0.70245106  1
  O2-  O564  1  0.83375966  0.16715838  0.02600892  1
  O2-  O565  1  0.82778106  0.15981857  0.35744917  1
  O2-  O566  1  0.83137682  0.17800698  0.68709311  1
  O2-  O567  1  0.83132307  0.41321131  0.02879151  1
  O2-  O568  1  0.83366934  0.42027223  0.34886785  1
  O2-  O569  1  0.82015339  0.41364853  0.69298609  1
  O2-  O570  1  0.95288832  0.68188417  -0.00958519  1
  O2-  O571  1  0.82475018  0.64672040  0.36226933  1
  O2-  O572  1  0.81982180  0.64782221  0.68965417  1
  O2-  O573  1  0.85319159  0.91322884  0.02745710  1
  O2-  O574  1  0.90744069  0.93463821  0.37700692  1
  O2-  O575  1  0.83376246  0.92283641  0.69233045  1
