# generated using pymatgen
data_H2O
_symmetry_space_group_name_H-M   'P 1'
_cell_length_a   17.99929946
_cell_length_b   18.00538689
_cell_length_c   22.00926407
_cell_angle_alpha   90.00293127
_cell_angle_beta   89.99248680
_cell_angle_gamma   119.99058955
_symmetry_Int_Tables_number   1
_chemical_formula_structural   H2O
_chemical_formula_sum   'H384 O192'
_cell_volume   6177.82189767
_cell_formula_units_Z   192
loop_
 _symmetry_equiv_pos_site_id
 _symmetry_equiv_pos_as_xyz
  1  'x, y, z'
loop_
 _atom_type_symbol
 _atom_type_oxidation_number
  H+  1.0
  O2-  -2.0
loop_
 _atom_site_type_symbol
 _atom_site_label
 _atom_site_symmetry_multiplicity
 _atom_site_fract_x
 _atom_site_fract_y
 _atom_site_fract_z
 _atom_site_occupancy
  H+  H0  1  0.61165892  0.99753629  0.14890166  1
  H+  H1  1  0.34998944  0.06619379  0.89009430  1
  H+  H2  1  0.35038798  0.65836216  0.50252175  1
  H+  H3  1  0.37287758  0.77049298  0.68088442  1
  H+  H4  1  0.15988367  0.78441475  0.97261951  1
  H+  H5  1  0.52222073  0.39307931  0.82873951  1
  H+  H6  1  0.63975379  0.52840067  0.84680432  1
  H+  H7  1  0.74850297  0.39626790  0.66121887  1
  H+  H8  1  0.90255756  0.13109927  0.82671563  1
  H+  H9  1  0.10544164  0.39231810  0.48300530  1
  H+  H10  1  0.89239853  0.52489462  -0.00034062  1
  H+  H11  1  0.60475488  0.70853474  0.35145335  1
  H+  H12  1  0.48924122  0.87605318  0.17483838  1
  H+  H13  1  0.63411496  0.28092316  0.84186258  1
  H+  H14  1  0.88125017  0.26881658  0.52033094  1
  H+  H15  1  0.62652487  0.63076508  0.00659925  1
  H+  H16  1  0.41080921  0.32812759  0.89211940  1
  H+  H17  1  0.40000885  0.27323938  0.66136916  1
  H+  H18  1  0.14340269  1.02140591  0.16772194  1
  H+  H19  1  0.21996529  0.25272795  0.70571871  1
  H+  H20  1  0.50052309  0.87295464  0.84360176  1
  H+  H21  1  0.51958931  0.14364492  0.84305279  1
  H+  H22  1  0.59976715  0.69243754  0.15444407  1
  H+  H23  1  0.39312580  0.26614005  0.98825048  1
  H+  H24  1  0.14135517  0.27782278  0.83815354  1
  H+  H25  1  0.61249266  0.13317972  0.33045636  1
  H+  H26  1  0.62728716  1.02463973  0.31785682  1
  H+  H27  1  0.32992979  0.40702784  0.71984660  1
  H+  H28  1  0.40302350  0.12845315  1.00630978  1
  H+  H29  1  0.94286348  0.86863783  0.67250952  1
  H+  H30  1  0.78135580  0.63664788  0.83025477  1
  H+  H31  1  0.26857505  0.38345712  0.81412764  1
  H+  H32  1  0.13444350  0.25529606  0.99301009  1
  H+  H33  1  0.58909715  0.44563306  0.17189051  1
  H+  H34  1  0.35388460  0.87516146  0.49145801  1
  H+  H35  1  0.97856495  0.10510899  0.48620909  1
  H+  H36  1  0.87297546  0.26961854  0.17083058  1
  H+  H37  1  0.59472407  0.70892135  0.67297955  1
  H+  H38  1  0.77206664  0.63773327  0.49300231  1
  H+  H39  1  0.73728090  0.89610089  0.12947269  1
  H+  H40  1  0.87959125  0.51977737  0.33209763  1
  H+  H41  1  0.35343908  0.09973059  0.35208541  1
  H+  H42  1  0.98393369  0.86239586  1.00574563  1
  H+  H43  1  0.59765199  0.23303191  0.12956516  1
  H+  H44  1  0.15117064  0.09409778  1.01068185  1
  H+  H45  1  0.37913151  0.66601827  1.01592139  1
  H+  H46  1  0.37200405  0.88786221  0.16938313  1
  H+  H47  1  0.83861575  0.42014519  0.06374999  1
  H+  H48  1  0.83459464  0.14675793  0.65745001  1
  H+  H49  1  0.61008465  0.34051933  0.21444595  1
  H+  H50  1  0.03485670  0.64534858  0.34638633  1
  H+  H51  1  0.20962625  0.35724782  0.50021852  1
  H+  H52  1  0.36524011  0.46840467  0.66151795  1
  H+  H53  1  0.86460059  0.72420032  0.49183405  1
  H+  H54  1  0.88896651  0.61662389  0.83782530  1
  H+  H55  1  0.52882664  0.15033683  0.03311305  1
  H+  H56  1  0.13984980  0.89147396  0.67445969  1
  H+  H57  1  0.85746570  0.62982464  0.33962573  1
  H+  H58  1  0.66449736  0.30934331  0.64980076  1
  H+  H59  1  0.51705779  0.39711439  0.33247455  1
  H+  H60  1  0.61475000  0.72230790  0.49282264  1
  H+  H61  1  0.01358347  0.63351456  0.50852353  1
  H+  H62  1  0.34203972  0.17563830  0.06735562  1
  H+  H63  1  0.28018903  0.94012640  0.46582156  1
  H+  H64  1  0.09105333  0.44126401  0.19229082  1
  H+  H65  1  0.76783331  0.38075853  0.33005409  1
  H+  H66  1  0.54216703  0.64130257  1.00270751  1
  H+  H67  1  0.63416810  0.37022869  0.84431307  1
  H+  H68  1  0.11753113  0.38581538  0.32973223  1
  H+  H69  1  0.73004749  0.11989789  0.82548178  1
  H+  H70  1  0.37558539  0.90464679  0.00909998  1
  H+  H71  1  0.36419362  0.38661679  0.50553386  1
  H+  H72  1  0.87926527  0.51932564  0.17618409  1
  H+  H73  1  0.38706078  0.01761144  0.85034609  1
  H+  H74  1  0.58964645  0.81664635  0.14450178  1
  H+  H75  1  0.90090223  0.73491308  0.17054172  1
  H+  H76  1  0.67967390  0.58084671  0.94082346  1
  H+  H77  1  0.34144306  0.93132764  0.39161452  1
  H+  H78  1  0.48700207  0.11422370  0.50575137  1
  H+  H79  1  0.26946935  0.89388610  0.67250377  1
  H+  H80  1  0.29301159  0.65826393  0.17073342  1
  H+  H81  1  0.87306221  0.72605931  0.82458906  1
  H+  H82  1  0.70817983  0.11122474  0.66190204  1
  H+  H83  1  0.26364811  0.38899929  0.16078383  1
  H+  H84  1  0.28292871  0.14608390  0.50734376  1
  H+  H85  1  -0.01718875  0.61848354  -0.00274780  1
  H+  H86  1  0.16118202  0.39038929  0.99801113  1
  H+  H87  1  0.64180809  0.61729849  0.84924311  1
  H+  H88  1  -0.00119161  0.10770691  0.68690967  1
  H+  H89  1  0.39531212  0.01697319  0.31295618  1
  H+  H90  1  0.22221845  0.59697127  0.84362338  1
  H+  H91  1  0.34798590  0.73689960  0.47583243  1
  H+  H92  1  0.72533349  0.61056186  0.66267160  1
  H+  H93  1  0.04486986  0.16211568  0.36074698  1
  H+  H94  1  0.52490006  0.62955058  0.49274520  1
  H+  H95  1  0.05364019  0.89065712  0.67728736  1
  H+  H96  1  0.77520095  0.13358705  0.49847372  1
  H+  H97  1  0.87229941  0.88619674  1.00888573  1
  H+  H98  1  0.37907527  0.99310130  0.16828454  1
  H+  H99  1  0.35308311  0.23485590  0.15586140  1
  H+  H100  1  0.12241374  0.34516805  0.17362547  1
  H+  H101  1  0.34944526  0.63553597  0.67784516  1
  H+  H102  1  0.97313083  0.36155829  0.83101870  1
  H+  H103  1  0.13504879  0.59916424  0.85920577  1
  H+  H104  1  0.62760618  0.98370241  0.82501597  1
  H+  H105  1  0.40097054  0.59734930  0.46906804  1
  H+  H106  1  0.28816674  0.13894535  0.67095198  1
  H+  H107  1  0.90446477  0.02966956  0.97595285  1
  H+  H108  1  0.64814986  0.28112832  1.00352879  1
  H+  H109  1  0.13346472  0.03028349  0.85198668  1
  H+  H110  1  0.98788191  0.12092317  0.98018627  1
  H+  H111  1  0.31542442  0.41030344  0.55523104  1
  H+  H112  1  0.89371686  0.77597636  0.00361891  1
  H+  H113  1  0.15032582  0.79084206  0.83874217  1
  H+  H114  1  0.86933970  0.48854519  0.67317440  1
  H+  H115  1  0.88522964  0.84677198  0.83000087  1
  H+  H116  1  0.61176692  0.47348918  0.33456448  1
  H+  H117  1  0.24221931  0.36514220  0.31696356  1
  H+  H118  1  0.33159994  1.05168234  0.41218224  1
  H+  H119  1  0.61737215  0.62130893  0.34626230  1
  H+  H120  1  0.37765108  0.13434650  0.66251660  1
  H+  H121  1  0.13624306  0.10600511  0.51289446  1
  H+  H122  1  0.42740914  0.77995621  0.83725607  1
  H+  H123  1  0.13486488  0.11999391  0.85370411  1
  H+  H124  1  0.60622089  0.88833145  0.34932846  1
  H+  H125  1  0.84477970  0.13765955  0.16120042  1
  H+  H126  1  0.00216169  0.37057190  0.16593266  1
  H+  H127  1  0.64644871  0.85991077  0.50234577  1
  H+  H128  1  0.16150735  0.56020318  0.16426544  1
  H+  H129  1  0.14890056  0.33628967  0.55664194  1
  H+  H130  1  0.64208726  0.86576336  0.84894216  1
  H+  H131  1  0.13576999  0.77012166  0.65553691  1
  H+  H132  1  0.61479752  0.38551734  0.01246748  1
  H+  H133  1  0.64101019  0.61345106  0.50993737  1
  H+  H134  1  0.63988331  0.11787087  0.83352852  1
  H+  H135  1  0.87596887  0.15958418  0.34849368  1
  H+  H136  1  0.84681562  0.23997651  0.67030266  1
  H+  H137  1  0.65560859  0.94974778  0.12165251  1
  H+  H138  1  0.90615846  0.90865350  0.17229957  1
  H+  H139  1  0.62714246  0.12533626  0.15543086  1
  H+  H140  1  0.46968852  0.10339100  0.15783635  1
  H+  H141  1  0.86502832  0.23298865  0.81794165  1
  H+  H142  1  0.14468295  0.50656561  0.32316731  1
  H+  H143  1  0.81338446  0.99146042  0.13868680  1
  H+  H144  1  0.10640363  0.21864896  0.50490360  1
  H+  H145  1  0.12843795  0.76164215  0.51828180  1
  H+  H146  1  0.16470029  0.58418172  0.59358965  1
  H+  H147  1  0.02973439  0.63833569  0.83541627  1
  H+  H148  1  0.12825263  0.37299590  0.65408715  1
  H+  H149  1  0.11203925  0.38519466  0.82024037  1
  H+  H150  1  0.12184194  0.73027418  0.34098323  1
  H+  H151  1  0.62122438  0.58415377  0.17459460  1
  H+  H152  1  0.77128488  0.38106546  0.48573090  1
  H+  H153  1  0.73927165  0.10871614  0.01970391  1
  H+  H154  1  0.65737693  0.76667820  -0.00465224  1
  H+  H155  1  0.39232046  0.61623320  0.18113669  1
  H+  H156  1  0.47119958  0.86407275  0.33320929  1
  H+  H157  1  0.12207897  0.96518389  0.00721241  1
  H+  H158  1  0.36071276  0.61019169  0.82140408  1
  H+  H159  1  0.35328626  0.48045045  0.16506940  1
  H+  H160  1  0.78068191  0.39586222  0.00441322  1
  H+  H161  1  0.13178004  0.52242009  0.49820695  1
  H+  H162  1  0.39278635  0.02788907  0.49840664  1
  H+  H163  1  0.87170938  0.34886083  0.98808663  1
  H+  H164  1  0.63661368  0.10398256  0.50375056  1
  H+  H165  1  0.15876736  1.03065573  0.66769471  1
  H+  H166  1  0.71455459  0.12446600  0.16592724  1
  H+  H167  1  0.23450898  0.87674658  0.32671806  1
  H+  H168  1  0.62701960  0.98063875  0.49903234  1
  H+  H169  1  0.49677573  0.11075966  0.67671061  1
  H+  H170  1  0.61079567  0.08836243  0.66470450  1
  H+  H171  1  0.73146025  0.84649828  0.66352318  1
  H+  H172  1  0.82548239  0.19437619  1.00769398  1
  H+  H173  1  0.87293440  0.88476195  0.14804546  1
  H+  H174  1  0.61224875  0.48551945  0.67394162  1
  H+  H175  1  0.32059035  0.70052504  0.82265170  1
  H+  H176  1  0.46915327  0.60158822  0.65923005  1
  H+  H177  1  0.01330158  0.63309589  0.18205744  1
  H+  H178  1  0.27500974  0.13967158  0.15309696  1
  H+  H179  1  0.21988655  0.37855404  0.64730442  1
  H+  H180  1  0.14160808  0.87187597  0.32987733  1
  H+  H181  1  0.47715799  0.37842940  0.49045025  1
  H+  H182  1  0.87876881  0.61018566  0.65419228  1
  H+  H183  1  0.37359291  1.01971295  0.65519305  1
  H+  H184  1  0.03090417  0.15125873  0.82386130  1
  H+  H185  1  0.75777759  0.39339645  0.82580926  1
  H+  H186  1  0.35562060  0.47212588  0.80407991  1
  H+  H187  1  0.39279063  0.56478317  0.96875811  1
  H+  H188  1  0.41515272  0.80037008  1.01538157  1
  H+  H189  1  0.38540512  0.89378381  0.84071644  1
  H+  H190  1  0.51636536  0.88025818  0.68304674  1
  H+  H191  1  0.05298167  0.42102835  0.01919738  1
  H+  H192  1  0.85642111  0.48815443  0.82714100  1
  H+  H193  1  0.11076265  0.47171204  0.82895754  1
  H+  H194  1  0.60509127  0.62598150  0.67481867  1
  H+  H195  1  0.91562750  0.58339358  0.89766056  1
  H+  H196  1  0.37362075  0.36858808  0.17073246  1
  H+  H197  1  0.14506258  0.25000636  0.66996813  1
  H+  H198  1  0.64547362  0.51842391  1.00024917  1
  H+  H199  1  0.36368425  0.88545818  0.33605529  1
  H+  H200  1  0.59947923  0.00842295  0.99679799  1
  H+  H201  1  0.97862584  0.85630593  0.83394186  1
  H+  H202  1  0.10283889  0.63293320  0.51352908  1
  H+  H203  1  1.01173424  0.84662421  0.18409647  1
  H+  H204  1  0.38117139  0.35861743  0.83182539  1
  H+  H205  1  0.46896162  0.59597454  0.18117694  1
  H+  H206  1  0.71363276  0.83614316  0.34967392  1
  H+  H207  1  0.88833641  0.76675181  0.33199149  1
  H+  H208  1  0.61426167  0.39941389  0.48384043  1
  H+  H209  1  0.38305583  0.23565654  0.81296532  1
  H+  H210  1  0.96739303  0.61123186  0.64139040  1
  H+  H211  1  0.87857498  0.62319336  0.01110054  1
  H+  H212  1  0.58812450  0.19108319  0.68324764  1
  H+  H213  1  0.37828865  0.45594060  0.34713448  1
  H+  H214  1  0.12708041  0.64408877  0.99988295  1
  H+  H215  1  0.18210732  0.58849290  0.94066939  1
  H+  H216  1  0.28814586  0.13283027  0.00563548  1
  H+  H217  1  0.98431273  0.06307270  0.69858191  1
  H+  H218  1  0.98427345  0.85826080  0.50940930  1
  H+  H219  1  0.16006807  0.07231924  0.26383139  1
  H+  H220  1  0.85986718  0.05427068  0.68133842  1
  H+  H221  1  0.12114692  0.87753361  1.00293685  1
  H+  H222  1  0.38804672  0.35112951  -0.00824900  1
  H+  H223  1  0.38222598  0.14197393  0.81622664  1
  H+  H224  1  0.16210022  0.54660955  0.00747645  1
  H+  H225  1  0.12575911  0.90140085  0.83074805  1
  H+  H226  1  0.10404345  0.97017522  0.34103587  1
  H+  H227  1  0.14420161  0.78159740  0.18405106  1
  H+  H228  1  0.83248973  0.93575651  0.33402555  1
  H+  H229  1  1.03907105  0.13918207  0.13579323  1
  H+  H230  1  0.93666835  0.02353213  0.18439670  1
  H+  H231  1  0.37047966  -0.01046395  1.00816486  1
  H+  H232  1  0.86686618  0.39569400  0.67769306  1
  H+  H233  1  0.89747075  0.28514542  0.32557867  1
  H+  H234  1  0.52579529  0.38383155  0.00693162  1
  H+  H235  1  0.89341970  0.37142388  0.31949494  1
  H+  H236  1  0.61201999  0.84394443  0.65657867  1
  H+  H237  1  0.24677059  0.38461524  0.99364090  1
  H+  H238  1  0.87908241  0.60846447  0.17889443  1
  H+  H239  1  0.45588286  0.35503423  0.17647686  1
  H+  H240  1  0.51682700  0.63546041  0.82470546  1
  H+  H241  1  0.11625250  0.97193167  0.49868793  1
  H+  H242  1  0.61962458  0.40103144  0.67534093  1
  H+  H243  1  0.61694899  0.10075733  1.01649861  1
  H+  H244  1  0.57634123  0.63344778  0.09829630  1
  H+  H245  1  0.11675291  0.88256445  0.49647940  1
  H+  H246  1  0.21865481  0.61549650  0.65693770  1
  H+  H247  1  0.96751960  0.36861703  0.66560385  1
  H+  H248  1  0.19482308  0.10497944  0.33030637  1
  H+  H249  1  0.72918263  0.61268052  0.33056214  1
  H+  H250  1  0.28936120  0.66313355  0.01376877  1
  H+  H251  1  0.85851607  0.46871206  0.48303146  1
  H+  H252  1  0.70058084  0.56672957  0.17772260  1
  H+  H253  1  0.48325942  0.10849547  0.31545131  1
  H+  H254  1  0.64863744  0.22043286  0.47357899  1
  H+  H255  1  0.90461559  0.33816760  0.60654670  1
  H+  H256  1  0.13475270  0.89464998  0.16066916  1
  H+  H257  1  0.86326136  0.13395853  0.48660110  1
  H+  H258  1  0.12819511  0.17261820  -0.03464067  1
  H+  H259  1  0.85029011  0.83895566  0.65349208  1
  H+  H260  1  0.37345353  0.15242902  0.50619692  1
  H+  H261  1  0.39725663  0.46669426  0.02271787  1
  H+  H262  1  0.64058619  0.52588067  0.50275097  1
  H+  H263  1  0.81615490  0.93537511  0.65441373  1
  H+  H264  1  0.33465803  0.41382412  0.07543418  1
  H+  H265  1  0.85787966  0.71973771  0.67683186  1
  H+  H266  1  0.10623122  0.48046943  0.66832661  1
  H+  H267  1  -0.11792139  0.35691192  0.51277605  1
  H+  H268  1  0.40422753  0.78367784  0.17552030  1
  H+  H269  1  0.10536511  0.62996533  0.65576028  1
  H+  H270  1  0.21649596  0.61585364  0.49572210  1
  H+  H271  1  0.27948358  0.88704815  0.17208243  1
  H+  H272  1  0.54339054  0.88799134  0.49472838  1
  H+  H273  1  0.61381704  0.28920445  0.52307856  1
  H+  H274  1  0.62178683  0.35854437  0.30767822  1
  H+  H275  1  0.92078762  0.07905850  0.40044799  1
  H+  H276  1  0.75474822  0.86483634  -0.00962937  1
  H+  H277  1  0.93235498  0.30860520  0.98008641  1
  H+  H278  1  0.16708524  0.12543259  0.66587786  1
  H+  H279  1  0.58263217  0.66380432  0.77131404  1
  H+  H280  1  0.60730011  0.96518393  0.67380759  1
  H+  H281  1  0.58432006  0.42323273  0.42205096  1
  H+  H282  1  0.14018016  0.26697556  0.16526047  1
  H+  H283  1  0.79881337  0.68761184  0.15881228  1
  H+  H284  1  0.41899583  0.83553562  0.27242876  1
  H+  H285  1  0.72979532  0.84981579  0.50891810  1
  H+  H286  1  0.77080874  0.87070677  0.82667333  1
  H+  H287  1  0.14202433  0.63110294  0.18730303  1
  H+  H288  1  0.18360061  0.58525037  0.26828662  1
  H+  H289  1  0.86811920  0.87482461  0.49856826  1
  H+  H290  1  0.38508212  0.51416049  0.50423934  1
  H+  H291  1  0.85893870  0.38368074  0.15940349  1
  H+  H292  1  0.17069143  0.83306664  0.59783032  1
  H+  H293  1  0.49295406  0.37217366  0.66768633  1
  H+  H294  1  0.40587986  0.37014796  0.26288890  1
  H+  H295  1  0.92031252  0.82643883  0.56748986  1
  H+  H296  1  0.17726671  0.34827094  0.89253603  1
  H+  H297  1  0.35233158  0.64613776  0.38313225  1
  H+  H298  1  0.67538213  0.82713077  0.93224450  1
  H+  H299  1  0.09618359  0.43056722  0.08270018  1
  H+  H300  1  0.10655206  0.17743309  0.08158526  1
  H+  H301  1  0.94889561  0.81441111  0.24419923  1
  H+  H302  1  0.66778237  0.58075947  0.60149617  1
  H+  H303  1  0.58652220  0.93180238  0.40242865  1
  H+  H304  1  0.39208953  0.36452254  0.66012701  1
  H+  H305  1  0.77190253  0.38553107  0.15956420  1
  H+  H306  1  0.83005114  0.17113456  0.76041284  1
  H+  H307  1  0.30973571  0.65308696  0.73916905  1
  H+  H308  1  0.64098715  0.81163491  0.59587772  1
  H+  H309  1  0.64785495  0.08206018  0.25774488  1
  H+  H310  1  0.56170794  0.15848135  0.77788434  1
  H+  H311  1  0.77874904  0.62415550  0.01330956  1
  H+  H312  1  0.82762548  0.66303224  0.39776453  1
  H+  H313  1  0.44787665  0.65263747  0.93586423  1
  H+  H314  1  0.17284734  0.32937470  0.26437099  1
  H+  H315  1  0.22413607  0.84406611  0.50909005  1
  H+  H316  1  0.88854948  0.01314451  0.48530619  1
  H+  H317  1  0.63138086  0.77069726  0.84679230  1
  H+  H318  1  0.35991296  0.17355408  0.74010313  1
  H+  H319  1  0.60916512  0.22162284  0.33157216  1
  H+  H320  1  0.02790130  0.39038126  0.32517473  1
  H+  H321  1  0.39206792  0.28708063  0.50693266  1
  H+  H322  1  0.56776140  0.39020164  0.11217448  1
  H+  H323  1  0.58515773  0.42578338  0.77182092  1
  H+  H324  1  0.81347074  0.16071915  0.09779409  1
  H+  H325  1  0.66889783  0.33278874  0.94001804  1
  H+  H326  1  0.64190458  0.81961981  0.20002238  1
  H+  H327  1  0.11656794  0.70881144  0.04397182  1
  H+  H328  1  0.65820468  0.07637186  0.56877459  1
  H+  H329  1  0.18735986  0.85561701  0.89277792  1
  H+  H330  1  0.09790743  0.16957441  0.44477336  1
  H+  H331  1  0.90369682  0.32840114  0.88419692  1
  H+  H332  1  0.09540863  0.91134200  0.09962498  1
  H+  H333  1  0.35879949  0.90470461  0.69171436  1
  H+  H334  1  0.41365115  0.58179527  0.59869775  1
  H+  H335  1  0.34709189  0.68095745  0.10913205  1
  H+  H336  1  0.94161208  0.10344266  0.21484265  1
  H+  H337  1  0.58470105  0.65002693  0.41388531  1
  H+  H338  1  0.84390751  0.66404776  0.07535223  1
  H+  H339  1  0.82993746  0.89334221  0.43855106  1
  H+  H340  1  0.05401935  0.64265623  0.71003558  1
  H+  H341  1  0.37917467  0.55453684  0.87095055  1
  H+  H342  1  0.08226116  0.91501670  0.40370867  1
  H+  H343  1  0.58967872  0.16057186  0.42146207  1
  H+  H344  1  0.87435990  0.60345510  0.49467274  1
  H+  H345  1  0.85729648  0.86139859  0.33926946  1
  H+  H346  1  0.25222477  0.59237007  0.32285378  1
  H+  H347  1  0.42582310  0.07730356  0.22726713  1
  H+  H348  1  0.39417027  0.58189067  0.28556230  1
  H+  H349  1  0.93252381  0.09820619  0.88420294  1
  H+  H350  1  0.54287666  0.90677169  0.06124788  1
  H+  H351  1  0.17639352  0.84560987  0.24128769  1
  H+  H352  1  0.06613872  0.65246145  0.12262615  1
  H+  H353  1  0.14467326  0.11093533  0.16465754  1
  H+  H354  1  0.08116376  0.42228176  0.72904462  1
  H+  H355  1  0.67733961  0.36491584  0.56484440  1
  H+  H356  1  0.24611032  0.87713810  0.98378759  1
  H+  H357  1  0.83268640  0.65873368  0.73536431  1
  H+  H358  1  0.08488563  0.42895716  0.42421143  1
  H+  H359  1  0.11291778  0.67048032  0.79322416  1
  H+  H360  1  0.97710824  0.85933056  0.33718620  1
  H+  H361  1  0.89749991  0.07373232  0.61628776  1
  H+  H362  1  0.16926650  0.07789509  0.94060661  1
  H+  H363  1  0.42444630  0.86746647  0.52922530  1
  H+  H364  1  0.66133546  0.57768252  0.27358539  1
  H+  H365  1  0.64722174  0.81879019  0.29804233  1
  H+  H366  1  0.13531247  0.24462478  0.35461357  1
  H+  H367  1  0.17319107  0.07758170  0.56853280  1
  H+  H368  1  0.41708864  0.08181885  0.59285779  1
  H+  H369  1  0.82592714  0.42763678  0.76171124  1
  H+  H370  1  0.39283786  0.83276402  0.62602320  1
  H+  H371  1  0.44824514  0.10465971  0.95227161  1
  H+  H372  1  0.93933070  0.05029876  0.33531759  1
  H+  H373  1  0.84516989  0.19307501  0.40316369  1
  H+  H374  1  0.82340910  0.40440447  0.39176669  1
  H+  H375  1  0.91061547  0.58047695  0.27487822  1
  H+  H376  1  0.10822880  0.18309601  0.77294195  1
  H+  H377  1  0.59625153  0.91366588  0.77203141  1
  H+  H378  1  0.81314471  0.88770718  0.76171716  1
  H+  H379  1  0.82820659  0.93298285  0.04996453  1
  H+  H380  1  0.29699118  0.89476163  0.83162595  1
  H+  H381  1  0.89531761  0.56880546  0.55505239  1
  H+  H382  1  0.90835169  0.33126711  0.23116886  1
  H+  H383  1  0.09938811  0.93382809  0.77331515  1
  O2-  O384  1  0.10101160  0.17201001  0.12645567  1
  O2-  O385  1  0.08466867  0.15881212  0.48997645  1
  O2-  O386  1  0.09763585  0.18115333  0.81702390  1
  O2-  O387  1  0.06759707  0.40206099  0.15785991  1
  O2-  O388  1  0.08482638  0.43116213  0.46885259  1
  O2-  O389  1  0.08193999  0.41608392  0.80640584  1
  O2-  O390  1  0.07432563  0.66367123  0.16610872  1
  O2-  O391  1  0.07459778  0.66759948  0.52070695  1
  O2-  O392  1  0.09396107  0.66942108  0.83483133  1
  O2-  O393  1  0.09826856  0.91820259  0.14495778  1
  O2-  O394  1  0.08428045  0.91121373  0.48302807  1
  O2-  O395  1  0.09220671  0.92946291  0.81789560  1
  O2-  O396  1  0.33215916  0.17897601  0.13500021  1
  O2-  O397  1  0.34431978  0.18483125  0.51599866  1
  O2-  O398  1  0.36429080  0.17852644  0.79257025  1
  O2-  O399  1  0.32403294  0.42208620  0.14534786  1
  O2-  O400  1  0.32498436  0.41530246  0.51146480  1
  O2-  O401  1  0.32777422  0.40949643  0.79515335  1
  O2-  O402  1  0.35162377  0.68005281  0.15465779  1
  O2-  O403  1  0.33290966  0.67652571  0.46601709  1
  O2-  O404  1  0.30344200  0.64301867  0.80810963  1
  O2-  O405  1  0.34025160  0.91778493  0.15577691  1
  O2-  O406  1  0.33653046  0.94506469  0.46430741  1
  O2-  O407  1  0.36037047  0.93012750  0.82920248  1
  O2-  O408  1  0.57430731  0.17308231  0.11677732  1
  O2-  O409  1  0.59824197  0.16399776  0.46770508  1
  O2-  O410  1  0.57426242  0.17613564  0.82124315  1
  O2-  O411  1  0.55994538  0.38551220  0.15691045  1
  O2-  O412  1  0.58691689  0.43107377  0.46721332  1
  O2-  O413  1  0.58426670  0.42397475  0.81705203  1
  O2-  O414  1  0.57262359  0.63077536  0.14358490  1
  O2-  O415  1  0.58668705  0.66055942  0.47868131  1
  O2-  O416  1  0.57950370  0.66501334  0.81663531  1
  O2-  O417  1  0.59788970  0.93919753  0.13230570  1
  O2-  O418  1  0.60219962  0.92094294  0.48004424  1
  O2-  O419  1  0.60068439  0.91947133  0.81691608  1
  O2-  O420  1  0.81901477  0.17031261  0.14572417  1
  O2-  O421  1  0.83519353  0.16946050  0.48417796  1
  O2-  O422  1  0.83570437  0.17053350  0.80512678  1
  O2-  O423  1  0.83052437  0.41614870  0.14331788  1
  O2-  O424  1  0.82993686  0.40696212  0.46945147  1
  O2-  O425  1  0.81926769  0.42849214  0.80847422  1
  O2-  O426  1  0.84750388  0.68150457  0.14617941  1
  O2-  O427  1  0.83046502  0.66549995  0.47399087  1
  O2-  O428  1  0.83957956  0.66093198  0.81226170  1
  O2-  O429  1  0.77024993  0.95241309  0.10957494  1
  O2-  O430  1  0.83310771  0.90070011  0.48330656  1
  O2-  O431  1  0.82546557  0.88895280  0.80525673  1
  O2-  O432  1  0.17225218  0.08142541  0.18414256  1
  O2-  O433  1  0.16602986  0.07340684  0.52388435  1
  O2-  O434  1  0.15953384  0.08695083  0.87301936  1
  O2-  O435  1  0.16179196  0.32396989  0.18542828  1
  O2-  O436  1  0.14803162  0.32841670  0.51176727  1
  O2-  O437  1  0.17342014  0.34205612  0.84782476  1
  O2-  O438  1  0.18045183  0.60588141  0.19434935  1
  O2-  O439  1  0.16196422  0.58218271  0.51772115  1
  O2-  O440  1  0.16505489  0.56745140  0.86951194  1
  O2-  O441  1  0.17990475  0.84270897  0.19454536  1
  O2-  O442  1  0.16687240  0.82797049  0.52437452  1
  O2-  O443  1  0.18412368  0.85286831  0.84689460  1
  O2-  O444  1  0.41602094  0.06870759  0.18053125  1
  O2-  O445  1  0.42829425  0.08576259  0.52201388  1
  O2-  O446  1  0.39956694  0.07925893  0.86464867  1
  O2-  O447  1  0.39620756  0.33443646  0.19124443  1
  O2-  O448  1  0.41972626  0.35147307  0.50947665  1
  O2-  O449  1  0.41323602  0.33008371  0.84649504  1
  O2-  O450  1  0.41131706  0.57712615  0.19838456  1
  O2-  O451  1  0.42091154  0.58013710  0.50484151  1
  O2-  O452  1  0.39916748  0.58094880  0.83132992  1
  O2-  O453  1  0.43023602  0.84439521  0.19026095  1
  O2-  O454  1  0.36798799  0.83165824  0.51167296  1
  O2-  O455  1  0.43848938  0.83426533  0.85462126  1
  O2-  O456  1  0.65167314  0.09328728  0.17572319  1
  O2-  O457  1  0.66566644  0.07531513  0.52361547  1
  O2-  O458  1  0.66721271  0.08254242  0.83269875  1
  O2-  O459  1  0.65210451  0.32321902  0.22765266  1
  O2-  O460  1  0.66288348  0.34738720  0.52137084  1
  O2-  O461  1  0.66772830  0.34186504  0.85681748  1
  O2-  O462  1  0.64614142  0.55224880  0.19690090  1
  O2-  O463  1  0.67120693  0.58294517  0.52409320  1
  O2-  O464  1  0.67263520  0.58766479  0.86388739  1
  O2-  O465  1  0.63235920  0.80133296  0.15770696  1
  O2-  O466  1  0.66688205  0.82148889  0.51881709  1
  O2-  O467  1  0.66574714  0.82891979  0.86514326  1
  O2-  O468  1  0.93341129  0.07523304  0.17550583  1
  O2-  O469  1  0.91577591  0.07503964  0.47435203  1
  O2-  O470  1  0.93912336  0.10661139  0.83924719  1
  O2-  O471  1  0.90665981  0.33129063  0.18483433  1
  O2-  O472  1  0.90272450  0.32633029  0.53886870  1
  O2-  O473  1  0.91067698  0.33207894  0.83975929  1
  O2-  O474  1  0.90873782  0.57826216  0.19397722  1
  O2-  O475  1  0.89968348  0.56860069  0.50999886  1
  O2-  O476  1  0.91778194  0.58271648  0.85283019  1
  O2-  O477  1  0.96526570  0.79584305  0.20625397  1
  O2-  O478  1  0.92197792  0.82680916  0.52246282  1
  O2-  O479  1  0.91727642  0.81746887  0.84363795  1
  O2-  O480  1  0.14459383  0.06324473  0.30765279  1
  O2-  O481  1  0.19195108  0.09018391  0.65092349  1
  O2-  O482  1  0.18009992  0.07105831  0.98614373  1
  O2-  O483  1  0.18035111  0.34129070  0.30885541  1
  O2-  O484  1  0.15907339  0.34445602  0.63540436  1
  O2-  O485  1  0.18752894  0.36051400  0.97717638  1
  O2-  O486  1  0.18879535  0.57183845  0.31182506  1
  O2-  O487  1  0.15930090  0.58483615  0.63925371  1
  O2-  O488  1  0.18664930  0.60260836  0.98609160  1
  O2-  O489  1  0.17378692  0.84597614  0.31102728  1
  O2-  O490  1  0.16986227  0.83170622  0.64397815  1
  O2-  O491  1  0.18467084  0.84636521  0.96610018  1
  O2-  O492  1  0.42578757  0.07709599  0.29545589  1
  O2-  O493  1  0.41089563  0.08217880  0.63934480  1
  O2-  O494  1  0.43985512  0.10106371  0.99648937  1
  O2-  O495  1  0.43049321  0.40381360  0.30170278  1
  O2-  O496  1  0.42955703  0.33684659  0.65170582  1
  O2-  O497  1  0.42032219  0.32674995  0.97173804  1
  O2-  O498  1  0.38200576  0.57553691  0.33005609  1
  O2-  O499  1  0.40874486  0.57238618  0.64289773  1
  O2-  O500  1  0.43824256  0.62401872  0.97531224  1
  O2-  O501  1  0.41204500  0.83168385  0.31703656  1
  O2-  O502  1  0.40527035  0.83315705  0.66923108  1
  O2-  O503  1  0.44489699  0.86268156  1.00545739  1
  O2-  O504  1  0.65308707  0.08412107  0.30248163  1
  O2-  O505  1  0.64921754  0.06959380  0.64629107  1
  O2-  O506  1  0.64147331  0.07038364  0.99472115  1
  O2-  O507  1  0.65569589  0.32997542  0.29518843  1
  O2-  O508  1  0.68799429  0.37047208  0.64298363  1
  O2-  O509  1  0.67515285  0.33907777  0.98499928  1
  O2-  O510  1  0.66555474  0.58236867  0.31879406  1
  O2-  O511  1  0.66476641  0.58044243  0.64717309  1
  O2-  O512  1  0.68231377  0.57991860  0.98668726  1
  O2-  O513  1  0.65000827  0.81106888  0.34162401  1
  O2-  O514  1  0.63521963  0.80671962  0.64103959  1
  O2-  O515  1  0.68609754  0.82684661  0.97900095  1
  O2-  O516  1  0.92527487  0.09014902  0.35481252  1
  O2-  O517  1  0.84328289  0.04771950  0.63849760  1
  O2-  O518  1  0.93095575  0.08919625  0.96148050  1
  O2-  O519  1  0.92571341  0.34351669  0.30381424  1
  O2-  O520  1  0.90579518  0.34242874  0.65364615  1
  O2-  O521  1  0.87850978  0.30372880  0.96690621  1
  O2-  O522  1  0.90847597  0.58139453  0.31982456  1
  O2-  O523  1  0.90398055  0.57696198  0.63523418  1
  O2-  O524  1  0.92002111  0.58796579  0.98659202  1
  O2-  O525  1  0.91741709  0.82820020  0.31811720  1
  O2-  O526  1  0.89794834  0.82421465  0.64742883  1
  O2-  O527  1  0.92110511  0.83805204  0.99894340  1
  O2-  O528  1  0.10886687  0.19190099  0.00039142  1
  O2-  O529  1  0.10505837  0.18710090  0.37346856  1
  O2-  O530  1  0.16062659  0.21286902  0.69453669  1
  O2-  O531  1  0.10887535  0.44229432  0.03830917  1
  O2-  O532  1  0.08948532  0.42020079  0.34003398  1
  O2-  O533  1  0.07663384  0.42000761  0.68350407  1
  O2-  O534  1  0.09159441  0.67302002  0.00810151  1
  O2-  O535  1  0.09673334  0.66936949  0.35189727  1
  O2-  O536  1  0.07173263  0.65973320  0.66824409  1
  O2-  O537  1  0.09020989  0.90475083  0.02221799  1
  O2-  O538  1  0.07628387  0.91018040  0.35857146  1
  O2-  O539  1  0.11252139  0.92531227  0.69116397  1
  O2-  O540  1  0.34788466  0.17059825  0.02056464  1
  O2-  O541  1  0.31853319  0.08983554  0.38886656  1
  O2-  O542  1  0.35237999  0.17123048  0.68262510  1
  O2-  O543  1  0.34428854  0.41291856  0.02959392  1
  O2-  O544  1  0.35668964  0.39554578  0.33643930  1
  O2-  O545  1  0.33526283  0.40597707  0.67409071  1
  O2-  O546  1  0.34731446  0.69232681  0.03350812  1
  O2-  O547  1  0.34726712  0.63420342  0.33875500  1
  O2-  O548  1  0.31752957  0.66341032  0.69235241  1
  O2-  O549  1  0.33515911  0.92647059  0.01194905  1
  O2-  O550  1  0.33818477  0.92300428  0.34569688  1
  O2-  O551  1  0.32701032  0.93598831  0.68892051  1
  O2-  O552  1  0.59009285  0.18103057  0.05030742  1
  O2-  O553  1  0.58233627  0.16358739  0.34960822  1
  O2-  O554  1  0.55360419  0.13345767  0.69936484  1
  O2-  O555  1  0.58348239  0.41496490  0.02667947  1
  O2-  O556  1  0.57631266  0.41115790  0.34427718  1
  O2-  O557  1  0.58272333  0.42408435  0.69044761  1
  O2-  O558  1  0.59933848  0.66434598  0.02174331  1
  O2-  O559  1  0.58207231  0.64726551  0.36557311  1
  O2-  O560  1  0.56955556  0.65001926  0.69087721  1
  O2-  O561  1  0.53581653  0.89312900  0.01699549  1
  O2-  O562  1  0.58082106  0.92448273  0.35762626  1
  O2-  O563  1  0.57922523  0.90525138  0.68987398  1
  O2-  O564  1  0.80106344  0.14274914  0.03325810  1
  O2-  O565  1  0.85253613  0.19692927  0.35838094  1
  O2-  O566  1  0.81142553  0.17701888  0.68094526  1
  O2-  O567  1  0.84213029  0.42500483  0.01843236  1
  O2-  O568  1  0.82692699  0.40986359  0.34630112  1
  O2-  O569  1  0.83774983  0.42954751  0.69273145  1
  O2-  O570  1  0.84097899  0.65403467  0.02896761  1
  O2-  O571  1  0.82692944  0.66235185  0.35205568  1
  O2-  O572  1  0.82945558  0.65856266  0.68961206  1
  O2-  O573  1  0.83686747  0.91687056  0.00855705  1
  O2-  O574  1  0.81777277  0.88321739  0.35624710  1
  O2-  O575  1  0.79498821  0.87887516  0.67368981  1
