# generated using pymatgen
data_H2O
_symmetry_space_group_name_H-M   'P 1'
_cell_length_a   17.97426740
_cell_length_b   17.97783972
_cell_length_c   21.99591416
_cell_angle_alpha   90.00504606
_cell_angle_beta   89.96774025
_cell_angle_gamma   120.01331979
_symmetry_Int_Tables_number   1
_chemical_formula_structural   H2O
_chemical_formula_sum   'H384 O192'
_cell_volume   6154.64438396
_cell_formula_units_Z   192
loop_
 _symmetry_equiv_pos_site_id
 _symmetry_equiv_pos_as_xyz
  1  'x, y, z'
loop_
 _atom_type_symbol
 _atom_type_oxidation_number
  H+  1.0
  O2-  -2.0
loop_
 _atom_site_type_symbol
 _atom_site_label
 _atom_site_symmetry_multiplicity
 _atom_site_fract_x
 _atom_site_fract_y
 _atom_site_fract_z
 _atom_site_occupancy
  H+  H0  1  0.24657328  0.60547302  0.35835458  1
  H+  H1  1  0.97785557  0.35883132  0.17740299  1
  H+  H2  1  0.26969236  0.37672340  1.00797127  1
  H+  H3  1  0.72353730  0.60669296  0.33153839  1
  H+  H4  1  0.76987066  0.37060827  0.82543564  1
  H+  H5  1  0.62471728  -0.02029399  0.82676188  1
  H+  H6  1  0.59703730  0.37611586  0.34609364  1
  H+  H7  1  0.42434594  0.66615907  1.05282921  1
  H+  H8  1  0.78875825  0.13624540  0.82472602  1
  H+  H9  1  0.02196413  0.63585614  0.81143460  1
  H+  H10  1  0.64584303  0.11469531  0.97686768  1
  H+  H11  1  0.19268533  0.07720138  0.63325276  1
  H+  H12  1  0.65009366  0.11076591  0.66773742  1
  H+  H13  1  0.12309786  0.65093067  0.48366415  1
  H+  H14  1  0.01515268  0.38370040  0.66655828  1
  H+  H15  1  0.09275626  0.23561926  0.47604503  1
  H+  H16  1  0.41028539  0.90475103  0.98016037  1
  H+  H17  1  0.73731218  0.87118045  0.82755929  1
  H+  H18  1  0.27633628  0.15017176  0.68865671  1
  H+  H19  1  0.12516080  0.58867082  0.19617902  1
  H+  H20  1  0.09051934  0.95426662  0.66259163  1
  H+  H21  1  0.26168322  0.64323978  0.65284083  1
  H+  H22  1  0.11366590  -0.03384649  0.33979921  1
  H+  H23  1  0.88213757  0.37140272  0.32503353  1
  H+  H24  1  0.95997848  0.84331442  0.83444754  1
  H+  H25  1  0.12338585  0.12430288  0.48752897  1
  H+  H26  1  0.86444030  0.72130870  0.01106628  1
  H+  H27  1  0.13970696  0.19287129  0.82305578  1
  H+  H28  1  0.89671730  0.76572806  0.17724016  1
  H+  H29  1  0.63995902  0.52939889  0.17598727  1
  H+  H30  1  0.12862758  0.84982427  0.32257156  1
  H+  H31  1  0.39583905  0.37053333  0.17095905  1
  H+  H32  1  0.86138567  0.72090681  0.33965171  1
  H+  H33  1  0.42739330  0.24718205  0.66704284  1
  H+  H34  1  -0.01903700  0.59554950  0.18606911  1
  H+  H35  1  0.65348177  0.31892075  0.61207500  1
  H+  H36  1  0.73393788  0.36738684  -0.00754010  1
  H+  H37  1  0.62076874  0.60308453  0.84421628  1
  H+  H38  1  0.86621841  0.22289414  0.66669106  1
  H+  H39  1  0.36450988  0.52293036  0.31632686  1
  H+  H40  1  0.12110473  0.35969787  0.65283029  1
  H+  H41  1  0.10065570  0.97740017  0.48251436  1
  H+  H42  1  0.38573862  0.84811935  0.17658766  1
  H+  H43  1  0.47842455  0.51487073  0.94238222  1
  H+  H44  1  0.09791078  0.36911022  0.49969508  1
  H+  H45  1  0.34291017  0.16631707  0.39875943  1
  H+  H46  1  0.13461121  0.25773364  0.18731756  1
  H+  H47  1  0.55525112  0.40063066  0.72857118  1
  H+  H48  1  0.26133412  0.43289401  0.87843009  1
  H+  H49  1  0.16183741  0.06765715  0.38702972  1
  H+  H50  1  0.86309689  0.46738166  0.16794230  1
  H+  H51  1  0.39679227  0.12192294  0.18460366  1
  H+  H52  1  0.86071023  0.22990016  0.16194850  1
  H+  H53  1  0.65317787  0.11321030  0.84165874  1
  H+  H54  1  0.64493988  0.86363220  0.31500274  1
  H+  H55  1  0.85205538  0.98372387  0.00953110  1
  H+  H56  1  0.47724807  0.86263486  0.68266118  1
  H+  H57  1  0.76068398  0.89044690  1.01029775  1
  H+  H58  1  0.41843039  0.32922417  0.93523062  1
  H+  H59  1  0.36745259  0.72794421  0.49612040  1
  H+  H60  1  0.53807001  0.62440997  0.01343478  1
  H+  H61  1  0.52036514  0.63117080  0.49812255  1
  H+  H62  1  0.09028957  0.14391706  0.73341371  1
  H+  H63  1  0.86253699  0.88149466  0.32921576  1
  H+  H64  1  0.38452816  0.98697200  0.66982617  1
  H+  H65  1  0.63361561  0.86230200  1.00282435  1
  H+  H66  1  0.39736022  0.12104463  1.00269555  1
  H+  H67  1  0.35892058  0.24290016  0.32267061  1
  H+  H68  1  0.88587035  0.61471692  1.02412048  1
  H+  H69  1  0.33427476  0.33078434  0.81321522  1
  H+  H70  1  -0.01220022  0.35937055  0.83700880  1
  H+  H71  1  0.15812267  0.78648871  0.66018996  1
  H+  H72  1  0.17616996  0.49270684  1.00816757  1
  H+  H73  1  0.36873512  0.74158651  0.83605112  1
  H+  H74  1  0.61065995  0.22601504  0.17101141  1
  H+  H75  1  0.89291851  0.60261232  0.17564215  1
  H+  H76  1  0.39024755  -0.01709077  0.48279061  1
  H+  H77  1  0.86642905  0.14469033  1.00580945  1
  H+  H78  1  0.64416187  0.61097987  1.00051201  1
  H+  H79  1  0.34229766  0.62103066  0.34566188  1
  H+  H80  1  0.45303259  0.60329221  0.33319584  1
  H+  H81  1  0.53624644  0.44877033  0.83780613  1
  H+  H82  1  0.83288162  0.65910032  0.10709215  1
  H+  H83  1  0.64148257  0.77549922  0.82500809  1
  H+  H84  1  0.65899359  0.57237254  0.56406679  1
  H+  H85  1  0.88967834  0.11051003  0.65901734  1
  H+  H86  1  0.38806565  0.85618743  0.49966695  1
  H+  H87  1  0.12187266  0.98614438  0.17585278  1
  H+  H88  1  0.98343574  0.11118428  0.31536965  1
  H+  H89  1  0.23165431  0.87042452  0.49277106  1
  H+  H90  1  0.99935170  0.61870127  0.50166407  1
  H+  H91  1  0.60641046  0.87753435  0.67317193  1
  H+  H92  1  0.75602975  0.88828080  0.15645373  1
  H+  H93  1  0.87861270  0.50801008  0.80767262  1
  H+  H94  1  0.72094604  0.35932767  0.66577660  1
  H+  H95  1  0.62666239  0.22429577  0.68811178  1
  H+  H96  1  0.14687871  0.52690555  0.83135234  1
  H+  H97  1  0.38650024  0.14605494  0.82957265  1
  H+  H98  1  0.40989246  0.28410528  0.83491198  1
  H+  H99  1  0.90162362  0.26925598  0.83706414  1
  H+  H100  1  0.70777392  0.09909175  0.50610187  1
  H+  H101  1  0.53033401  0.89243061  0.82574999  1
  H+  H102  1  0.32414236  0.73597424  -0.04401007  1
  H+  H103  1  0.83903996  0.11991404  0.49531571  1
  H+  H104  1  0.37472985  1.00440544  0.32258527  1
  H+  H105  1  0.13864036  0.86558688  0.00318092  1
  H+  H106  1  0.86858537  0.23515057  1.00542731  1
  H+  H107  1  -0.01967953  0.85275115  -0.00320894  1
  H+  H108  1  0.98105534  0.10100763  0.83996212  1
  H+  H109  1  0.50046964  0.90583713  0.98310943  1
  H+  H110  1  0.63887628  0.77566618  0.00487416  1
  H+  H111  1  0.15091218  0.86980617  0.66112567  1
  H+  H112  1  0.39799991  0.87682795  0.83120668  1
  H+  H113  1  0.11882008  0.73969432  0.48100724  1
  H+  H114  1  0.37507381  0.50338440  0.81357142  1
  H+  H115  1  0.44190222  0.12904104  0.65508193  1
  H+  H116  1  0.53488057  0.66239357  0.83021303  1
  H+  H117  1  0.59011421  0.61094241  0.34542330  1
  H+  H118  1  0.96329396  0.84463097  0.66107278  1
  H+  H119  1  0.41208987  0.49922944  0.80200213  1
  H+  H120  1  0.27937648  0.38640649  0.16495845  1
  H+  H121  1  0.86782117  0.47660698  1.02495363  1
  H+  H122  1  0.13507070  0.77615198  0.84199694  1
  H+  H123  1  0.12699261  0.61487182  0.65361457  1
  H+  H124  1  0.61119752  0.63897288  0.17111559  1
  H+  H125  1  0.40727162  0.65846111  0.86236581  1
  H+  H126  1  0.83086496  0.17366202  0.10016287  1
  H+  H127  1  0.32941930  0.65999495  0.43932645  1
  H+  H128  1  0.16348144  0.41193592  0.81976118  1
  H+  H129  1  0.11316677  0.37512062  0.17249655  1
  H+  H130  1  0.62513252  0.98333402  0.01106856  1
  H+  H131  1  0.86833184  0.75711066  0.84003759  1
  H+  H132  1  0.38191924  0.57545103  0.72082152  1
  H+  H133  1  0.64178922  1.01818890  0.66244489  1
  H+  H134  1  0.14316387  0.78166559  0.01501133  1
  H+  H135  1  0.14243133  0.87015914  0.49126975  1
  H+  H136  1  0.85596777  0.46979343  0.67094954  1
  H+  H137  1  0.93456310  0.22352951  0.39416994  1
  H+  H138  1  0.74183248  0.12403420  0.32898610  1
  H+  H139  1  0.53887950  0.14534798  0.83639653  1
  H+  H140  1  0.92010308  0.82066178  0.93787405  1
  H+  H141  1  0.97573573  0.10508048  0.65966916  1
  H+  H142  1  0.14500341  0.63305178  0.95969074  1
  H+  H143  1  0.64085407  0.36686042  0.17836660  1
  H+  H144  1  0.13479172  0.78250535  0.16332377  1
  H+  H145  1  0.63943138  0.51911741  0.99627489  1
  H+  H146  1  0.52901992  0.38230379  0.00673421  1
  H+  H147  1  0.90687427  0.57791106  0.75688880  1
  H+  H148  1  0.73247623  0.86141219  0.31039005  1
  H+  H149  1  0.60443854  0.96154037  0.49349349  1
  H+  H150  1  0.19875910  0.48044720  0.76806785  1
  H+  H151  1  0.87752686  0.85225629  0.65926690  1
  H+  H152  1  0.71579299  0.59676596  0.50436067  1
  H+  H153  1  0.87044129  0.47230352  0.48964886  1
  H+  H154  1  0.51179977  0.10490158  0.66200198  1
  H+  H155  1  0.51327649  0.62302164  0.68200944  1
  H+  H156  1  0.38872964  0.76166752  0.18607924  1
  H+  H157  1  0.26529262  0.88013754  0.33596954  1
  H+  H158  1  0.36493343  0.73835855  0.96657227  1
  H+  H159  1  0.23895923  0.12177049  1.01707753  1
  H+  H160  1  0.28607815  0.14376607  0.17861046  1
  H+  H161  1  0.39137873  0.03113007  0.84332836  1
  H+  H162  1  0.09509986  0.96479206  0.81399952  1
  H+  H163  1  0.63379776  0.76601589  0.50797179  1
  H+  H164  1  0.83101461  0.40465809  0.72744988  1
  H+  H165  1  0.72607706  0.36017934  0.18314173  1
  H+  H166  1  0.28199449  0.65022123  0.84172482  1
  H+  H167  1  0.60941698  0.13672405  0.16890047  1
  H+  H168  1  0.43341080  0.67106972  0.01928812  1
  H+  H169  1  0.53273570  0.39272421  0.16101334  1
  H+  H170  1  0.78561071  0.38125143  0.49408352  1
  H+  H171  1  1.01331434  0.62662131  0.33819041  1
  H+  H172  1  0.20981885  0.67896859  1.07368053  1
  H+  H173  1  0.88837648  0.36115189  0.17695839  1
  H+  H174  1  -0.01900779  0.85879475  0.17933177  1
  H+  H175  1  0.12323170  0.89900751  0.16664001  1
  H+  H176  1  0.35012051  0.87182563  0.33655710  1
  H+  H177  1  0.77373624  0.87586312  0.50343828  1
  H+  H178  1  0.00177609  0.13053134  0.16217474  1
  H+  H179  1  0.36545189  0.45950130  1.00400837  1
  H+  H180  1  0.48217705  0.37256904  0.64521028  1
  H+  H181  1  0.60550303  0.16599214  0.74780370  1
  H+  H182  1  0.11488767  0.09093786  0.64596245  1
  H+  H183  1  0.58899967  0.66268517  0.07600341  1
  H+  H184  1  0.64632409  0.56817820  0.90336940  1
  H+  H185  1  0.37791308  0.61254674  0.17178446  1
  H+  H186  1  0.27819581  0.87467347  0.15828363  1
  H+  H187  1  0.85882133  -0.02988818  0.66907741  1
  H+  H188  1  0.62906758  0.76498494  0.66361918  1
  H+  H189  1  0.36922532  0.49836158  0.68017324  1
  H+  H190  1  0.26541824  0.61332363  0.19088249  1
  H+  H191  1  0.10586680  0.88237322  0.82583612  1
  H+  H192  1  0.97347280  0.85147465  0.32752608  1
  H+  H193  1  0.63114074  -0.02033561  0.34015137  1
  H+  H194  1  0.88410382  0.85227995  0.50909675  1
  H+  H195  1  0.74691054  0.61262982  0.83142785  1
  H+  H196  1  0.84673971  0.71926941  0.67667737  1
  H+  H197  1  0.13365844  0.26314635  -0.00673689  1
  H+  H198  1  0.86508635  0.97017838  0.82792438  1
  H+  H199  1  0.12221338  0.21571881  0.68214233  1
  H+  H200  1  0.11750208  0.97928042  0.01730109  1
  H+  H201  1  0.02346083  0.64889283  0.66982493  1
  H+  H202  1  0.86495785  0.71937117  0.49600340  1
  H+  H203  1  0.89706481  0.25774984  0.34473159  1
  H+  H204  1  0.77854927  0.63342120  0.16818292  1
  H+  H205  1  0.25871799  0.36035230  0.65836261  1
  H+  H206  1  0.61738564  0.24576374  0.51706222  1
  H+  H207  1  0.86392962  0.97062911  0.32505613  1
  H+  H208  1  0.63400149  0.51774878  0.33183513  1
  H+  H209  1  0.11025669  0.63743288  -0.02466578  1
  H+  H210  1  0.89695550  0.11026889  0.83545983  1
  H+  H211  1  0.59499607  0.10846738  0.50826979  1
  H+  H212  1  0.09994898  0.67755818  0.21502014  1
  H+  H213  1  0.87138617  0.61399259  0.66384171  1
  H+  H214  1  0.90261811  0.12338131  0.32322210  1
  H+  H215  1  0.51984566  0.88203116  0.16575712  1
  H+  H216  1  0.21548383  0.35373502  0.28726284  1
  H+  H217  1  0.07801299  0.66450128  0.39589903  1
  H+  H218  1  0.48344409  0.62027958  0.16771252  1
  H+  H219  1  0.72188977  0.11237552  0.17446094  1
  H+  H220  1  0.11234043  0.13616219  0.01610277  1
  H+  H221  1  0.71392463  0.60638856  0.66191721  1
  H+  H222  1  0.83730181  0.61570676  0.81965234  1
  H+  H223  1  0.86462844  0.63082157  0.49452009  1
  H+  H224  1  0.52663328  0.38751201  0.43699537  1
  H+  H225  1  0.62669476  0.51593664  0.66089683  1
  H+  H226  1  0.88382705  0.35958092  0.64891142  1
  H+  H227  1  0.16292459  0.13220448  0.21987109  1
  H+  H228  1  0.63144015  0.85976842  0.16955027  1
  H+  H229  1  0.35096241  0.36559256  0.65774960  1
  H+  H230  1  0.38516318  0.87465479  0.68523213  1
  H+  H231  1  0.85283822  0.47421680  0.33764419  1
  H+  H232  1  0.12788764  0.52553516  0.65139330  1
  H+  H233  1  0.37571615  0.77032402  0.67431718  1
  H+  H234  1  0.58386475  0.92294701  0.07050743  1
  H+  H235  1  0.29076462  0.12980926  0.66465018  1
  H+  H236  1  0.33656027  0.48091334  0.46880917  1
  H+  H237  1  0.24009254  0.35377648  0.83456681  1
  H+  H238  1  0.60428360  0.37687706  0.67768577  1
  H+  H239  1  0.33557844  0.93033665  0.76854977  1
  H+  H240  1  0.62017237  0.38642464  0.00345431  1
  H+  H241  1  0.47413857  0.85220174  0.50103118  1
  H+  H242  1  0.48390096  0.11924713  0.98385709  1
  H+  H243  1  0.62441213  0.23286402  0.97383592  1
  H+  H244  1  0.60755305  0.97365981  0.16611612  1
  H+  H245  1  0.59787977  0.36038043  0.49775749  1
  H+  H246  1  -0.01555946  0.36641253  -0.00291953  1
  H+  H247  1  0.12061640  0.12838478  0.33941670  1
  H+  H248  1  0.10763869  0.36705968  1.01574949  1
  H+  H249  1  0.33703412  0.38022959  0.32795361  1
  H+  H250  1  0.27554469  0.89549708  0.82814868  1
  H+  H251  1  0.36529045  0.24520360  0.48182863  1
  H+  H252  1  0.27022225  0.12193525  0.34788692  1
  H+  H253  1  0.61858154  0.22675621  0.35399390  1
  H+  H254  1  0.35263273  0.75131407  0.33338360  1
  H+  H255  1  0.37950231  0.09886242  0.32805700  1
  H+  H256  1  0.86904480  0.38931852  0.01182271  1
  H+  H257  1  0.87707976  0.11908480  0.16938281  1
  H+  H258  1  0.84689011  -0.01587514  0.15694017  1
  H+  H259  1  0.36910205  0.22679448  1.01730527  1
  H+  H260  1  -0.03569363  0.11364196  0.49737791  1
  H+  H261  1  0.85713292  0.87591023  0.82740951  1
  H+  H262  1  0.09100102  0.27232569  0.61868336  1
  H+  H263  1  0.60379362  0.62568084  0.67358450  1
  H+  H264  1  0.63916370  0.87150189  0.82775010  1
  H+  H265  1  0.48797950  0.12090051  0.18458419  1
  H+  H266  1  0.36403529  0.98191626  0.00969075  1
  H+  H267  1  0.27680024  0.89064274  0.00627233  1
  H+  H268  1  0.24058768  0.40242196  0.46731676  1
  H+  H269  1  0.11154636  0.63820798  0.81933205  1
  H+  H270  1  0.97330759  0.11291284  0.99496570  1
  H+  H271  1  0.63575415  0.24046338  0.83988055  1
  H+  H272  1  0.60890363  0.62936666  0.49788352  1
  H+  H273  1  0.37224306  0.23456410  0.16796217  1
  H+  H274  1  0.51328353  0.38240267  0.33415094  1
  H+  H275  1  0.61079597  0.87605015  0.49276181  1
  H+  H276  1  0.71390328  0.36311465  0.33334400  1
  H+  H277  1  0.38928463  0.52241756  0.16399736  1
  H+  H278  1  0.94327007  0.59782289  0.97810753  1
  H+  H279  1  0.35142282  0.64476798  0.64870153  1
  H+  H280  1  0.02007521  0.42745080  0.34317474  1
  H+  H281  1  0.28673055  0.90054524  0.67342485  1
  H+  H282  1  0.03698995  0.66035331  0.05678544  1
  H+  H283  1  0.27346430  0.16060966  0.48474438  1
  H+  H284  1  0.38181804  0.61461593  0.50429498  1
  H+  H285  1  1.01811237  0.88295591  0.49145642  1
  H+  H286  1  0.77334584  0.63149230  0.00929756  1
  H+  H287  1  0.73575033  0.11922952  -0.00831955  1
  H+  H288  1  0.84642865  0.16684421  0.76433058  1
  H+  H289  1  0.10466273  0.06523028  0.87364539  1
  H+  H290  1  0.88016040  0.60796374  0.32770001  1
  H+  H291  1  0.97034363  0.54467996  0.54876948  1
  H+  H292  1  0.54993395  0.44426799  0.49486400  1
  H+  H293  1  0.33020265  0.41160588  0.10102649  1
  H+  H294  1  0.58340482  0.66800581  0.76563777  1
  H+  H295  1  0.10318658  0.58284134  0.34473210  1
  H+  H296  1  0.65377649  0.35454913  0.83710227  1
  H+  H297  1  0.39820703  0.81405358  0.27631797  1
  H+  H298  1  0.07260370  0.17333464  0.41827813  1
  H+  H299  1  0.90965226  0.37260605  0.49259664  1
  H+  H300  1  0.83160987  0.91292746  0.72953599  1
  H+  H301  1  0.90866348  0.08674928  0.22852614  1
  H+  H302  1  0.30430503  0.15238598  0.80878418  1
  H+  H303  1  0.38365964  0.35303120  -0.00515582  1
  H+  H304  1  0.08416595  0.40290910  0.07587929  1
  H+  H305  1  0.58659862  0.16205529  0.41064481  1
  H+  H306  1  0.17118940  0.33138709  0.93676298  1
  H+  H307  1  0.07331598  0.16609985  0.06956782  1
  H+  H308  1  0.11702512  0.21365365  0.31705801  1
  H+  H309  1  0.41731127  0.08845707  0.90425983  1
  H+  H310  1  0.86573526  0.37912122  0.82149475  1
  H+  H311  1  0.09186230  0.67425353  0.11627612  1
  H+  H312  1  0.23141970  0.62721646  0.50151570  1
  H+  H313  1  0.59538062  0.16913115  0.91873405  1
  H+  H314  1  0.16140633  0.83152574  0.90325618  1
  H+  H315  1  0.77929580  0.13193323  0.67050242  1
  H+  H316  1  0.97625016  0.55663744  0.90518533  1
  H+  H317  1  0.24900679  0.62754111  0.04082798  1
  H+  H318  1  0.81433338  0.16024592  0.44046376  1
  H+  H319  1  0.59448282  0.91242970  0.39398240  1
  H+  H320  1  0.65608705  0.07003148  0.56916546  1
  H+  H321  1  0.16278961  0.59529991  0.55466579  1
  H+  H322  1  0.07179413  0.90150448  0.72570540  1
  H+  H323  1  0.16276370  0.82783155  0.22884351  1
  H+  H324  1  0.81841724  0.92715411  0.08483533  1
  H+  H325  1  0.91031471  0.58985669  0.60626484  1
  H+  H326  1  0.18916257  0.09607632  0.95582192  1
  H+  H327  1  0.23775424  0.55137371  0.95498826  1
  H+  H328  1  0.41509270  0.33229389  0.23029089  1
  H+  H329  1  0.58751027  0.91567028  0.73366034  1
  H+  H330  1  0.92372220  0.33567603  0.59123646  1
  H+  H331  1  0.41617647  0.07915744  0.25569499  1
  H+  H332  1  0.65982963  0.82534490  0.56705563  1
  H+  H333  1  0.08672597  0.67431489  0.72655323  1
  H+  H334  1  0.07797518  0.90311348  0.39574078  1
  H+  H335  1  0.43895818  0.86810633  0.89297462  1
  H+  H336  1  0.68358640  0.34337116  0.92744827  1
  H+  H337  1  0.48876523  0.70973226  0.90501914  1
  H+  H338  1  0.42992140  0.34139892  0.58343832  1
  H+  H339  1  0.92903673  0.34031430  0.93516526  1
  H+  H340  1  0.92213113  0.34475819  0.26839293  1
  H+  H341  1  0.14021383  0.57150539  0.89246602  1
  H+  H342  1  0.68457742  0.07889832  0.89696941  1
  H+  H343  1  0.83285346  0.66101828  0.39954728  1
  H+  H344  1  0.18038943  0.07772503  0.26568352  1
  H+  H345  1  0.86150936  -0.03497620  0.50036002  1
  H+  H346  1  0.83022385  0.40537299  0.10936000  1
  H+  H347  1  0.91605926  0.82025621  0.26722936  1
  H+  H348  1  0.71863433  0.85472690  0.66262379  1
  H+  H349  1  0.03846221  0.43420963  0.45371647  1
  H+  H350  1  0.65375644  0.32968999  0.27557930  1
  H+  H351  1  0.30167798  0.65747543  0.12748622  1
  H+  H352  1  0.91412973  0.81884842  0.56559539  1
  H+  H353  1  0.61149276  0.73001459  0.16592103  1
  H+  H354  1  0.15001762  0.34710217  0.54717078  1
  H+  H355  1  0.33770700  0.90008905  0.09988151  1
  H+  H356  1  0.47607926  0.09485428  0.56120693  1
  H+  H357  1  0.81089067  0.65777506  0.73646814  1
  H+  H358  1  0.66798175  0.83400637  0.23105142  1
  H+  H359  1  0.12967481  0.76088030  0.32119932  1
  H+  H360  1  0.34323061  0.17145625  0.08009740  1
  H+  H361  1  0.14577954  0.08285757  0.54364689  1
  H+  H362  1  0.91467844  0.08279275  0.56108464  1
  H+  H363  1  0.56292697  0.64011232  0.40568605  1
  H+  H364  1  0.34253433  0.92131347  0.42647821  1
  H+  H365  1  0.11415199  0.46435395  0.17380896  1
  H+  H366  1  0.29314985  0.34386770  0.75222799  1
  H+  H367  1  0.39795842  0.56224001  0.55688907  1
  H+  H368  1  0.14734199  0.54488487  0.25315954  1
  H+  H369  1  0.82647823  0.41179452  0.39539842  1
  H+  H370  1  0.59222688  0.41964923  0.10189574  1
  H+  H371  1  0.65378834  0.12409227  0.33674244  1
  H+  H372  1  0.08330153  0.41494937  0.72296804  1
  H+  H373  1  0.07503113  0.10711641  0.15521578  1
  H+  H374  1  0.30448208  0.26945647  0.28286238  1
  H+  H375  1  0.66640304  0.58344637  0.23786641  1
  H+  H376  1  0.41384967  0.20114485  0.73065981  1
  H+  H377  1  0.90952634  0.57350574  0.26903530  1
  H+  H378  1  0.66950332  0.08550489  0.23664605  1
  H+  H379  1  0.98535154  0.60248927  0.90482627  1
  H+  H380  1  0.91628064  0.08341837  0.93457022  1
  H+  H381  1  0.29590920  0.41409927  0.37683522  1
  H+  H382  1  0.44573131  0.58035185  0.93214665  1
  H+  H383  1  0.08683445  0.92151096  0.07601845  1
  O2-  O384  1  0.06546761  0.15558147  0.14982981  1
  O2-  O385  1  0.06768899  0.17441681  0.46357435  1
  O2-  O386  1  0.09404897  0.13414443  0.81196884  1
  O2-  O387  1  0.08525401  0.40505938  0.15416940  1
  O2-  O388  1  0.03483031  0.41742892  0.49729119  1
  O2-  O389  1  0.14629403  0.44573014  0.79145277  1
  O2-  O390  1  0.08058139  0.63743731  0.18115607  1
  O2-  O391  1  0.08607737  0.67602557  0.46893198  1
  O2-  O392  1  0.08503868  0.67194730  0.80453231  1
  O2-  O393  1  0.09317036  0.93097141  0.15395014  1
  O2-  O394  1  0.07644998  0.91597431  0.47214043  1
  O2-  O395  1  0.06965771  0.90300631  0.80525613  1
  O2-  O396  1  0.34198468  0.17189787  0.15700085  1
  O2-  O397  1  0.33439341  0.18396208  0.47288299  1
  O2-  O398  1  0.36691239  0.18425076  0.80847600  1
  O2-  O399  1  0.33720932  0.41902470  0.14642299  1
  O2-  O400  1  0.29796205  0.42534471  0.44876406  1
  O2-  O401  1  0.27847193  0.31714674  0.79359984  1
  O2-  O402  1  0.32152352  0.64643075  0.16851716  1
  O2-  O403  1  0.33572406  0.66385705  0.48490381  1
  O2-  O404  1  0.34282122  0.67800015  0.82960705  1
  O2-  O405  1  0.33682886  0.89211244  0.14456460  1
  O2-  O406  1  0.34703427  0.92352982  0.47192449  1
  O2-  O407  1  0.33604696  0.92836415  0.81392762  1
  O2-  O408  1  0.57692452  0.16567535  0.15646333  1
  O2-  O409  1  0.56449633  0.14339653  0.49559301  1
  O2-  O410  1  0.60163991  0.17093460  0.83057400  1
  O2-  O411  1  0.59369236  0.42341432  0.14720396  1
  O2-  O412  1  0.65740832  0.36791389  0.49581841  1
  O2-  O413  1  0.49632083  0.40072027  0.81082093  1
  O2-  O414  1  0.57890055  0.66645602  0.15354078  1
  O2-  O415  1  0.58159429  0.66356613  0.48513441  1
  O2-  O416  1  0.59151837  0.67908774  0.81103236  1
  O2-  O417  1  0.57934477  0.91480316  0.14802265  1
  O2-  O418  1  0.57817109  0.90303586  0.47584037  1
  O2-  O419  1  0.59237007  0.91846609  0.81128770  1
  O2-  O420  1  0.82860600  0.16968256  0.14554193  1
  O2-  O421  1  0.80354686  0.14619199  0.48380949  1
  O2-  O422  1  0.84984338  0.16675852  0.80983596  1
  O2-  O423  1  0.83113403  0.40514304  0.15479105  1
  O2-  O424  1  0.84252309  0.41192415  0.47492209  1
  O2-  O425  1  0.83148411  0.40319304  0.80436470  1
  O2-  O426  1  0.83807016  0.65734413  0.15220192  1
  O2-  O427  1  0.83269412  0.65818684  0.48030072  1
  O2-  O428  1  0.80644332  0.64845685  0.81531203  1
  O2-  O429  1  0.81699525  0.92524582  0.13835843  1
  O2-  O430  1  0.83634124  0.90240352  0.49546443  1
  O2-  O431  1  0.83096726  0.91049234  0.81119672  1
  O2-  O432  1  0.18382767  0.09152270  0.22125925  1
  O2-  O433  1  0.15510720  0.09379308  0.49931574  1
  O2-  O434  1  0.13220057  0.08199359  0.83334724  1
  O2-  O435  1  0.17201778  0.31832488  0.20161159  1
  O2-  O436  1  0.13496320  0.34230922  0.50385004  1
  O2-  O437  1  0.21247723  0.37924473  0.86407280  1
  O2-  O438  1  0.15771916  0.55558640  0.20908703  1
  O2-  O439  1  0.16867441  0.60281449  0.51014813  1
  O2-  O440  1  0.16052821  0.58289921  0.85045391  1
  O2-  O441  1  0.16697858  0.83841131  0.18356937  1
  O2-  O442  1  0.16962534  0.83581797  0.50208931  1
  O2-  O443  1  0.16242928  0.83586892  0.85802610  1
  O2-  O444  1  0.42518295  0.09067154  0.20070248  1
  O2-  O445  1  0.47442073  0.09242287  0.51546219  1
  O2-  O446  1  0.42336539  0.09164470  0.85874097  1
  O2-  O447  1  0.42610939  0.34012596  0.18560935  1
  O2-  O448  1  0.51865612  0.38367037  0.48204293  1
  O2-  O449  1  0.42267630  0.34283551  0.85016381  1
  O2-  O450  1  0.41793333  0.58452783  0.17700205  1
  O2-  O451  1  0.40865984  0.57683979  0.51399033  1
  O2-  O452  1  0.45850725  0.65636178  0.88186770  1
  O2-  O453  1  0.41974419  0.82344125  0.19645000  1
  O2-  O454  1  0.41401160  0.82343047  0.51703604  1
  O2-  O455  1  0.43012223  0.84939735  0.84754055  1
  O2-  O456  1  0.66267406  0.08079123  0.19147780  1
  O2-  O457  1  0.64728669  0.06798785  0.52426313  1
  O2-  O458  1  0.68390415  0.08078226  0.85103338  1
  O2-  O459  1  0.66530634  0.33350257  0.19757513  1
  O2-  O460  1  0.65807427  0.30360104  0.53578292  1
  O2-  O461  1  0.68433891  0.32750360  0.85426141  1
  O2-  O462  1  0.66753475  0.58915317  0.19227658  1
  O2-  O463  1  0.65553407  0.56883942  0.51895512  1
  O2-  O464  1  0.63523748  0.55945635  0.85836084  1
  O2-  O465  1  0.66456407  0.83098871  0.18171181  1
  O2-  O466  1  0.66394062  0.82745793  0.52209741  1
  O2-  O467  1  0.67220952  0.83918735  0.83855143  1
  O2-  O468  1  0.90642642  0.08600736  0.18247253  1
  O2-  O469  1  0.90641593  0.08056320  0.51636805  1
  O2-  O470  1  0.92098924  0.07527675  0.85370531  1
  O2-  O471  1  0.91748751  0.32937373  0.19286772  1
  O2-  O472  1  0.94566596  0.34740086  0.50668619  1
  O2-  O473  1  0.92936368  0.33003199  0.85279562  1
  O2-  O474  1  0.91537102  0.56689725  0.19382477  1
  O2-  O475  1  0.94573702  0.57380496  0.52591136  1
  O2-  O476  1  0.90658282  0.57263502  0.80106163  1
  O2-  O477  1  0.92198064  0.82414607  0.19510214  1
  O2-  O478  1  0.91662389  0.82085393  0.52043453  1
  O2-  O479  1  0.90142344  0.81886611  0.85204839  1
  O2-  O480  1  0.17012410  0.07736744  0.34323500  1
  O2-  O481  1  0.13181331  0.05357694  0.62320119  1
  O2-  O482  1  0.17841567  0.09353503  0.99936551  1
  O2-  O483  1  0.15812544  0.31050521  0.26811258  1
  O2-  O484  1  0.14266280  0.32145864  0.63522889  1
  O2-  O485  1  0.16641941  0.32551738  0.98163476  1
  O2-  O486  1  0.12659982  0.54174255  0.33717406  1
  O2-  O487  1  0.15794347  0.58579661  0.63705214  1
  O2-  O488  1  0.23563643  0.54033597  0.99835279  1
  O2-  O489  1  0.15910062  0.82070718  0.30479039  1
  O2-  O490  1  0.19189353  0.84921808  0.65386605  1
  O2-  O491  1  0.16594921  0.83254926  0.98764526  1
  O2-  O492  1  0.40712445  0.06762014  0.30922694  1
  O2-  O493  1  0.45630978  0.08471728  0.63998400  1
  O2-  O494  1  0.41979321  0.08743038  0.98144219  1
  O2-  O495  1  0.36245973  0.29452948  0.29945196  1
  O2-  O496  1  0.42259857  0.33927828  0.62752432  1
  O2-  O497  1  0.41741658  0.32605815  0.98009914  1
  O2-  O498  1  0.39604868  0.58619524  0.31414361  1
  O2-  O499  1  0.39832149  0.56254743  0.68164089  1
  O2-  O500  1  0.45066705  0.54228002  0.96342341  1
  O2-  O501  1  0.38319603  0.81212065  0.31993452  1
  O2-  O502  1  0.41219533  0.83409628  0.68800858  1
  O2-  O503  1  0.45779311  0.90740652  0.95509842  1
  O2-  O504  1  0.68238333  0.09490702  0.31527947  1
  O2-  O505  1  0.67552159  0.07850769  0.64748073  1
  O2-  O506  1  0.67767929  0.08235919  0.97317612  1
  O2-  O507  1  0.65195271  0.33116732  0.32109730  1
  O2-  O508  1  0.65788891  0.32622079  0.65724773  1
  O2-  O509  1  0.67578363  0.34146218  0.97356847  1
  O2-  O510  1  0.66389102  0.57652694  0.31452635  1
  O2-  O511  1  0.65379069  0.57609695  0.64552210  1
  O2-  O512  1  0.66870996  0.57883343  0.97908364  1
  O2-  O513  1  0.67182034  0.83306472  0.29428201  1
  O2-  O514  1  0.65717205  0.82579614  0.64956954  1
  O2-  O515  1  0.66602465  0.83421633  0.98756344  1
  O2-  O516  1  0.92245194  0.08791587  0.30190421  1
  O2-  O517  1  0.91663754  0.07691743  0.64339271  1
  O2-  O518  1  0.91315721  0.08635336  0.97961754  1
  O2-  O519  1  0.92408845  0.35182754  0.31390735  1
  O2-  O520  1  0.91739354  0.33138402  0.63624777  1
  O2-  O521  1  0.92478228  0.33993277  0.98016107  1
  O2-  O522  1  0.90967700  0.57536578  0.31493102  1
  O2-  O523  1  0.90639755  0.58673501  0.65113361  1
  O2-  O524  1  0.92413177  0.58791568  1.02043440  1
  O2-  O525  1  0.91269270  0.81974860  0.31350897  1
  O2-  O526  1  0.90207590  0.81556670  0.64667600  1
  O2-  O527  1  0.92063158  0.81618297  0.98245864  1
  O2-  O528  1  0.07786469  0.16463989  0.02437781  1
  O2-  O529  1  0.08618794  0.16051854  0.34125644  1
  O2-  O530  1  0.08752740  0.15348753  0.68900702  1
  O2-  O531  1  0.08396430  0.40365702  0.03023221  1
  O2-  O532  1  0.06943486  0.46345420  0.37152469  1
  O2-  O533  1  0.07794737  0.41429860  0.67825110  1
  O2-  O534  1  0.09563208  0.69724982  0.07264245  1
  O2-  O535  1  0.07554864  0.65477767  0.35026738  1
  O2-  O536  1  0.08463223  0.67334358  0.68108097  1
  O2-  O537  1  0.08744658  0.91862919  0.03057334  1
  O2-  O538  1  0.08144798  0.90317030  0.35015831  1
  O2-  O539  1  0.06828393  0.89615218  0.68053405  1
  O2-  O540  1  0.33938878  0.16744019  0.03452375  1
  O2-  O541  1  0.33638340  0.15587175  0.35360462  1
  O2-  O542  1  0.44428208  0.21220908  0.69144086  1
  O2-  O543  1  0.32977449  0.40293426  0.02430592  1
  O2-  O544  1  0.30126139  0.40732703  0.33113187  1
  O2-  O545  1  0.31441106  0.38503357  0.67952002  1
  O2-  O546  1  0.26220930  0.67546261  0.06941850  1
  O2-  O547  1  0.30787167  0.64620268  0.36556625  1
  O2-  O548  1  0.32411329  0.67588340  0.66469761  1
  O2-  O549  1  0.33742377  0.92015473  0.02088741  1
  O2-  O550  1  0.32632161  0.91152091  0.34929113  1
  O2-  O551  1  0.34856468  0.92946725  0.68997961  1
  O2-  O552  1  0.59246441  0.16963357  -0.03634776  1
  O2-  O553  1  0.60565663  0.16916959  0.36809145  1
  O2-  O554  1  0.60761015  0.16469063  0.70256575  1
  O2-  O555  1  0.58912660  0.41486089  0.02153661  1
  O2-  O556  1  0.56456790  0.40609629  0.35943747  1
  O2-  O557  1  0.57344305  0.40993285  0.68585322  1
  O2-  O558  1  0.59547052  0.66335206  0.03063225  1
  O2-  O559  1  0.54338213  0.61634579  0.36443957  1
  O2-  O560  1  0.57574786  0.65766406  0.69115089  1
  O2-  O561  1  0.58892943  0.92276897  0.02506699  1
  O2-  O562  1  0.60329904  0.91790508  0.34940843  1
  O2-  O563  1  0.57888819  0.91102570  0.68852186  1
  O2-  O564  1  0.83642762  0.17496571  0.02143465  1
  O2-  O565  1  0.88649396  0.20312408  0.36585704  1
  O2-  O566  1  0.84063425  0.16470121  0.68515741  1
  O2-  O567  1  0.83432224  0.41274871  0.03016945  1
  O2-  O568  1  0.82143855  0.41182789  0.35040286  1
  O2-  O569  1  0.82991461  0.40814696  0.68167927  1
  O2-  O570  1  0.83089443  0.66134336  0.02914728  1
  O2-  O571  1  0.83008369  0.65910271  0.35433083  1
  O2-  O572  1  0.81508492  0.65756143  0.69111763  1
  O2-  O573  1  0.82127640  0.92559415  0.02848863  1
  O2-  O574  1  0.82945191  0.91073401  0.33863211  1
  O2-  O575  1  0.82762688  0.90958353  0.68443844  1
