# generated using pymatgen
data_H2O
_symmetry_space_group_name_H-M   'P 1'
_cell_length_a   17.99433304
_cell_length_b   17.99900215
_cell_length_c   22.01578591
_cell_angle_alpha   89.99408717
_cell_angle_beta   90.00649385
_cell_angle_gamma   119.98578036
_symmetry_Int_Tables_number   1
_chemical_formula_structural   H2O
_chemical_formula_sum   'H384 O192'
_cell_volume   6176.05585685
_cell_formula_units_Z   192
loop_
 _symmetry_equiv_pos_site_id
 _symmetry_equiv_pos_as_xyz
  1  'x, y, z'
loop_
 _atom_type_symbol
 _atom_type_oxidation_number
  H+  1.0
  O2-  -2.0
loop_
 _atom_site_type_symbol
 _atom_site_label
 _atom_site_symmetry_multiplicity
 _atom_site_fract_x
 _atom_site_fract_y
 _atom_site_fract_z
 _atom_site_occupancy
  H+  H0  1  0.23391767  0.85249951  0.51156304  1
  H+  H1  1  0.72968678  0.37760974  0.50304141  1
  H+  H2  1  0.85699349  0.63409628  -0.00517067  1
  H+  H3  1  0.87432650  0.88419521  0.49923617  1
  H+  H4  1  0.22913051  0.60165969  0.50895002  1
  H+  H5  1  0.89318658  0.60815560  0.49408794  1
  H+  H6  1  0.26658546  0.88200186  0.83689336  1
  H+  H7  1  0.85903234  0.63756905  0.14902870  1
  H+  H8  1  0.52204537  0.88226283  0.82226728  1
  H+  H9  1  0.36802951  0.22994164  0.49600836  1
  H+  H10  1  0.27179546  0.38023422  0.67612334  1
  H+  H11  1  0.60470219  0.70382219  0.35638826  1
  H+  H12  1  0.85218921  0.38054079  0.32943401  1
  H+  H13  1  0.25897905  0.17533487  0.68659078  1
  H+  H14  1  0.74094510  0.63858629  0.15605407  1
  H+  H15  1  1.02094618  0.63408956  0.83203021  1
  H+  H16  1  0.68032076  0.85501806  0.08755478  1
  H+  H17  1  0.88752464  0.14246552  0.99128733  1
  H+  H18  1  0.86549220  0.22368821  0.48896702  1
  H+  H19  1  0.87739611  0.10355284  0.84793595  1
  H+  H20  1  0.27183127  0.89001196  0.68172513  1
  H+  H21  1  0.89133615  0.11253626  0.50784138  1
  H+  H22  1  0.88489483  0.86640314  0.15818253  1
  H+  H23  1  0.37221708  0.39755604  -0.00442339  1
  H+  H24  1  0.39254907  0.52493602  0.17684869  1
  H+  H25  1  0.61744177  0.65607089  0.14872036  1
  H+  H26  1  0.87522174  0.53325253  0.65741302  1
  H+  H27  1  0.14182192  0.51461410  0.82743143  1
  H+  H28  1  0.47531464  0.60229195  0.51530068  1
  H+  H29  1  0.87481866  0.52474152  0.15756155  1
  H+  H30  1  0.85592826  0.21746230  0.83024301  1
  H+  H31  1  0.60903010  0.63414379  -0.00106247  1
  H+  H32  1  0.35392202  0.88070518  0.84526884  1
  H+  H33  1  0.88403326  0.37477375  0.98836394  1
  H+  H34  1  0.59436870  0.09502927  1.00954787  1
  H+  H35  1  0.11372213  0.22077051  0.14608686  1
  H+  H36  1  0.61247555  0.38838333  0.49773348  1
  H+  H37  1  0.65440908  0.82927180  0.89065175  1
  H+  H38  1  0.96040108  0.35459589  0.31588524  1
  H+  H39  1  0.89528029  0.03019620  0.32653978  1
  H+  H40  1  0.10859894  0.38490182  0.14156738  1
  H+  H41  1  0.12090685  0.72407458  0.34337397  1
  H+  H42  1  0.27236861  0.14548850  -0.00281397  1
  H+  H43  1  0.86494953  0.38628449  0.82728104  1
  H+  H44  1  0.88176836  0.78602183  0.83293501  1
  H+  H45  1  0.88717480  0.35945345  0.49653108  1
  H+  H46  1  0.77231392  0.64460254  0.82733310  1
  H+  H47  1  0.35057597  0.70654636  0.49435458  1
  H+  H48  1  0.72472617  -0.01926749  0.60859271  1
  H+  H49  1  0.51401380  0.38635411  0.99517384  1
  H+  H50  1  0.36634808  0.19936363  0.33415265  1
  H+  H51  1  0.34278445  0.42307156  0.33772246  1
  H+  H52  1  0.96221205  0.84754131  0.65184540  1
  H+  H53  1  0.22713561  0.09503547  0.36145888  1
  H+  H54  1  0.14728856  0.87717201  0.19287932  1
  H+  H55  1  0.18466321  0.08224077  0.62292871  1
  H+  H56  1  0.38661046  0.27815809  0.98551458  1
  H+  H57  1  0.11679544  0.62624092  0.49484288  1
  H+  H58  1  0.22582888  0.36207266  0.14564714  1
  H+  H59  1  0.14063576  0.52527533  0.16316734  1
  H+  H60  1  0.13912811  0.65845581  0.16407130  1
  H+  H61  1  0.24462026  0.61148445  0.31097609  1
  H+  H62  1  0.62784839  0.26596886  0.33088669  1
  H+  H63  1  0.27434289  0.16080517  0.65958746  1
  H+  H64  1  0.16673724  0.42874091  0.25411849  1
  H+  H65  1  0.86431174  0.14244118  0.16779193  1
  H+  H66  1  0.11920319  0.40010685  -0.00144396  1
  H+  H67  1  0.89237367  0.30127721  0.72808369  1
  H+  H68  1  0.91332659  0.78408542  0.30427665  1
  H+  H69  1  0.88626334  0.96465085  0.68922666  1
  H+  H70  1  0.48101832  0.61329636  0.83007310  1
  H+  H71  1  0.11499091  0.13213271  0.15252955  1
  H+  H72  1  0.37489870  0.88002530  0.34267187  1
  H+  H73  1  0.66645051  0.38423660  0.66270051  1
  H+  H74  1  0.77632388  0.38652687  0.82775878  1
  H+  H75  1  0.60129872  0.71703914  0.49574492  1
  H+  H76  1  0.13204973  0.26711208  0.65863030  1
  H+  H77  1  0.14760163  0.78092871  0.67246950  1
  H+  H78  1  0.37253632  0.63694048  0.82485782  1
  H+  H79  1  0.92294159  0.29621023  0.70766377  1
  H+  H80  1  0.23281561  0.85436263  0.33938369  1
  H+  H81  1  0.36398711  0.25379733  0.15275532  1
  H+  H82  1  0.62866549  0.01999834  0.83581494  1
  H+  H83  1  0.89574257  0.11685486  0.32093977  1
  H+  H84  1  0.61245845  0.94357892  0.66419144  1
  H+  H85  1  0.36061665  0.13210335  0.83239750  1
  H+  H86  1  0.47565398  0.61891971  0.98629811  1
  H+  H87  1  0.86915120  -0.01326633  0.15707381  1
  H+  H88  1  0.61356251  0.63604903  0.81389932  1
  H+  H89  1  0.95711570  0.08847877  0.84177465  1
  H+  H90  1  0.84228893  0.63704814  0.66728935  1
  H+  H91  1  0.91197093  0.58303839  0.21696709  1
  H+  H92  1  0.13230860  0.77236068  0.84254508  1
  H+  H93  1  0.45949701  0.37500372  0.33461861  1
  H+  H94  1  0.11617604  1.00014021  0.24212877  1
  H+  H95  1  0.14515231  0.28493384  0.99623951  1
  H+  H96  1  0.63144307  0.86113930  0.50183859  1
  H+  H97  1  0.63634058  0.78027459  0.82773554  1
  H+  H98  1  0.16261065  0.33487049  0.20118715  1
  H+  H99  1  0.37382686  0.73265865  0.67131903  1
  H+  H100  1  -0.03168790  0.36596595  0.16585493  1
  H+  H101  1  0.63453375  0.52578880  0.98550493  1
  H+  H102  1  0.97619488  0.35837118  0.50258988  1
  H+  H103  1  0.83314969  0.93760054  0.41927863  1
  H+  H104  1  0.03662491  0.13434294  0.33753685  1
  H+  H105  1  0.36895576  0.72326753  0.83306026  1
  H+  H106  1  0.13612709  1.02420810  0.83407133  1
  H+  H107  1  0.64377574  0.28727490  0.66364704  1
  H+  H108  1  0.62849963  1.02112417  0.33049324  1
  H+  H109  1  0.04323953  0.41637145  0.66406456  1
  H+  H110  1  0.34331554  0.97038591  0.00900886  1
  H+  H111  1  0.39818093  0.61456291  0.66807935  1
  H+  H112  1  0.99399489  0.87653672  0.28547713  1
  H+  H113  1  0.83764991  0.16316863  0.42975314  1
  H+  H114  1  0.78649915  0.88898524  0.50538450  1
  H+  H115  1  0.09621962  0.12261803  0.65741987  1
  H+  H116  1  0.97939384  0.60548744  0.50547089  1
  H+  H117  1  0.86356490  0.73113783  0.14541401  1
  H+  H118  1  0.12633991  0.39418359  0.34710939  1
  H+  H119  1  0.60482230  0.73696947  0.13779312  1
  H+  H120  1  0.46853543  0.86114222  0.65845503  1
  H+  H121  1  0.48244610  0.61352578  0.17559551  1
  H+  H122  1  0.17590084  0.58577143  0.57147112  1
  H+  H123  1  0.56603801  0.42080014  0.05679061  1
  H+  H124  1  0.62803026  0.36516075  0.99129491  1
  H+  H125  1  0.61862669  0.83788868  0.37222607  1
  H+  H126  1  0.71862557  0.10834029  0.83949867  1
  H+  H127  1  0.40608396  0.07933193  0.93564382  1
  H+  H128  1  0.10944731  0.73019197  0.01169510  1
  H+  H129  1  0.61094860  0.51894518  0.26591092  1
  H+  H130  1  0.13483989  0.11175649  0.83190203  1
  H+  H131  1  0.28247845  0.90574041  0.16913586  1
  H+  H132  1  0.79522452  0.64154077  0.32167498  1
  H+  H133  1  0.85529769  0.21642323  0.33057606  1
  H+  H134  1  0.78679659  0.39534766  -0.00160802  1
  H+  H135  1  0.88094598  0.27466972  0.17024574  1
  H+  H136  1  0.90657227  0.33005791  0.25417252  1
  H+  H137  1  0.12328151  0.63646134  0.33771714  1
  H+  H138  1  0.00418075  0.85981842  0.14350720  1
  H+  H139  1  0.48072394  0.36577458  0.50630910  1
  H+  H140  1  0.14985809  0.37042757  0.51383315  1
  H+  H141  1  0.48173395  0.38899540  0.18604832  1
  H+  H142  1  0.73311954  0.10446268  0.49972277  1
  H+  H143  1  0.70597176  0.61732280  0.66060575  1
  H+  H144  1  0.52766122  0.13497222  0.33999534  1
  H+  H145  1  0.39066209  0.01978884  0.66614153  1
  H+  H146  1  -0.01265899  0.60929230  0.31905613  1
  H+  H147  1  0.60685232  0.13508382  0.83153449  1
  H+  H148  1  0.35977981  0.14287268  0.00164036  1
  H+  H149  1  0.63150241  0.27839643  0.99421586  1
  H+  H150  1  0.66847011  0.15052034  0.64635809  1
  H+  H151  1  0.39845121  0.03403733  0.17820192  1
  H+  H152  1  0.63087440  0.10863125  0.65622590  1
  H+  H153  1  0.35812891  0.31226959  0.33865051  1
  H+  H154  1  0.83473679  -0.12215899  1.00075997  1
  H+  H155  1  0.61579051  0.12681301  0.49028872  1
  H+  H156  1  0.61203628  0.88399519  0.82334977  1
  H+  H157  1  0.16773522  0.27509931  0.85368227  1
  H+  H158  1  0.62811974  0.60512735  0.51387624  1
  H+  H159  1  0.91157576  0.82163624  0.55922738  1
  H+  H160  1  0.85748926  0.66960796  0.41716114  1
  H+  H161  1  0.40400484  0.15914385  0.68180826  1
  H+  H162  1  0.89620743  0.02542211  0.51186928  1
  H+  H163  1  0.15972221  0.06916775  0.44348097  1
  H+  H164  1  0.08621839  0.41010084  0.76231126  1
  H+  H165  1  0.06508098  0.20373364  0.80603275  1
  H+  H166  1  0.60528105  0.98785732  0.15408759  1
  H+  H167  1  0.37923957  0.37778631  0.50601073  1
  H+  H168  1  0.63064942  0.91961353  0.32042857  1
  H+  H169  1  0.92118929  0.41822505  0.64868910  1
  H+  H170  1  0.29071225  0.66683315  0.98570073  1
  H+  H171  1  0.10942048  0.63095773  0.83002473  1
  H+  H172  1  0.20813183  0.44945673  0.38263819  1
  H+  H173  1  0.86909355  0.47539752  0.48828270  1
  H+  H174  1  0.70309036  0.85618516  0.98873761  1
  H+  H175  1  0.39220513  0.27072330  0.83598421  1
  H+  H176  1  0.36035918  0.62366270  0.49970387  1
  H+  H177  1  0.88182726  0.63808111  0.32046653  1
  H+  H178  1  0.60561445  0.70881395  0.71492638  1
  H+  H179  1  0.37159031  0.99088134  0.49147474  1
  H+  H180  1  0.71552603  0.49286893  0.71584685  1
  H+  H181  1  0.48569804  0.12415682  0.18055616  1
  H+  H182  1  0.17476533  0.57964474  0.22453644  1
  H+  H183  1  0.23694604  0.13308257  0.16684238  1
  H+  H184  1  0.97244993  0.35316673  0.83688974  1
  H+  H185  1  0.47976599  0.11022641  0.66479268  1
  H+  H186  1  0.16151342  0.52947402  0.33276427  1
  H+  H187  1  0.11876526  0.39169247  0.67008598  1
  H+  H188  1  0.52939094  0.38597186  0.82251481  1
  H+  H189  1  0.64463270  0.50128795  0.67803528  1
  H+  H190  1  0.59019250  0.37117675  0.34178379  1
  H+  H191  1  0.39655521  0.12035396  0.51231314  1
  H+  H192  1  0.15518550  0.53477022  0.66499221  1
  H+  H193  1  0.11814093  0.48792328  0.99391220  1
  H+  H194  1  0.37230960  0.11590877  0.34358550  1
  H+  H195  1  0.28181906  0.38346942  0.50329004  1
  H+  H196  1  0.23609246  0.37409146  0.99435480  1
  H+  H197  1  0.16246063  0.03958201  0.15398102  1
  H+  H198  1  0.77842319  0.14022268  -0.00764059  1
  H+  H199  1  0.13684184  0.65375656  0.68116399  1
  H+  H200  1  0.47701842  0.60027729  0.68125033  1
  H+  H201  1  0.12912077  0.86005050  0.99017159  1
  H+  H202  1  0.86305804  0.23702481  -0.00832732  1
  H+  H203  1  0.87036785  0.71808124  0.47977785  1
  H+  H204  1  0.63252400  0.01058876  0.97820425  1
  H+  H205  1  0.78488392  0.39196431  0.67208312  1
  H+  H206  1  0.11643909  0.14375185  0.48968260  1
  H+  H207  1  0.88185897  0.51495962  -0.00900875  1
  H+  H208  1  0.01547202  0.89143056  -0.00784642  1
  H+  H209  1  0.38188859  0.01828954  0.84563018  1
  H+  H210  1  0.45911949  0.09665178  0.99738197  1
  H+  H211  1  0.47108807  0.10933080  0.84539609  1
  H+  H212  1  0.14722983  0.28013572  0.50802876  1
  H+  H213  1  0.39351256  0.52258187  0.83344543  1
  H+  H214  1  0.22346455  0.40233133  0.29202093  1
  H+  H215  1  0.63941064  0.36471427  0.83978933  1
  H+  H216  1  0.98706941  0.13856530  0.99459965  1
  H+  H217  1  0.10845878  0.64453220  1.03563581  1
  H+  H218  1  0.02858253  0.14484308  0.49899286  1
  H+  H219  1  0.29983321  0.79027785  0.53373559  1
  H+  H220  1  0.37164780  0.77653210  0.92269229  1
  H+  H221  1  0.13363038  0.02829325  0.98674230  1
  H+  H222  1  0.11354399  0.14417680  -0.00141941  1
  H+  H223  1  0.10729551  0.87962467  0.67285386  1
  H+  H224  1  0.38000498  0.86312512  0.66516791  1
  H+  H225  1  0.11443136  0.95682493  0.48421329  1
  H+  H226  1  0.76592519  0.08790073  0.67138396  1
  H+  H227  1  0.76885305  0.12684865  0.33512284  1
  H+  H228  1  0.51520365  0.04049235  1.05161804  1
  H+  H229  1  0.61768772  0.76276833  0.98581358  1
  H+  H230  1  0.86969359  0.76628922  0.64984274  1
  H+  H231  1  0.10792572  0.88828389  0.82644876  1
  H+  H232  1  0.08831347  -0.04369215  0.66447440  1
  H+  H233  1  1.01093994  0.12423772  0.66757606  1
  H+  H234  1  0.28611042  0.39012188  0.83006689  1
  H+  H235  1  0.86177939  0.64584208  0.82786607  1
  H+  H236  1  0.11708152  0.47399151  0.51023583  1
  H+  H237  1  -0.02670198  0.85244790  0.50007345  1
  H+  H238  1  0.76810404  0.38828087  0.33448735  1
  H+  H239  1  0.71343532  0.85298821  0.37100524  1
  H+  H240  1  0.17991524  0.83155572  0.61043689  1
  H+  H241  1  0.47296194  0.87058057  0.17615149  1
  H+  H242  1  0.77809008  0.89985351  0.15006476  1
  H+  H243  1  0.60932286  0.58551143  0.31493250  1
  H+  H244  1  0.08496889  0.16751251  0.06133790  1
  H+  H245  1  0.82306049  0.67287914  0.72911867  1
  H+  H246  1  0.77437277  0.14066578  0.16867708  1
  H+  H247  1  0.52941819  0.13082798  0.49139118  1
  H+  H248  1  0.60948141  0.22601848  0.83664393  1
  H+  H249  1  0.61770434  0.24539835  0.14193597  1
  H+  H250  1  0.97174675  0.87278973  0.83424182  1
  H+  H251  1  0.63470843  0.52561203  0.83645396  1
  H+  H252  1  0.49149214  0.85782503  0.32506261  1
  H+  H253  1  0.88556116  0.52763484  0.83878141  1
  H+  H254  1  0.62294172  0.50729882  0.17464056  1
  H+  H255  1  0.42463164  0.83214738  0.26836644  1
  H+  H256  1  0.39646929  0.72034782  0.31414548  1
  H+  H257  1  0.39103649  0.36463200  0.65701830  1
  H+  H258  1  0.63756966  0.12463071  0.17536113  1
  H+  H259  1  0.15758962  0.75436129  0.51529124  1
  H+  H260  1  0.87898210  0.77833508  0.98189031  1
  H+  H261  1  0.63598524  0.11419613  0.32902306  1
  H+  H262  1  0.11569414  0.37905097  0.82202551  1
  H+  H263  1  0.64080518  0.01655825  0.49558843  1
  H+  H264  1  0.37049081  0.48684154  -0.00404941  1
  H+  H265  1  0.63272506  0.87846435  0.13751653  1
  H+  H266  1  0.51966881  0.89075513  0.47622937  1
  H+  H267  1  0.97976683  0.11395951  0.16750981  1
  H+  H268  1  0.34585692  0.51205191  0.33005670  1
  H+  H269  1  0.15927095  0.79587435  0.18697960  1
  H+  H270  1  0.21881667  0.86025584  0.99812856  1
  H+  H271  1  0.58814574  0.16432892  0.39977402  1
  H+  H272  1  0.39736343  0.01514549  0.32715098  1
  H+  H273  1  0.79265174  0.98769271  0.38881726  1
  H+  H274  1  0.61045481  0.82599580  0.67518743  1
  H+  H275  1  0.52108289  0.21838947  0.70963816  1
  H+  H276  1  0.37428779  0.47529922  0.50819092  1
  H+  H277  1  -0.02809001  0.36853679  -0.01417409  1
  H+  H278  1  0.59842823  0.46287071  0.34337519  1
  H+  H279  1  0.24543725  0.62192507  0.66268890  1
  H+  H280  1  0.87908692  0.08740086  0.66731938  1
  H+  H281  1  0.87438613  0.90259123  0.80096452  1
  H+  H282  1  0.36253761  0.89775653  0.49146594  1
  H+  H283  1  0.84251934  0.42535493  0.73275520  1
  H+  H284  1  0.83900780  0.18472787  0.67989282  1
  H+  H285  1  0.42245883  0.29553181  0.66120856  1
  H+  H286  1  0.62640712  0.51657710  0.51204365  1
  H+  H287  1  0.65267759  0.36476275  0.09008225  1
  H+  H288  1  0.64916535  0.32324004  0.27124365  1
  H+  H289  1  0.66669629  0.82291360  0.45645131  1
  H+  H290  1  0.14972852  0.63052118  0.95934356  1
  H+  H291  1  0.58489695  0.91692079  0.41948085  1
  H+  H292  1  0.33843715  0.41348914  0.76723114  1
  H+  H293  1  0.55385800  0.92238717  0.09786013  1
  H+  H294  1  0.42051238  0.33630101  0.56905852  1
  H+  H295  1  0.41939590  0.58936850  0.92566472  1
  H+  H296  1  0.37646390  0.66199943  0.98683134  1
  H+  H297  1  0.33268898  0.19344545  0.09341904  1
  H+  H298  1  0.08615979  0.88656223  0.43406406  1
  H+  H299  1  0.57249015  0.40878751  0.43780891  1
  H+  H300  1  0.42114161  0.57275276  0.57749302  1
  H+  H301  1  0.72947390  0.38424120  0.13373095  1
  H+  H302  1  0.92217239  0.09655583  0.93401440  1
  H+  H303  1  0.10234231  0.41974416  0.45044259  1
  H+  H304  1  0.51079229  0.63135964  0.34120096  1
  H+  H305  1  0.68781430  0.62479580  0.21808035  1
  H+  H306  1  0.58135590  0.86233112  -0.02432242  1
  H+  H307  1  0.82201591  0.14731757  0.77595499  1
  H+  H308  1  0.36447663  0.39848616  0.15341498  1
  H+  H309  1  0.28000681  0.64934506  0.14745041  1
  H+  H310  1  0.35020066  0.67608050  0.73225299  1
  H+  H311  1  0.41504452  0.60354770  0.26048202  1
  H+  H312  1  0.33229996  0.91521950  0.74115328  1
  H+  H313  1  0.60524797  0.42759415  0.77031394  1
  H+  H314  1  0.17178665  0.33114133  0.60228542  1
  H+  H315  1  0.91225259  0.58409409  0.89915354  1
  H+  H316  1  0.13906014  0.09954430  0.35889519  1
  H+  H317  1  0.62853959  0.80452294  0.24654634  1
  H+  H318  1  0.40615576  0.35217338  0.23372292  1
  H+  H319  1  0.63588771  0.77190947  0.26258244  1
  H+  H320  1  0.62062552  0.41729881  0.17394110  1
  H+  H321  1  0.94166792  0.37723059  0.59098247  1
  H+  H322  1  0.38440301  0.78255749  0.17087167  1
  H+  H323  1  0.42470048  0.08424446  0.56929430  1
  H+  H324  1  0.33710087  0.69210114  0.08886921  1
  H+  H325  1  0.34734357  0.16735466  0.43830034  1
  H+  H326  1  0.23142238  0.60627715  0.82551747  1
  H+  H327  1  0.39589764  0.36223449  0.83404498  1
  H+  H328  1  0.90528955  0.84272256  0.92557639  1
  H+  H329  1  0.91463287  0.83223265  0.21686021  1
  H+  H330  1  0.44640050  0.81738081  1.02031212  1
  H+  H331  1  0.68836521  0.03895498  0.58187730  1
  H+  H332  1  0.66037581  0.07963560  0.92729921  1
  H+  H333  1  0.08764848  0.17065206  0.39882528  1
  H+  H334  1  0.89520093  0.52323233  0.31729516  1
  H+  H335  1  0.34731762  0.92062573  0.39797115  1
  H+  H336  1  0.64766909  0.57122713  0.60283031  1
  H+  H337  1  0.67618262  0.35099520  0.56461458  1
  H+  H338  1  0.72510848  0.61453661  0.98602880  1
  H+  H339  1  0.09084665  0.65996577  0.43530498  1
  H+  H340  1  0.12507948  0.97981768  0.30876382  1
  H+  H341  1  0.17960058  0.58569710  0.91325793  1
  H+  H342  1  0.09946458  0.67689053  0.73985815  1
  H+  H343  1  0.46000605  0.85360228  0.91181647  1
  H+  H344  1  0.96584049  0.61047272  0.99344734  1
  H+  H345  1  0.16469382  0.08738361  0.92757697  1
  H+  H346  1  0.64577015  0.78331396  0.62896899  1
  H+  H347  1  0.12026809  0.05096844  0.56985367  1
  H+  H348  1  0.57384646  0.90483679  0.73051304  1
  H+  H349  1  0.82996869  0.66808903  0.05298569  1
  H+  H350  1  0.17039898  0.83653893  0.28527048  1
  H+  H351  1  0.57537226  0.66280053  0.05819595  1
  H+  H352  1  0.57497672  0.18544324  0.74495674  1
  H+  H353  1  0.91397630  0.33120266  0.89693979  1
  H+  H354  1  0.65713819  0.08215307  0.23293790  1
  H+  H355  1  0.07030322  0.14847887  0.75315351  1
  H+  H356  1  0.91154710  0.06934089  0.60349259  1
  H+  H357  1  0.09196764  0.68825778  0.11723948  1
  H+  H358  1  0.16007850  0.83162804  0.90142980  1
  H+  H359  1  0.17918120  0.33956375  0.90650159  1
  H+  H360  1  0.89762800  0.58471720  0.59532537  1
  H+  H361  1  0.05027042  0.81226510  0.11745320  1
  H+  H362  1  0.07178175  0.90910963  0.05162568  1
  H+  H363  1  0.83793922  0.42289083  0.07750198  1
  H+  H364  1  0.34208266  0.42985400  0.09109712  1
  H+  H365  1  0.36582039  0.89682057  0.16418872  1
  H+  H366  1  0.58047818  0.16038530  0.10116585  1
  H+  H367  1  0.22959034  0.11208923  0.49423643  1
  H+  H368  1  0.66074374  0.58857097  0.89339162  1
  H+  H369  1  0.85083211  0.38867962  0.14507462  1
  H+  H370  1  0.42611645  0.08144050  0.26948291  1
  H+  H371  1  0.32106962  0.91561306  0.06946198  1
  H+  H372  1  0.07875886  0.42478440  0.08993813  1
  H+  H373  1  0.81838608  0.91591195  0.06057043  1
  H+  H374  1  0.36134102  0.47012497  0.67686281  1
  H+  H375  1  0.92508062  0.08512154  0.22930496  1
  H+  H376  1  0.07856554  0.91564559  0.76560178  1
  H+  H377  1  0.38499033  0.81929872  0.56946360  1
  H+  H378  1  0.42158346  0.33632130  0.92487308  1
  H+  H379  1  0.38598694  0.19514927  0.74289876  1
  H+  H380  1  0.83496398  0.41659997  0.42858404  1
  H+  H381  1  0.27448765  0.13715311  0.82310307  1
  H+  H382  1  0.56821574  0.64961112  0.44025287  1
  H+  H383  1  0.66992398  0.33716557  0.89945018  1
  O2-  O384  1  0.08094103  0.15801745  0.13591633  1
  O2-  O385  1  0.08805806  0.17822143  0.48210854  1
  O2-  O386  1  0.06813761  0.15185365  0.79915641  1
  O2-  O387  1  0.07978423  0.41946024  0.13506107  1
  O2-  O388  1  0.08941239  0.41274191  0.49465338  1
  O2-  O389  1  0.08410554  0.40775305  0.80829361  1
  O2-  O390  1  0.11968442  0.70063881  0.15722534  1
  O2-  O391  1  0.08957818  0.65993589  0.48069492  1
  O2-  O392  1  0.08323625  0.66652857  0.82018311  1
  O2-  O393  1  0.06075426  0.87005041  0.12532270  1
  O2-  O394  1  0.08039480  0.89455136  0.47722313  1
  O2-  O395  1  0.08059419  0.92102680  0.81109252  1
  O2-  O396  1  0.32858606  0.19413933  0.13821928  1
  O2-  O397  1  0.33992116  0.16848853  0.48314354  1
  O2-  O398  1  0.33726305  0.16711285  0.81379995  1
  O2-  O399  1  0.33296873  0.42638194  0.13602256  1
  O2-  O400  1  0.34494171  0.41347595  0.49119548  1
  O2-  O401  1  0.34511422  0.41794864  0.81281868  1
  O2-  O402  1  0.33919818  0.68979942  0.13324545  1
  O2-  O403  1  0.32611215  0.64644514  0.48062642  1
  O2-  O404  1  0.34197364  0.66815719  0.81110706  1
  O2-  O405  1  0.33943020  0.93041076  0.14809734  1
  O2-  O406  1  0.33942251  0.93220775  0.47266167  1
  O2-  O407  1  0.32904667  0.91181039  0.82467865  1
  O2-  O408  1  0.59169489  0.18191874  0.14368159  1
  O2-  O409  1  0.58549783  0.15317812  0.47054272  1
  O2-  O410  1  0.57499655  0.16574020  0.82099535  1
  O2-  O411  1  0.59087610  0.44710409  0.19030232  1
  O2-  O412  1  0.57259427  0.41069255  0.48285457  1
  O2-  O413  1  0.59267363  0.41985733  0.81521925  1
  O2-  O414  1  0.57586763  0.67323463  0.13331558  1
  O2-  O415  1  0.57021820  0.65490668  0.48518862  1
  O2-  O416  1  0.58150144  0.66625968  0.79961603  1
  O2-  O417  1  0.57423657  0.92633041  0.14000776  1
  O2-  O418  1  0.58055279  0.91696273  0.46659856  1
  O2-  O419  1  0.58088118  0.91568646  0.80755036  1
  O2-  O420  1  0.83543227  0.17534549  0.15703263  1
  O2-  O421  1  0.83769242  0.16194920  0.47503963  1
  O2-  O422  1  0.82291708  0.15438363  0.82075619  1
  O2-  O423  1  0.82623384  0.42119100  0.12566644  1
  O2-  O424  1  0.83705841  0.41390534  0.47351702  1
  O2-  O425  1  0.83683808  0.41902570  0.81318199  1
  O2-  O426  1  0.83093405  0.66995588  0.13060411  1
  O2-  O427  1  0.85327395  0.66151407  0.46161700  1
  O2-  O428  1  0.83287106  0.67735480  0.81305949  1
  O2-  O429  1  0.83972946  0.92692745  0.13951428  1
  O2-  O430  1  0.84623979  0.92137485  0.49036655  1
  O2-  O431  1  0.86022333  0.93892733  0.77376796  1
  O2-  O432  1  0.17494647  0.08933431  0.17880501  1
  O2-  O433  1  0.16553094  0.07831444  0.48953347  1
  O2-  O434  1  0.16781388  0.08578392  0.84834552  1
  O2-  O435  1  0.16306707  0.32747579  0.15631335  1
  O2-  O436  1  0.18241855  0.33980936  0.52467892  1
  O2-  O437  1  0.18103099  0.33407391  0.86046246  1
  O2-  O438  1  0.17541586  0.58471184  0.17960854  1
  O2-  O439  1  0.16912744  0.57636414  0.52640676  1
  O2-  O440  1  0.17146717  0.57587725  0.84148330  1
  O2-  O441  1  0.18547320  0.85542910  0.20476686  1
  O2-  O442  1  0.20370793  0.80315838  0.53929733  1
  O2-  O443  1  0.16192154  0.83381372  0.85595291  1
  O2-  O444  1  0.42845972  0.09059029  0.19932911  1
  O2-  O445  1  0.42580886  0.08789582  0.52390901  1
  O2-  O446  1  0.40995496  0.07937217  0.85967503  1
  O2-  O447  1  0.41774060  0.35534673  0.18960366  1
  O2-  O448  1  0.41764622  0.33576282  0.52155326  1
  O2-  O449  1  0.42623157  0.33218549  0.84958276  1
  O2-  O450  1  0.43302878  0.57488644  0.20181805  1
  O2-  O451  1  0.41530650  0.56803050  0.53234131  1
  O2-  O452  1  0.42163680  0.58384895  0.84746338  1
  O2-  O453  1  0.41324209  0.84015595  0.19191334  1
  O2-  O454  1  0.36117818  0.80739970  0.52716489  1
  O2-  O455  1  0.40474959  0.81812680  0.89028775  1
  O2-  O456  1  0.65906288  0.08536915  0.18760103  1
  O2-  O457  1  0.67483512  0.07136572  0.51878572  1
  O2-  O458  1  0.65681079  0.07962644  0.85256963  1
  O2-  O459  1  0.66331840  0.35959772  0.13291228  1
  O2-  O460  1  0.67138411  0.35578968  0.52004516  1
  O2-  O461  1  0.66854724  0.33256448  0.85451543  1
  O2-  O462  1  0.68053444  0.61729285  0.17388680  1
  O2-  O463  1  0.65527708  0.57404030  0.53127575  1
  O2-  O464  1  0.66084911  0.58764251  0.84788921  1
  O2-  O465  1  0.66492701  0.84668176  0.13057263  1
  O2-  O466  1  0.66385248  0.82975082  0.50167748  1
  O2-  O467  1  0.65801634  0.83738894  0.84598469  1
  O2-  O468  1  0.92004091  0.08571215  0.18414549  1
  O2-  O469  1  0.92357093  0.08633739  0.52660489  1
  O2-  O470  1  0.90773091  0.07629140  0.86751672  1
  O2-  O471  1  0.90918752  0.33783214  0.18260047  1
  O2-  O472  1  0.91399723  0.32624292  0.51321005  1
  O2-  O473  1  0.91200903  0.32466951  0.85112023  1
  O2-  O474  1  0.90082023  0.58452966  0.17315946  1
  O2-  O475  1  0.91715263  0.57470968  0.51542411  1
  O2-  O476  1  0.91529224  0.58815230  0.85341777  1
  O2-  O477  1  0.91111542  0.83083650  0.16996094  1
  O2-  O478  1  0.91217993  0.82632284  0.51272443  1
  O2-  O479  1  0.91024938  0.84739255  0.84625540  1
  O2-  O480  1  0.16476391  0.06239260  0.37056416  1
  O2-  O481  1  0.12309152  0.05416084  0.61460397  1
  O2-  O482  1  0.16452054  0.08954547  0.97297359  1
  O2-  O483  1  0.16607300  0.37824099  0.27096448  1
  O2-  O484  1  0.16672993  0.32899578  0.64765864  1
  O2-  O485  1  0.17491176  0.34487976  0.97974106  1
  O2-  O486  1  0.18133664  0.58013790  0.30597807  1
  O2-  O487  1  0.18453091  0.59467780  0.64888056  1
  O2-  O488  1  0.18032520  0.59848890  0.95856417  1
  O2-  O489  1  0.17074696  0.82494917  0.32936178  1
  O2-  O490  1  0.17368562  0.84131901  0.65428261  1
  O2-  O491  1  0.15829146  0.82673465  0.98026435  1
  O2-  O492  1  0.42499733  0.07773229  0.31615730  1
  O2-  O493  1  0.42101107  0.07809633  0.64698827  1
  O2-  O494  1  0.40150732  0.07989321  0.98111959  1
  O2-  O495  1  0.40233599  0.36259610  0.31758205  1
  O2-  O496  1  0.42587571  0.34328321  0.63642695  1
  O2-  O497  1  0.42032977  0.33956612  0.97061692  1
  O2-  O498  1  0.41099793  0.61496089  0.30727267  1
  O2-  O499  1  0.42350038  0.57760533  0.65719635  1
  O2-  O500  1  0.41499687  0.59179879  0.97085530  1
  O2-  O501  1  0.42832752  0.82257181  0.31290610  1
  O2-  O502  1  0.40717469  0.83249327  0.64509455  1
  O2-  O503  1  0.49550500  0.87637451  1.02626421  1
  O2-  O504  1  0.66291155  0.08048442  0.31326784  1
  O2-  O505  1  0.69941401  0.01515986  0.62124395  1
  O2-  O506  1  0.66235693  0.07365389  0.97287391  1
  O2-  O507  1  0.65232867  0.32763201  0.31540123  1
  O2-  O508  1  0.68326261  0.34367334  0.64434833  1
  O2-  O509  1  0.66284587  0.33772556  0.98044643  1
  O2-  O510  1  0.64289446  0.55895635  0.29916595  1
  O2-  O511  1  0.64614270  0.57380695  0.64896544  1
  O2-  O512  1  0.66356139  0.58612066  0.97138158  1
  O2-  O513  1  0.65331124  0.80902872  0.38140075  1
  O2-  O514  1  0.64221494  0.79383533  0.67192452  1
  O2-  O515  1  0.64231839  0.82403130  0.97206628  1
  O2-  O516  1  0.92781339  0.08760567  0.30764957  1
  O2-  O517  1  0.91157897  0.06183854  0.64861317  1
  O2-  O518  1  0.92531515  0.10942611  0.98020477  1
  O2-  O519  1  0.90177203  0.32341244  0.30071537  1
  O2-  O520  1  0.96781962  0.41549779  0.62618429  1
  O2-  O521  1  0.91174401  0.33858782  0.97136886  1
  O2-  O522  1  0.92863997  0.58237296  0.30055375  1
  O2-  O523  1  0.88906538  0.58911689  0.63940254  1
  O2-  O524  1  0.90786149  0.57884339  0.97552598  1
  O2-  O525  1  0.93018907  0.84033446  0.28559353  1
  O2-  O526  1  0.90725247  0.82277165  0.62974326  1
  O2-  O527  1  0.90647910  0.84023422  0.97102948  1
  O2-  O528  1  0.08693244  0.17698325  0.01590046  1
  O2-  O529  1  0.09459576  0.15938374  0.35577743  1
  O2-  O530  1  0.07397464  0.15600248  0.67891978  1
  O2-  O531  1  0.08637982  0.42901299  0.01049238  1
  O2-  O532  1  0.14865602  0.43808488  0.37949163  1
  O2-  O533  1  0.09663440  0.42760439  0.68788718  1
  O2-  O534  1  0.07313961  0.67098806  0.03000134  1
  O2-  O535  1  0.08864142  0.66034534  0.35436668  1
  O2-  O536  1  0.11009242  0.68702531  0.69574543  1
  O2-  O537  1  0.07639854  0.91948112  0.00680601  1
  O2-  O538  1  0.10102159  0.95143524  0.26947844  1
  O2-  O539  1  0.07053531  0.90337875  0.68779393  1
  O2-  O540  1  0.33313880  0.17887768  0.01139302  1
  O2-  O541  1  0.34253147  0.14850448  0.35974343  1
  O2-  O542  1  0.42115069  0.21283222  0.70501600  1
  O2-  O543  1  0.34192702  0.42684415  0.01239850  1
  O2-  O544  1  0.30678437  0.44998717  0.34023110  1
  O2-  O545  1  0.33231517  0.40926276  0.69124659  1
  O2-  O546  1  0.35318268  0.70157242  -0.00557522  1
  O2-  O547  1  0.35748800  0.65482358  0.31348879  1
  O2-  O548  1  0.35106788  0.67270213  0.68707854  1
  O2-  O549  1  0.31473007  0.91062552  0.02434742  1
  O2-  O550  1  0.34687120  0.91417189  0.35262792  1
  O2-  O551  1  0.33370420  0.91788081  0.69610374  1
  O2-  O552  1  0.54871274  0.09811752  0.03462206  1
  O2-  O553  1  0.58921798  0.16963347  0.35339041  1
  O2-  O554  1  0.56433052  0.19990194  0.70313970  1
  O2-  O555  1  0.57491414  0.41707404  0.01345947  1
  O2-  O556  1  0.56120462  0.40257954  0.35727462  1
  O2-  O557  1  0.65562874  0.45708726  0.70368744  1
  O2-  O558  1  0.57631517  0.66285560  0.01240538  1
  O2-  O559  1  0.56649801  0.64020321  0.35624241  1
  O2-  O560  1  0.57196547  0.64947100  0.73400779  1
  O2-  O561  1  0.54665195  0.89384452  -0.02956327  1
  O2-  O562  1  0.58771121  0.91133183  0.35066248  1
  O2-  O563  1  0.56758117  0.89208012  0.68584107  1
  O2-  O564  1  0.83935309  0.17520093  0.00447110  1
  O2-  O565  1  0.83075526  0.15780139  0.34811965  1
  O2-  O566  1  0.81696151  0.12745571  0.69692177  1
  O2-  O567  1  0.84635343  0.42489386  0.01255093  1
  O2-  O568  1  0.82954641  0.41676119  0.34607125  1
  O2-  O569  1  0.84464941  0.42969349  0.68766814  1
  O2-  O570  1  0.82754129  0.66674240  0.00747280  1
  O2-  O571  1  0.85548959  0.67358723  0.33371646  1
  O2-  O572  1  0.81314911  0.66839263  0.68468138  1
  O2-  O573  1  0.79775036  0.89887573  0.01817677  1
  O2-  O574  1  0.81401943  0.94894449  0.37855253  1
  O2-  O575  1  0.87837436  0.91548924  0.71473112  1
