# generated using pymatgen
data_H2O
_symmetry_space_group_name_H-M   'P 1'
_cell_length_a   17.99324609
_cell_length_b   17.99204564
_cell_length_c   21.98968527
_cell_angle_alpha   90.00668193
_cell_angle_beta   89.99191612
_cell_angle_gamma   119.98565198
_symmetry_Int_Tables_number   1
_chemical_formula_structural   H2O
_chemical_formula_sum   'H384 O192'
_cell_volume   6165.98517962
_cell_formula_units_Z   192
loop_
 _symmetry_equiv_pos_site_id
 _symmetry_equiv_pos_as_xyz
  1  'x, y, z'
loop_
 _atom_type_symbol
 _atom_type_oxidation_number
  H+  1.0
  O2-  -2.0
loop_
 _atom_site_type_symbol
 _atom_site_label
 _atom_site_symmetry_multiplicity
 _atom_site_fract_x
 _atom_site_fract_y
 _atom_site_fract_z
 _atom_site_occupancy
  H+  H0  1  0.60491658  0.88146114  0.15484691  1
  H+  H1  1  0.62371910  0.35974115  0.16572200  1
  H+  H2  1  0.24187255  0.38195320  0.65128693  1
  H+  H3  1  0.71723968  0.85846313  0.66192047  1
  H+  H4  1  0.59223965  0.95865977  0.00613742  1
  H+  H5  1  0.60013471  0.96006015  0.49416296  1
  H+  H6  1  0.38438379  0.77123314  0.16944360  1
  H+  H7  1  0.77254974  0.66430681  0.70394768  1
  H+  H8  1  0.82198798  0.47200959  0.46987663  1
  H+  H9  1  0.84365171  0.59187109  0.48418248  1
  H+  H10  1  1.02430009  0.39594843  0.49195681  1
  H+  H11  1  0.34845841  0.96557486  0.00188835  1
  H+  H12  1  0.37871698  0.84248800  0.50348639  1
  H+  H13  1  0.21918838  0.49300447  0.13294113  1
  H+  H14  1  0.46773400  0.85141106  0.99191152  1
  H+  H15  1  0.68432316  0.07388886  0.85368992  1
  H+  H16  1  0.15517199  0.28153021  0.82349287  1
  H+  H17  1  0.71609948  0.20870026  0.60512634  1
  H+  H18  1  0.92090133  0.12321552  0.86351580  1
  H+  H19  1  0.22232210  0.12468079  0.51403122  1
  H+  H20  1  0.41347000  0.08527468  0.38522127  1
  H+  H21  1  0.56363222  0.20402926  0.02495788  1
  H+  H22  1  0.59958744  0.71457109  0.67712267  1
  H+  H23  1  -0.00033916  0.11662035  0.83594608  1
  H+  H24  1  0.76385955  0.39349368  0.15365042  1
  H+  H25  1  0.52486766  0.14182403  0.83109703  1
  H+  H26  1  0.36280329  0.63141799  0.16013207  1
  H+  H27  1  0.85029189  0.34161369  0.16932145  1
  H+  H28  1  0.51039635  0.87023595  0.49470602  1
  H+  H29  1  0.80734004  0.38980744  0.42872979  1
  H+  H30  1  0.26990758  0.89511727  0.32735758  1
  H+  H31  1  0.13090159  0.24159739  0.65840296  1
  H+  H32  1  0.02614032  0.14943733  0.33602795  1
  H+  H33  1  1.00277804  0.59917215  0.52327089  1
  H+  H34  1  0.70085287  0.86397949  0.31712677  1
  H+  H35  1  0.58501775  0.44085236  0.47610491  1
  H+  H36  1  0.75261950  0.62081062  0.33144258  1
  H+  H37  1  0.38909733  0.37152929  0.49937237  1
  H+  H38  1  0.13182207  0.60371138  0.32840172  1
  H+  H39  1  0.13854434  0.36982088  0.31982227  1
  H+  H40  1  0.37178033  0.23168892  0.81953164  1
  H+  H41  1  0.35448767  0.61201542  0.67721684  1
  H+  H42  1  0.62730935  0.51853695  0.17028284  1
  H+  H43  1  0.17538875  0.08517989  0.89220016  1
  H+  H44  1  0.13634021  0.52980950  0.83091293  1
  H+  H45  1  0.02210175  0.88297856  0.82581443  1
  H+  H46  1  0.12526202  0.89381194  0.17276521  1
  H+  H47  1  0.13664625  0.77160795  0.65761531  1
  H+  H48  1  0.59743078  0.09242703  1.00233223  1
  H+  H49  1  0.63287247  0.61369743  0.84091080  1
  H+  H50  1  0.40479815  0.32863516  0.22501202  1
  H+  H51  1  0.04648649  0.41094377  0.00298533  1
  H+  H52  1  0.59924374  0.86297412  0.67541994  1
  H+  H53  1  0.77784766  0.14061227  0.34099883  1
  H+  H54  1  0.88506874  0.29069052  0.65621562  1
  H+  H55  1  1.02769204  0.63734355  0.68069510  1
  H+  H56  1  0.60342076  0.71357875  0.83801813  1
  H+  H57  1  0.85789715  0.77105586  0.47569759  1
  H+  H58  1  0.88611060  0.03672651  0.50588909  1
  H+  H59  1  0.02602313  0.65040540  0.00647825  1
  H+  H60  1  0.11807847  0.22066863  0.01229492  1
  H+  H61  1  0.37090945  0.76419564  0.83751540  1
  H+  H62  1  0.37690192  0.12656610  0.34147147  1
  H+  H63  1  0.97673718  0.86340943  0.99262661  1
  H+  H64  1  0.91180816  0.56886985  0.26699588  1
  H+  H65  1  0.63291833  0.36327049  0.31962795  1
  H+  H66  1  0.61648016  0.48067711  1.00259337  1
  H+  H67  1  0.63356090  0.14754430  0.47995363  1
  H+  H68  1  0.36417179  0.22683015  -0.00075685  1
  H+  H69  1  0.16402429  0.58950958  0.89187326  1
  H+  H70  1  0.36035581  0.13630280  0.15420979  1
  H+  H71  1  0.64505465  0.36755976  0.83460004  1
  H+  H72  1  0.89216961  0.61387423  0.67026112  1
  H+  H73  1  0.63662742  0.61193237  0.68100037  1
  H+  H74  1  0.22061640  0.86275312  0.99027157  1
  H+  H75  1  0.52987211  0.39058406  0.82782124  1
  H+  H76  1  0.66076921  0.33649979  0.22447117  1
  H+  H77  1  0.99691323  0.60074865  0.34088277  1
  H+  H78  1  0.73153711  0.61769044  0.99202164  1
  H+  H79  1  0.48075955  0.61655371  0.84053676  1
  H+  H80  1  0.60540213  0.72201658  0.33777045  1
  H+  H81  1  0.98280238  0.87504801  0.66061848  1
  H+  H82  1  0.13733324  0.81675358  0.32465533  1
  H+  H83  1  0.12313618  0.91955447  0.33848837  1
  H+  H84  1  0.91843742  0.29799518  0.86544494  1
  H+  H85  1  0.03625888  0.92199405  0.34902017  1
  H+  H86  1  0.85581223  0.47622217  0.67672859  1
  H+  H87  1  0.97358260  0.12619344  0.65860996  1
  H+  H88  1  0.23527879  0.11184792  0.83267908  1
  H+  H89  1  0.50735311  0.59201019  0.52498472  1
  H+  H90  1  0.36154083  0.63617032  0.33572967  1
  H+  H91  1  0.94967719  0.38047161  0.93783025  1
  H+  H92  1  0.08268625  0.68719114  0.33317261  1
  H+  H93  1  0.14899354  0.23477304  0.17956242  1
  H+  H94  1  0.67667867  0.54017487  0.53321359  1
  H+  H95  1  0.60997491  0.63286914  0.15962724  1
  H+  H96  1  0.92055861  0.50606852  0.52910444  1
  H+  H97  1  0.47442850  0.11197243  0.17669465  1
  H+  H98  1  0.23798491  0.27713114  0.21166766  1
  H+  H99  1  0.36154353  0.72548576  0.33571736  1
  H+  H100  1  0.59656168  0.83135611  0.84610411  1
  H+  H101  1  0.86374914  0.73035333  0.00703208  1
  H+  H102  1  0.58203441  0.66721711  0.39929348  1
  H+  H103  1  0.43187779  0.49622691  0.52404014  1
  H+  H104  1  0.38743703  0.52363661  0.17107953  1
  H+  H105  1  0.36714381  0.38930794  0.15004588  1
  H+  H106  1  0.78360147  0.14625299  0.49117773  1
  H+  H107  1  0.22705491  0.61202196  0.66018113  1
  H+  H108  1  0.76586849  0.68922455  0.46993468  1
  H+  H109  1  0.87053096  0.70100420  0.17123520  1
  H+  H110  1  0.33447914  0.66171048  0.43247714  1
  H+  H111  1  0.38407853  0.86125897  0.16921813  1
  H+  H112  1  0.71987298  0.10902518  0.14792279  1
  H+  H113  1  0.89225557  0.04357626  0.31687424  1
  H+  H114  1  0.35183044  0.25252391  0.49808691  1
  H+  H115  1  0.27341429  0.13816751  0.99889522  1
  H+  H116  1  0.12272743  0.85829338  0.84316743  1
  H+  H117  1  0.26251240  0.38868179  0.49223428  1
  H+  H118  1  -0.02094014  0.36852906  0.32161202  1
  H+  H119  1  0.17084344  0.58518816  0.56595057  1
  H+  H120  1  0.38147738  0.27832711  0.32096172  1
  H+  H121  1  0.63288963  0.27478357  0.31479321  1
  H+  H122  1  0.59059693  0.54288661  0.54720622  1
  H+  H123  1  0.32387553  0.48467525  0.47414284  1
  H+  H124  1  0.13635215  0.62164805  0.98484943  1
  H+  H125  1  0.14782583  0.11485456  0.98911642  1
  H+  H126  1  0.88666778  0.12902161  0.65970931  1
  H+  H127  1  0.64276289  0.11286553  0.32861655  1
  H+  H128  1  0.27374010  0.63496488  0.15760407  1
  H+  H129  1  0.88103448  0.97604880  0.82501876  1
  H+  H130  1  0.33538344  0.42170846  1.05803312  1
  H+  H131  1  0.47928720  0.37430087  0.65560473  1
  H+  H132  1  0.42105307  0.33635287  0.89257255  1
  H+  H133  1  0.62854576  0.65172399  0.49222352  1
  H+  H134  1  0.63599492  0.76762968  0.99740714  1
  H+  H135  1  0.13208782  0.13998439  0.81704178  1
  H+  H136  1  0.11972642  0.47960936  0.33715886  1
  H+  H137  1  0.84409932  0.21309877  0.14143327  1
  H+  H138  1  0.62681554  0.60403532  0.32887657  1
  H+  H139  1  0.61797105  0.39329847  1.00219847  1
  H+  H140  1  0.89331068  0.62936402  -0.00813411  1
  H+  H141  1  0.88889533  0.60329461  0.17105480  1
  H+  H142  1  0.86006413  0.47527120  0.16029275  1
  H+  H143  1  0.83154617  0.88397058  0.33666566  1
  H+  H144  1  0.58320815  0.16712756  0.77092927  1
  H+  H145  1  0.52045115  0.13422953  0.67453434  1
  H+  H146  1  0.58038462  0.65763622  0.06532291  1
  H+  H147  1  0.14000265  0.01738687  0.51222149  1
  H+  H148  1  1.02484985  0.14647451  0.49261195  1
  H+  H149  1  0.85037444  0.71895044  0.29976008  1
  H+  H150  1  0.39315040  0.11893921  0.83750396  1
  H+  H151  1  0.09072350  0.15902246  0.61867518  1
  H+  H152  1  0.61449406  0.22519075  0.48980578  1
  H+  H153  1  0.22859891  0.61658919  0.32723235  1
  H+  H154  1  0.58102939  -0.04854681  0.82050488  1
  H+  H155  1  0.45120752  0.09352418  -0.00042804  1
  H+  H156  1  0.89534344  0.52908715  0.83818450  1
  H+  H157  1  0.37369080  0.26634573  0.16555703  1
  H+  H158  1  0.11371261  0.89519681  0.00616390  1
  H+  H159  1  0.90351944  0.82851911  0.28022376  1
  H+  H160  1  0.63086045  0.85383709  -0.00242083  1
  H+  H161  1  0.87605349  0.59232305  0.32526416  1
  H+  H162  1  0.27078941  0.38939575  0.33254646  1
  H+  H163  1  0.98728033  0.87874172  0.50942148  1
  H+  H164  1  0.40606998  0.09154985  0.49782396  1
  H+  H165  1  0.47445363  0.61150720  0.32676821  1
  H+  H166  1  0.08816127  0.91128156  0.73369226  1
  H+  H167  1  0.63940995  0.61348573  0.99151480  1
  H+  H168  1  0.14925197  0.05350009  0.32433984  1
  H+  H169  1  0.60740954  0.34165715  0.50035666  1
  H+  H170  1  0.74179595  0.12653191  0.99352190  1
  H+  H171  1  0.51490438  0.38113662  0.32949505  1
  H+  H172  1  0.21904693  0.08114380  0.15824301  1
  H+  H173  1  0.12453664  0.89623077  0.49601770  1
  H+  H174  1  0.62408984  0.51214120  0.32901269  1
  H+  H175  1  0.77487586  0.88119719  0.00483452  1
  H+  H176  1  0.86634186  0.37716599  0.65819727  1
  H+  H177  1  0.35052015  0.87722050  0.00250264  1
  H+  H178  1  0.81340965  0.57795864  0.51107492  1
  H+  H179  1  0.12071327  0.76119145  0.84351328  1
  H+  H180  1  0.26802961  0.63220551  0.82410912  1
  H+  H181  1  0.60840648  0.22136776  0.16280276  1
  H+  H182  1  0.85893386  0.13357337  0.13495187  1
  H+  H183  1  0.14726937  0.10584587  0.66724720  1
  H+  H184  1  0.61009894  0.85469466  0.32540713  1
  H+  H185  1  0.11702370  0.88269151  0.67211481  1
  H+  H186  1  0.28041647  0.38996828  0.14819361  1
  H+  H187  1  0.87602200  0.37161058  0.50222126  1
  H+  H188  1  0.28648020  0.39749095  0.81819684  1
  H+  H189  1  0.50868679  0.38273940  0.15416172  1
  H+  H190  1  0.12111825  0.35722998  -0.02282638  1
  H+  H191  1  0.77265098  0.62561156  0.15947511  1
  H+  H192  1  1.02345205  0.37244749  0.16698968  1
  H+  H193  1  0.11418010  0.23843003  0.34024981  1
  H+  H194  1  0.64276305  0.27671839  0.83784158  1
  H+  H195  1  0.87520772  0.15676125  0.49206294  1
  H+  H196  1  0.89904995  0.54388160  -0.00507657  1
  H+  H197  1  0.39149795  0.53000178  0.83762492  1
  H+  H198  1  0.38423402  0.36831837  0.31806383  1
  H+  H199  1  0.76985277  0.89151071  0.16047406  1
  H+  H200  1  0.79504128  0.41497006  0.00086654  1
  H+  H201  1  0.12387914  0.39582956  0.81463646  1
  H+  H202  1  0.14356644  0.02460304  0.98680443  1
  H+  H203  1  0.52351758  0.63193843  0.00438304  1
  H+  H204  1  0.89213846  0.85931734  0.83246602  1
  H+  H205  1  0.84676885  0.35556089  0.34780804  1
  H+  H206  1  1.01989874  0.11708810  0.15817401  1
  H+  H207  1  0.48030188  0.35822810  0.49255741  1
  H+  H208  1  0.34478229  0.16058632  0.49888970  1
  H+  H209  1  0.89041807  0.13042693  0.32178760  1
  H+  H210  1  0.49291155  0.86202622  0.82236083  1
  H+  H211  1  0.72667899  0.86891874  0.50749572  1
  H+  H212  1  0.60230048  0.22971889  0.67606535  1
  H+  H213  1  0.61720807  0.73340660  0.49489643  1
  H+  H214  1  0.88256262  1.02304914  0.16487139  1
  H+  H215  1  0.91892047  0.40436749  0.99881088  1
  H+  H216  1  0.36075602  0.97635217  0.33567786  1
  H+  H217  1  0.37803116  0.98340493  0.82376942  1
  H+  H218  1  0.36057819  0.87785388  0.66828969  1
  H+  H219  1  0.14537329  0.40146272  0.14912776  1
  H+  H220  1  0.78226126  0.38545944  0.82216261  1
  H+  H221  1  0.38314752  0.75517993  0.50372427  1
  H+  H222  1  0.41475085  0.08434211  0.89892290  1
  H+  H223  1  0.11448667  0.64419577  0.82772177  1
  H+  H224  1  0.39264418  0.11242907  0.65349064  1
  H+  H225  1  0.63605133  0.51891849  0.84056046  1
  H+  H226  1  0.85515206  0.18010989  0.93395565  1
  H+  H227  1  0.02122322  0.63963415  0.82903014  1
  H+  H228  1  0.36489646  0.96903499  0.66637811  1
  H+  H229  1  0.22644766  0.85922357  0.65551728  1
  H+  H230  1  0.51125517  0.88220678  0.33680987  1
  H+  H231  1  0.87456114  0.39034510  0.82142852  1
  H+  H232  1  0.88395356  0.73645694  0.79264000  1
  H+  H233  1  0.37051232  0.23341374  0.66315078  1
  H+  H234  1  0.14750724  0.53896553  -0.01792797  1
  H+  H235  1  0.13252716  0.36395312  0.50509798  1
  H+  H236  1  0.27784402  0.63061040  0.49250927  1
  H+  H237  1  0.12295914  0.54233808  0.17534468  1
  H+  H238  1  0.36032120  0.63547768  0.82696737  1
  H+  H239  1  0.63277129  0.86053604  0.50452257  1
  H+  H240  1  0.38438155  0.52736829  0.98654911  1
  H+  H241  1  0.36306666  -0.02918318  0.15860488  1
  H+  H242  1  0.71857615  0.02644602  0.54710103  1
  H+  H243  1  0.88270900  0.28567235  0.50375148  1
  H+  H244  1  0.41071196  0.81326111  0.59804102  1
  H+  H245  1  0.14429616  0.61490698  0.50509940  1
  H+  H246  1  0.13000883  0.67297950  0.16443301  1
  H+  H247  1  0.51594390  0.61969804  0.68532221  1
  H+  H248  1  0.71721510  0.36229366  0.65574846  1
  H+  H249  1  0.14142453  0.61903752  0.66158716  1
  H+  H250  1  0.60880814  0.38658432  0.67307583  1
  H+  H251  1  0.64572653  0.15196238  0.65328312  1
  H+  H252  1  0.52102034  0.63366684  0.15957571  1
  H+  H253  1  0.22523472  0.86038134  0.50144806  1
  H+  H254  1  0.67944258  0.29963796  0.98390029  1
  H+  H255  1  0.09052538  0.67553463  0.73667678  1
  H+  H256  1  0.56715533  0.89891733  0.06452234  1
  H+  H257  1  0.99255616  0.09444829  0.99976913  1
  H+  H258  1  0.00933832  0.37660343  0.13548133  1
  H+  H259  1  0.70423946  0.35623793  0.50204083  1
  H+  H260  1  0.61085805  0.09599136  0.83949464  1
  H+  H261  1  0.38106643  0.75295177  0.65822457  1
  H+  H262  1  0.11967136  0.39398593  0.66742325  1
  H+  H263  1  0.36800646  0.95764287  0.48596796  1
  H+  H264  1  0.47944127  0.36626559  -0.01258206  1
  H+  H265  1  0.27511444  0.38875088  0.99955475  1
  H+  H266  1  -0.00427067  0.38299912  0.83595437  1
  H+  H267  1  0.28573171  0.14055235  0.66742012  1
  H+  H268  1  0.11615005  0.48064527  0.49446784  1
  H+  H269  1  0.50099546  0.85627319  0.67029259  1
  H+  H270  1  0.62930873  0.76923651  0.16720366  1
  H+  H271  1  0.26895585  0.15347242  0.33691493  1
  H+  H272  1  0.39638792  0.36992708  0.83247732  1
  H+  H273  1  0.11465545  -0.02757598  0.82644843  1
  H+  H274  1  0.39058577  0.36613643  -0.01389468  1
  H+  H275  1  0.37002111  0.73253174  1.00413668  1
  H+  H276  1  0.37938854  0.85961061  0.83820429  1
  H+  H277  1  0.77941868  0.16802348  0.66883646  1
  H+  H278  1  0.14541234  0.13892143  0.32570267  1
  H+  H279  1  0.11431873  0.72653705  0.48916030  1
  H+  H280  1  0.92279138  0.59006100  0.89683959  1
  H+  H281  1  0.87285331  0.90397384  0.50339335  1
  H+  H282  1  0.32867865  0.41648331  0.39234117  1
  H+  H283  1  0.61692016  0.47921999  0.68175629  1
  H+  H284  1  0.85311948  -0.01857690  0.66846441  1
  H+  H285  1  0.14378051  0.01355125  0.66796296  1
  H+  H286  1  0.12981102  0.77550600  0.99414985  1
  H+  H287  1  0.36938861  0.10305837  0.99026941  1
  H+  H288  1  0.10329953  0.94316040  0.06378060  1
  H+  H289  1  0.57225697  0.41546725  0.09648878  1
  H+  H290  1  0.82852124  0.40913452  0.73256667  1
  H+  H291  1  0.11398645  0.47893570  0.66734055  1
  H+  H292  1  0.17108912  0.59034742  0.23588150  1
  H+  H293  1  0.88834045  0.79597519  0.66770243  1
  H+  H294  1  0.38037067  0.85937595  0.31945623  1
  H+  H295  1  0.09716843  0.15953318  0.07182276  1
  H+  H296  1  0.89357662  0.27760337  0.32251870  1
  H+  H297  1  0.08891558  0.42271773  0.75626658  1
  H+  H298  1  0.86913193  0.96571859  0.00630307  1
  H+  H299  1  0.84145540  0.91852981  0.76632468  1
  H+  H300  1  0.33098174  0.91023290  0.10051078  1
  H+  H301  1  0.68046508  0.59334145  0.62578291  1
  H+  H302  1  0.82885878  0.16606998  0.86454991  1
  H+  H303  1  0.65371104  0.32954081  0.59717456  1
  H+  H304  1  0.83253226  0.66690866  0.06584872  1
  H+  H305  1  0.63053376  0.02220828  0.15644122  1
  H+  H306  1  0.07724796  0.65705671  0.43426181  1
  H+  H307  1  0.68218780  0.08406365  0.57055419  1
  H+  H308  1  0.41295233  0.82911077  0.26181453  1
  H+  H309  1  0.84768185  0.92535530  0.44086218  1
  H+  H310  1  0.66846858  0.58213514  0.90413768  1
  H+  H311  1  0.64758595  0.82542379  0.22705715  1
  H+  H312  1  0.61599199  0.05933200  0.93931190  1
  H+  H313  1  0.17078470  0.07513086  0.58016232  1
  H+  H314  1  0.08812982  0.41944790  0.39626439  1
  H+  H315  1  0.41808435  0.59124148  0.92885351  1
  H+  H316  1  0.61235355  0.13091568  0.15992282  1
  H+  H317  1  0.56786812  0.90404841  0.39832424  1
  H+  H318  1  0.38472443  0.52330822  0.32449964  1
  H+  H319  1  0.55729053  0.14951792  0.08371012  1
  H+  H320  1  0.83156649  0.81908530  0.38503803  1
  H+  H321  1  0.91478450  0.09704499  0.56486939  1
  H+  H322  1  0.38799317  0.42041159  0.66237236  1
  H+  H323  1  0.12757405  0.43236139  0.04942998  1
  H+  H324  1  0.09898839  0.16618564  0.75769011  1
  H+  H325  1  0.34473172  0.92213822  0.76531585  1
  H+  H326  1  0.40530548  0.08122479  0.22985438  1
  H+  H327  1  0.34220197  0.66678160  0.06871402  1
  H+  H328  1  0.83028394  0.91451143  0.10299542  1
  H+  H329  1  0.35159960  0.43779625  0.76220427  1
  H+  H330  1  0.09881802  0.93712420  0.43885287  1
  H+  H331  1  0.42452016  0.53914529  0.61634064  1
  H+  H332  1  0.98222052  0.61430057  0.17372149  1
  H+  H333  1  0.37450813  0.63751679  1.00337654  1
  H+  H334  1  0.51590670  0.88188528  0.15679312  1
  H+  H335  1  0.92732435  0.57770932  0.61599428  1
  H+  H336  1  0.58974462  0.17325756  0.38835143  1
  H+  H337  1  0.33042957  0.16535386  0.09442284  1
  H+  H338  1  0.04335938  0.81532730  0.21025461  1
  H+  H339  1  0.68422748  0.35008496  0.92414154  1
  H+  H340  1  0.32788773  0.90240218  0.42552120  1
  H+  H341  1  0.06798852  0.26771368  0.94423150  1
  H+  H342  1  0.08476678  0.17577705  0.43448829  1
  H+  H343  1  0.08777391  0.68187877  0.06556150  1
  H+  H344  1  0.34654380  0.17269583  0.76026695  1
  H+  H345  1  0.84479188  0.17930246  0.39590846  1
  H+  H346  1  0.16648376  0.83271633  0.56196657  1
  H+  H347  1  0.82237649  0.16478093  0.03716283  1
  H+  H348  1  0.52491753  0.14276539  0.33342146  1
  H+  H349  1  0.63990605  0.02324848  0.33613857  1
  H+  H350  1  0.75598530  0.35426971  0.34347545  1
  H+  H351  1  0.90242572  0.34612323  0.59034432  1
  H+  H352  1  0.42545092  0.07668923  0.59850794  1
  H+  H353  1  0.09787199  0.09558369  0.15632104  1
  H+  H354  1  0.58852430  0.42052519  0.76836033  1
  H+  H355  1  0.14635708  0.86022823  0.25828806  1
  H+  H356  1  0.82297442  0.68293191  0.38187364  1
  H+  H357  1  0.91651954  0.82066248  0.88994011  1
  H+  H358  1  0.86186268  0.89799068  0.66585953  1
  H+  H359  1  0.88552757  0.85724322  0.99107450  1
  H+  H360  1  0.10398675  0.74668439  0.16525382  1
  H+  H361  1  0.33132398  0.65329786  0.73371717  1
  H+  H362  1  0.65765155  0.82701861  0.60299445  1
  H+  H363  1  0.58978007  0.66058786  0.77402680  1
  H+  H364  1  0.42086305  0.34763929  0.59448457  1
  H+  H365  1  0.40526169  0.81957360  0.93234071  1
  H+  H366  1  0.63274879  0.81048077  0.90817817  1
  H+  H367  1  0.65802004  0.57528167  0.23060816  1
  H+  H368  1  0.17736053  0.34400994  0.59435924  1
  H+  H369  1  0.55743763  0.88789649  0.73944049  1
  H+  H370  1  0.17237827  0.33537025  0.88384433  1
  H+  H371  1  0.91571008  0.09411411  0.21799009  1
  H+  H372  1  0.88460097  0.31325981  0.22634178  1
  H+  H373  1  0.41444906  0.58126168  0.23265187  1
  H+  H374  1  0.32506578  0.18640782  0.39913999  1
  H+  H375  1  0.94269267  0.06580022  0.93712310  1
  H+  H376  1  0.92473630  0.84470960  0.56777160  1
  H+  H377  1  0.83667773  0.18668519  0.72869958  1
  H+  H378  1  0.84020505  0.43543468  0.06616049  1
  H+  H379  1  0.16978362  0.32731609  0.26549653  1
  H+  H380  1  0.49589850  0.09898863  0.50211343  1
  H+  H381  1  0.56258002  0.39282074  0.39314718  1
  H+  H382  1  0.13271424  0.27343010  0.50370966  1
  H+  H383  1  0.15211112  0.82735470  0.90940438  1
  O2-  O384  1  0.08273541  0.14061280  0.14780254  1
  O2-  O385  1  0.08572992  0.17711140  0.47987824  1
  O2-  O386  1  0.10369801  0.17281926  0.80188900  1
  O2-  O387  1  0.18507096  0.43508926  0.11674646  1
  O2-  O388  1  0.08405192  0.42033499  0.47767053  1
  O2-  O389  1  0.09162074  0.42487919  0.80262909  1
  O2-  O390  1  0.09019589  0.69011946  0.14732340  1
  O2-  O391  1  0.08809492  0.66453540  0.47884095  1
  O2-  O392  1  0.08410089  0.67599443  0.81489077  1
  O2-  O393  1  0.14819547  0.96338041  0.13215383  1
  O2-  O394  1  0.09804617  0.93271763  0.48450867  1
  O2-  O395  1  0.08468551  0.91142842  0.81234742  1
  O2-  O396  1  0.32744818  0.16411209  0.13996167  1
  O2-  O397  1  0.31150867  0.18593054  0.48387061  1
  O2-  O398  1  0.34256003  0.17068522  0.80542434  1
  O2-  O399  1  0.34067453  0.42379752  0.13453095  1
  O2-  O400  1  0.32256662  0.42974201  0.47556647  1
  O2-  O401  1  0.34906926  0.43011630  0.80691378  1
  O2-  O402  1  0.33265557  0.65981254  0.14017325  1
  O2-  O403  1  0.33818121  0.66074691  0.47756693  1
  O2-  O404  1  0.32921987  0.66311196  0.80873614  1
  O2-  O405  1  0.33821185  0.91058974  0.14526197  1
  O2-  O406  1  0.32814999  0.89898266  0.47091503  1
  O2-  O407  1  0.35083772  0.92295266  0.81002248  1
  O2-  O408  1  0.57484130  0.15915490  0.15195834  1
  O2-  O409  1  0.59132181  0.16523747  0.47170590  1
  O2-  O410  1  0.58639490  0.16812250  0.81620007  1
  O2-  O411  1  0.57042177  0.41445503  0.14180490  1
  O2-  O412  1  0.55131071  0.37925450  0.46972666  1
  O2-  O413  1  0.59168571  0.42275205  0.81408997  1
  O2-  O414  1  0.58047856  0.66318584  0.14268801  1
  O2-  O415  1  0.59012863  0.67280235  0.47918278  1
  O2-  O416  1  0.58779100  0.65430431  0.81916328  1
  O2-  O417  1  0.57429930  0.91057996  0.13784310  1
  O2-  O418  1  0.57106440  0.90113996  0.47779517  1
  O2-  O419  1  0.55376582  0.89192669  0.80395817  1
  O2-  O420  1  0.82539268  0.15869462  0.11791966  1
  O2-  O421  1  0.84290422  0.18585748  0.47748394  1
  O2-  O422  1  0.87982849  0.19060096  0.89000939  1
  O2-  O423  1  0.82447374  0.41910425  0.13930852  1
  O2-  O424  1  0.81121694  0.41338846  0.47474485  1
  O2-  O425  1  0.84021555  0.41488813  0.80300097  1
  O2-  O426  1  0.83200724  0.65048535  0.14350216  1
  O2-  O427  1  0.81235773  0.73324575  0.44556267  1
  O2-  O428  1  0.86959306  0.69349241  0.75912863  1
  O2-  O429  1  0.83069502  0.92293279  0.14777514  1
  O2-  O430  1  0.83929586  0.92921944  0.48479028  1
  O2-  O431  1  0.84999329  0.91598624  0.81035441  1
  O2-  O432  1  0.15808187  0.03770776  0.16710672  1
  O2-  O433  1  0.16617115  0.07812640  0.53369054  1
  O2-  O434  1  0.17420819  0.08268418  0.84640990  1
  O2-  O435  1  0.19473731  0.29092432  0.19775533  1
  O2-  O436  1  0.16520114  0.33553894  0.51920361  1
  O2-  O437  1  0.18258541  0.34160451  0.83919731  1
  O2-  O438  1  0.17212869  0.59541788  0.18975954  1
  O2-  O439  1  0.17143432  0.58186051  0.52033029  1
  O2-  O440  1  0.16592403  0.59058597  0.84547022  1
  O2-  O441  1  0.10557919  0.83774119  0.20120555  1
  O2-  O442  1  0.16487833  0.83524433  0.51629467  1
  O2-  O443  1  0.14847863  0.82373848  0.86152345  1
  O2-  O444  1  0.41093716  0.08294119  0.18575898  1
  O2-  O445  1  0.43492103  0.06440540  0.51740798  1
  O2-  O446  1  0.42479418  0.09076392  0.85388913  1
  O2-  O447  1  0.40229225  0.32801341  0.17935589  1
  O2-  O448  1  0.41194769  0.33655634  0.51641849  1
  O2-  O449  1  0.42494473  0.33773179  0.84703044  1
  O2-  O450  1  0.41452659  0.58365653  0.18689814  1
  O2-  O451  1  0.47880031  0.53828093  0.54977922  1
  O2-  O452  1  0.41981001  0.59008425  0.85413443  1
  O2-  O453  1  0.41436932  0.83014597  0.18611824  1
  O2-  O454  1  0.41158184  0.81660646  0.52089909  1
  O2-  O455  1  0.40430673  0.82357648  0.85494596  1
  O2-  O456  1  0.66196519  0.08405987  0.16698566  1
  O2-  O457  1  0.68949328  0.05687800  0.53310147  1
  O2-  O458  1  0.62267485  0.05072733  0.85724836  1
  O2-  O459  1  0.65768209  0.33252615  0.17891974  1
  O2-  O460  1  0.64499611  0.31901079  0.51844895  1
  O2-  O461  1  0.67660660  0.33855726  0.84989678  1
  O2-  O462  1  0.66055215  0.57897218  0.18556891  1
  O2-  O463  1  0.65383606  0.57806847  0.54254227  1
  O2-  O464  1  0.66452383  0.58040441  0.85710095  1
  O2-  O465  1  0.65523077  0.82956143  0.18235533  1
  O2-  O466  1  0.66639603  0.83471720  0.52215203  1
  O2-  O467  1  0.60727816  0.78920514  0.86692381  1
  O2-  O468  1  0.91865530  0.08726122  0.17365142  1
  O2-  O469  1  0.91531745  0.09789850  0.51945452  1
  O2-  O470  1  0.94286608  0.08323873  0.85599675  1
  O2-  O471  1  0.85910997  0.29533292  0.18557061  1
  O2-  O472  1  0.90844702  0.34570701  0.52066991  1
  O2-  O473  1  0.93831327  0.35932215  0.85667899  1
  O2-  O474  1  0.92240377  0.57767671  0.18869046  1
  O2-  O475  1  0.95678122  0.55870572  0.55149471  1
  O2-  O476  1  0.92661140  0.58932315  0.85166212  1
  O2-  O477  1  0.93552987  0.76456889  0.22219499  1
  O2-  O478  1  0.92613740  0.85085210  0.52211697  1
  O2-  O479  1  0.92142016  0.82568987  0.84491322  1
  O2-  O480  1  0.18053818  0.11371298  0.31048828  1
  O2-  O481  1  0.17573199  0.07512248  0.65108661  1
  O2-  O482  1  0.17611970  0.08492003  0.96971665  1
  O2-  O483  1  0.17043818  0.33864897  0.30988213  1
  O2-  O484  1  0.18112547  0.34385188  0.64016969  1
  O2-  O485  1  0.12607383  0.30729400  0.95862156  1
  O2-  O486  1  0.16869134  0.58279202  0.30984020  1
  O2-  O487  1  0.16814392  0.58725271  0.64304017  1
  O2-  O488  1  0.16762069  0.59652410  0.96426957  1
  O2-  O489  1  0.16995314  0.87238717  0.30500645  1
  O2-  O490  1  0.16585668  0.83126254  0.64025097  1
  O2-  O491  1  0.15923615  0.83546819  0.97572514  1
  O2-  O492  1  0.40883242  0.09263961  0.34170727  1
  O2-  O493  1  0.42189347  0.07898611  0.64338782  1
  O2-  O494  1  0.39654763  0.06876452  0.97616396  1
  O2-  O495  1  0.41262593  0.33676442  0.30169210  1
  O2-  O496  1  0.41930161  0.34995459  0.64015418  1
  O2-  O497  1  0.41957535  0.33505261  0.97094609  1
  O2-  O498  1  0.41509999  0.58415516  0.30963493  1
  O2-  O499  1  0.40708374  0.54190839  0.65944082  1
  O2-  O500  1  0.41609906  0.58940692  0.97500842  1
  O2-  O501  1  0.41193515  0.82921564  0.30775922  1
  O2-  O502  1  0.41236108  0.81422621  0.64393384  1
  O2-  O503  1  0.40547261  0.81912847  0.97818257  1
  O2-  O504  1  0.67821745  0.08518372  0.32897185  1
  O2-  O505  1  0.69512650  0.15508185  0.62770829  1
  O2-  O506  1  0.62532274  0.06208535  0.98377945  1
  O2-  O507  1  0.66506282  0.33630350  0.30206253  1
  O2-  O508  1  0.65600314  0.33042945  0.64282536  1
  O2-  O509  1  0.68694819  0.35441957  0.97017396  1
  O2-  O510  1  0.65664246  0.57320642  0.31379423  1
  O2-  O511  1  0.67484292  0.58787486  0.67042479  1
  O2-  O512  1  0.67112590  0.58501413  0.97475972  1
  O2-  O513  1  0.64078254  0.82386987  0.30838951  1
  O2-  O514  1  0.65547065  0.82476247  0.64840859  1
  O2-  O515  1  0.66388850  0.82729365  0.98109730  1
  O2-  O516  1  0.92339287  0.10307411  0.30354644  1
  O2-  O517  1  0.91360568  0.09633345  0.64390358  1
  O2-  O518  1  0.93449854  0.06331199  0.98168111  1
  O2-  O519  1  0.91818558  0.33817116  0.30827622  1
  O2-  O520  1  0.90077280  0.34754430  0.63738357  1
  O2-  O521  1  0.95363349  0.37977166  0.98271107  1
  O2-  O522  1  0.90717691  0.56310675  0.31231644  1
  O2-  O523  1  0.91660056  0.57734222  0.66126332  1
  O2-  O524  1  0.92773923  0.60318307  0.97689637  1
  O2-  O525  1  0.87270629  0.77029431  0.26297910  1
  O2-  O526  1  0.92364352  0.85005789  0.64376627  1
  O2-  O527  1  0.91776719  0.82839355  0.97580903  1
  O2-  O528  1  0.10036986  0.16211835  0.02625749  1
  O2-  O529  1  0.08441492  0.17760475  0.35482217  1
  O2-  O530  1  0.09566959  0.17635046  0.66128344  1
  O2-  O531  1  0.11086656  0.43087386  0.00646002  1
  O2-  O532  1  0.08829331  0.41841193  0.35088739  1
  O2-  O533  1  0.08581821  0.41921644  0.68332902  1
  O2-  O534  1  0.08770790  0.67979172  0.02037125  1
  O2-  O535  1  0.06020833  0.63379666  0.35579182  1
  O2-  O536  1  0.08961496  0.67188410  0.69110654  1
  O2-  O537  1  0.08671292  0.92914670  0.01932950  1
  O2-  O538  1  0.09572250  0.94796716  0.36249126  1
  O2-  O539  1  0.09011735  0.91621717  0.68817551  1
  O2-  O540  1  0.33367537  0.16745037  0.01596276  1
  O2-  O541  1  0.33096942  0.18129733  0.35478085  1
  O2-  O542  1  0.34785164  0.17357334  0.67787139  1
  O2-  O543  1  0.33513923  0.42151058  0.01209340  1
  O2-  O544  1  0.33218122  0.41868881  0.34740216  1
  O2-  O545  1  0.35642167  0.45062437  0.67829062  1
  O2-  O546  1  0.34650260  0.67037778  0.02225723  1
  O2-  O547  1  0.33006387  0.66504254  0.35126966  1
  O2-  O548  1  0.33284384  0.65108177  0.68776321  1
  O2-  O549  1  0.31896842  0.90541108  0.01807808  1
  O2-  O550  1  0.32807170  0.91426359  0.34511033  1
  O2-  O551  1  0.33116273  0.90912839  0.68178384  1
  O2-  O552  1  0.54863310  0.14610473  0.03687915  1
  O2-  O553  1  0.58681421  0.17193426  0.34332276  1
  O2-  O554  1  0.58084007  0.16952442  0.69051826  1
  O2-  O555  1  0.58381431  0.41937033  0.01634871  1
  O2-  O556  1  0.57332417  0.40754773  0.34852688  1
  O2-  O557  1  0.58000259  0.41661046  0.69108894  1
  O2-  O558  1  0.58340096  0.65831929  0.01966858  1
  O2-  O559  1  0.57988735  0.66241777  0.35404839  1
  O2-  O560  1  0.57716102  0.65712399  0.69631074  1
  O2-  O561  1  0.56620407  0.89712027  0.01838220  1
  O2-  O562  1  0.57150940  0.90836744  0.35307775  1
  O2-  O563  1  0.56161065  0.88715073  0.69077336  1
  O2-  O564  1  0.80487456  0.16374519  -0.00587876  1
  O2-  O565  1  0.84175786  0.17465220  0.35094394  1
  O2-  O566  1  0.83956517  0.18973029  0.68436188  1
  O2-  O567  1  0.85174772  0.44427327  0.02095854  1
  O2-  O568  1  0.79740034  0.35107278  0.37193390  1
  O2-  O569  1  0.82375803  0.41226413  0.68590806  1
  O2-  O570  1  0.83033148  0.66842934  0.02036007  1
  O2-  O571  1  0.81769115  0.65795692  0.34034847  1
  O2-  O572  1  0.82301363  0.71962581  0.71723959  1
  O2-  O573  1  0.83370478  0.90470540  0.02154681  1
  O2-  O574  1  0.86783882  0.87536347  0.36540766  1
  O2-  O575  1  0.82413683  0.92025713  0.68047395  1
