# generated using pymatgen
data_H2O
_symmetry_space_group_name_H-M   'P 1'
_cell_length_a   17.99722850
_cell_length_b   17.98264140
_cell_length_c   22.00335867
_cell_angle_alpha   90.05026739
_cell_angle_beta   89.97942162
_cell_angle_gamma   119.99343614
_symmetry_Int_Tables_number   1
_chemical_formula_structural   H2O
_chemical_formula_sum   'H384 O192'
_cell_volume   6167.47327969
_cell_formula_units_Z   192
loop_
 _symmetry_equiv_pos_site_id
 _symmetry_equiv_pos_as_xyz
  1  'x, y, z'
loop_
 _atom_type_symbol
 _atom_type_oxidation_number
  H+  1.0
  O2-  -2.0
loop_
 _atom_site_type_symbol
 _atom_site_label
 _atom_site_symmetry_multiplicity
 _atom_site_fract_x
 _atom_site_fract_y
 _atom_site_fract_z
 _atom_site_occupancy
  H+  H0  1  0.99026239  0.87960872  0.15948385  1
  H+  H1  1  0.60985542  0.46183976  0.48770096  1
  H+  H2  1  0.88527766  0.36272219  0.33206236  1
  H+  H3  1  0.74282857  0.34102305  0.48529818  1
  H+  H4  1  0.62812788  -0.00559812  1.01137876  1
  H+  H5  1  0.12159327  0.15575759  0.49312844  1
  H+  H6  1  0.39064928  0.03421259  0.66404048  1
  H+  H7  1  0.12460149  0.90331500  0.66133245  1
  H+  H8  1  0.64448211  0.11785019  0.32356033  1
  H+  H9  1  0.36936961  0.48242044  1.00578834  1
  H+  H10  1  0.83316991  0.41636275  0.06957827  1
  H+  H11  1  0.63216096  0.78329130  0.83104897  1
  H+  H12  1  0.84075718  0.91237548  0.06393380  1
  H+  H13  1  0.88768159  0.11418671  0.50161279  1
  H+  H14  1  0.52934329  0.39139977  0.99289096  1
  H+  H15  1  0.61906639  0.64656360  0.66979615  1
  H+  H16  1  0.63647546  0.35941290  0.49831512  1
  H+  H17  1  0.01756073  0.37974851  0.49116937  1
  H+  H18  1  0.72741582  0.61463625  0.64993947  1
  H+  H19  1  0.59697884  0.90884615  0.69266936  1
  H+  H20  1  0.31899920  0.15404943  0.00208348  1
  H+  H21  1  1.03457634  0.62804648  0.67180053  1
  H+  H22  1  0.90633936  0.33339838  0.56221400  1
  H+  H23  1  0.09995235  0.48551888  0.34513646  1
  H+  H24  1  0.63443416  0.12692452  0.16914074  1
  H+  H25  1  0.37657071  0.47029708  0.19288981  1
  H+  H26  1  0.42094578  0.66095510  0.18550115  1
  H+  H27  1  0.14263658  0.36376155  0.63781207  1
  H+  H28  1  0.12575292  0.25466074  0.33044467  1
  H+  H29  1  0.65934855  0.57544831  0.55683212  1
  H+  H30  1  0.85361388  0.87401975  0.33855240  1
  H+  H31  1  0.88494435  0.01941486  0.32633056  1
  H+  H32  1  -0.01919786  0.12213041  0.50423918  1
  H+  H33  1  0.58432062  0.66985921  0.14887121  1
  H+  H34  1  0.17323826  0.58687980  0.60775481  1
  H+  H35  1  0.32096505  0.67873633  -0.00765034  1
  H+  H36  1  0.11339671  0.97678722  0.91359389  1
  H+  H37  1  0.29143107  0.23789174  -0.01951228  1
  H+  H38  1  0.39925928  0.16992577  0.84950477  1
  H+  H39  1  0.72454692  0.35871089  0.84129899  1
  H+  H40  1  0.83534130  0.70726966  0.44940799  1
  H+  H41  1  0.38339903  0.15898127  0.67559106  1
  H+  H42  1  0.88003837  -0.01034822  0.48823648  1
  H+  H43  1  0.15777690  0.86136816  0.32776835  1
  H+  H44  1  0.39615120  0.73739020  0.81678715  1
  H+  H45  1  0.74689168  0.39588426  0.67904750  1
  H+  H46  1  0.51536950  0.93408057  0.19129565  1
  H+  H47  1  0.08072101  0.96585640  0.14907646  1
  H+  H48  1  0.90858092  0.53194595  0.46988021  1
  H+  H49  1  -0.03399306  0.34433787  0.84467924  1
  H+  H50  1  0.55306619  0.38038406  0.32303731  1
  H+  H51  1  0.66321246  0.09378820  0.60591832  1
  H+  H52  1  0.61195681  0.73158016  0.68436737  1
  H+  H53  1  0.21289538  0.64270432  0.18627147  1
  H+  H54  1  0.23169285  0.62988364  0.51458581  1
  H+  H55  1  0.22653013  0.10954690  0.32585379  1
  H+  H56  1  0.14262398  1.00913864  0.84717334  1
  H+  H57  1  0.35167929  0.55114806  0.48975614  1
  H+  H58  1  0.77083676  0.13433506  0.49582538  1
  H+  H59  1  0.13320124  0.28107179  0.49199192  1
  H+  H60  1  0.37996739  0.61859764  0.18348224  1
  H+  H61  1  0.63778505  0.52688635  0.65350302  1
  H+  H62  1  0.13108563  0.71188408  0.67140342  1
  H+  H63  1  0.85995695  0.21180792  0.00696757  1
  H+  H64  1  0.92527408  0.78201271  0.52874433  1
  H+  H65  1  0.21930493  0.35595387  0.33845238  1
  H+  H66  1  0.29088277  0.89316481  0.67757607  1
  H+  H67  1  0.65715674  0.57262323  0.89725602  1
  H+  H68  1  0.19136976  0.58360528  1.02316265  1
  H+  H69  1  0.63883367  0.92809119  0.16489656  1
  H+  H70  1  0.40243549  0.61794062  0.97331591  1
  H+  H71  1  0.86259849  0.51585936  0.47830860  1
  H+  H72  1  0.76873087  0.15430678  0.67206780  1
  H+  H73  1  0.35412382  0.74929435  0.15967766  1
  H+  H74  1  0.64805026  0.26542657  0.32142460  1
  H+  H75  1  0.84708623  0.20151801  0.82752512  1
  H+  H76  1  0.24088228  0.87396680  0.17060317  1
  H+  H77  1  0.58795016  0.95576667  0.74916839  1
  H+  H78  1  0.36608275  0.22974909  0.34090048  1
  H+  H79  1  0.32491257  0.95982751  0.02624571  1
  H+  H80  1  0.54000879  0.60863871  0.18360330  1
  H+  H81  1  0.14168525  0.59900826  0.67282160  1
  H+  H82  1  0.50479006  0.15654568  0.82118542  1
  H+  H83  1  0.10099260  0.89645203  0.26247215  1
  H+  H84  1  0.88110718  0.26262866  0.50663850  1
  H+  H85  1  0.08635396  -0.02576060  1.00128013  1
  H+  H86  1  0.60836761  0.24054458  0.82334532  1
  H+  H87  1  0.82966794  0.62557729  0.41688345  1
  H+  H88  1  -0.01405011  0.92707149  0.65248057  1
  H+  H89  1  0.77358021  0.63606592  0.00290467  1
  H+  H90  1  0.84404296  0.34188111  0.48571671  1
  H+  H91  1  0.14248588  0.76775333  0.33930905  1
  H+  H92  1  0.18644133  0.04353275  0.00191844  1
  H+  H93  1  0.30840286  0.80320103  0.17255511  1
  H+  H94  1  0.38279078  0.96004874  0.33474793  1
  H+  H95  1  0.66506746  0.77440898  -0.02705705  1
  H+  H96  1  0.75045649  0.97533173  0.22181039  1
  H+  H97  1  0.88641726  1.01479019  0.83367239  1
  H+  H98  1  0.78752101  0.57142772  0.32926547  1
  H+  H99  1  0.16681210  0.99769327  0.63325638  1
  H+  H100  1  0.63180843  0.02415247  0.31742994  1
  H+  H101  1  0.37107366  0.14434116  0.34014840  1
  H+  H102  1  0.36104254  1.01407092  0.82772930  1
  H+  H103  1  0.89384545  0.01903406  0.98796954  1
  H+  H104  1  0.32462982  0.64045256  0.82370604  1
  H+  H105  1  0.53701489  0.12433182  0.33089540  1
  H+  H106  1  0.97156155  0.36365832  0.18102216  1
  H+  H107  1  0.28808031  0.84041215  0.47901941  1
  H+  H108  1  0.44710495  0.87855298  0.34606126  1
  H+  H109  1  0.25257891  0.14369846  0.83704652  1
  H+  H110  1  0.40754665  0.86317173  0.49324126  1
  H+  H111  1  0.26508116  0.79015929  0.62878741  1
  H+  H112  1  0.86155638  0.12474346  0.99796112  1
  H+  H113  1  0.25029312  0.62822873  0.34122925  1
  H+  H114  1  0.10624284  0.22153398  0.18190138  1
  H+  H115  1  0.87249308  0.12128040  0.65391512  1
  H+  H116  1  0.09330531  0.62891184  0.01135362  1
  H+  H117  1  0.77378092  0.38539744  0.33496985  1
  H+  H118  1  0.22822214  0.34783069  0.83255520  1
  H+  H119  1  0.10850805  0.74797351  0.50194785  1
  H+  H120  1  0.87308734  0.60217638  0.84205247  1
  H+  H121  1  0.84818827  0.99080033  0.66666164  1
  H+  H122  1  0.09479838  0.45274954  0.01223473  1
  H+  H123  1  0.23179412  0.36361534  0.99396825  1
  H+  H124  1  0.39970530  0.29096413  0.64639125  1
  H+  H125  1  0.42383230  0.02928642  0.96387935  1
  H+  H126  1  0.15768293  0.12296494  0.82049675  1
  H+  H127  1  0.98035529  0.10891200  0.98330178  1
  H+  H128  1  0.35951204  0.23466565  0.49293680  1
  H+  H129  1  0.61279538  0.14326581  0.67571055  1
  H+  H130  1  0.17574468  0.35032233  0.55076454  1
  H+  H131  1  0.54259828  0.89789752  0.49926393  1
  H+  H132  1  0.45693473  0.41634479  0.91237058  1
  H+  H133  1  0.68102884  0.74255661  0.13110826  1
  H+  H134  1  0.01920785  0.66573173  0.50686724  1
  H+  H135  1  0.11674427  0.75129340  0.99016415  1
  H+  H136  1  0.62625591  0.35955806  0.65029164  1
  H+  H137  1  0.74989345  0.90375281  0.18239020  1
  H+  H138  1  0.00190878  0.63611335  0.16908124  1
  H+  H139  1  0.00583686  0.63180234  0.00441963  1
  H+  H140  1  0.85984794  0.46535941  0.83257923  1
  H+  H141  1  0.86223124  0.47262955  0.00892456  1
  H+  H142  1  0.36197039  0.21444971  0.15752475  1
  H+  H143  1  0.10362338  0.67242573  0.83002419  1
  H+  H144  1  0.74521885  0.87564393  0.49953293  1
  H+  H145  1  0.41440141  0.82541021  0.55546930  1
  H+  H146  1  0.76059090  0.62260497  0.15977717  1
  H+  H147  1  0.42699399  0.87491403  0.22343244  1
  H+  H148  1  0.12323738  0.37203951  0.49122086  1
  H+  H149  1  0.13688294  0.35090428  0.99529536  1
  H+  H150  1  0.00640190  0.66025444  0.34696033  1
  H+  H151  1  0.21193389  0.84446843  0.99340547  1
  H+  H152  1  0.71227379  0.87750448  0.68783774  1
  H+  H153  1  0.87400538  0.61293985  0.18019354  1
  H+  H154  1  0.87829942  0.29530767  0.65442055  1
  H+  H155  1  0.17100835  0.51376200  0.86667405  1
  H+  H156  1  0.90992749  0.74423246  0.31732517  1
  H+  H157  1  0.37689602  0.48486669  0.83403013  1
  H+  H158  1  0.64075478  0.52336290  -0.00820017  1
  H+  H159  1  0.98566371  0.87242535  0.85867570  1
  H+  H160  1  0.53530402  0.64129074  -0.00779027  1
  H+  H161  1  0.87273084  0.67514330  0.62016757  1
  H+  H162  1  0.27428302  0.31054767  0.13292364  1
  H+  H163  1  0.21764579  0.09802132  0.17180484  1
  H+  H164  1  0.58588527  0.62035611  0.49962446  1
  H+  H165  1  0.44995830  0.38387703  0.33799895  1
  H+  H166  1  0.70128200  0.84307553  0.91924300  1
  H+  H167  1  0.18993968  0.60718269  0.84910210  1
  H+  H168  1  0.11402425  0.46792896  0.66703539  1
  H+  H169  1  0.13813981  0.89591971  0.86621090  1
  H+  H170  1  0.39881787  0.36377617  0.18120152  1
  H+  H171  1  0.01851339  0.39128088  0.34406331  1
  H+  H172  1  0.90848292  0.60501056  0.24520140  1
  H+  H173  1  0.65038475  0.35565543  0.32120725  1
  H+  H174  1  0.59854060  0.46578525  0.82097889  1
  H+  H175  1  0.81188012  0.38078074  0.42163537  1
  H+  H176  1  -0.03564366  0.61168218  0.83830573  1
  H+  H177  1  0.16955506  0.08167244  0.26437891  1
  H+  H178  1  0.88257420  0.35537264  0.99899726  1
  H+  H179  1  0.86609516  0.72818769  0.83558295  1
  H+  H180  1  0.30854074  0.65390651  -0.07649877  1
  H+  H181  1  0.36689444  0.21222705  0.72829872  1
  H+  H182  1  0.84333412  0.48115469  0.35575402  1
  H+  H183  1  0.15551950  0.88620534  0.56328449  1
  H+  H184  1  0.64474618  0.27572160  0.99183615  1
  H+  H185  1  0.36610313  0.76077738  0.64926681  1
  H+  H186  1  0.13732269  0.15474662  0.67978571  1
  H+  H187  1  0.63246679  0.35223384  0.16839235  1
  H+  H188  1  0.12092632  0.36542478  0.18565259  1
  H+  H189  1  1.02069163  0.12399149  0.83171126  1
  H+  H190  1  0.79289713  0.88019998  -0.00247311  1
  H+  H191  1  0.59391836  0.65772503  0.36151312  1
  H+  H192  1  0.86934193  0.97400692  0.15568683  1
  H+  H193  1  0.79774141  0.75948990  0.63367119  1
  H+  H194  1  0.01833465  0.91020068  0.50335449  1
  H+  H195  1  0.33401787  0.46084331  0.35389823  1
  H+  H196  1  0.23660166  0.37365542  0.63897609  1
  H+  H197  1  0.59164447  0.74246897  0.35144746  1
  H+  H198  1  0.55744503  0.67266906  0.45817087  1
  H+  H199  1  0.54337073  0.14313272  0.99966697  1
  H+  H200  1  0.38556138  0.11585659  0.50691330  1
  H+  H201  1  0.63139804  0.14185296  -0.00093676  1
  H+  H202  1  0.90246366  0.12008763  0.17003931  1
  H+  H203  1  0.60382607  0.89629254  0.34900428  1
  H+  H204  1  0.01033388  0.36189934  0.01163277  1
  H+  H205  1  0.11051095  0.48255966  0.16137820  1
  H+  H206  1  0.63133403  1.03883914  0.66935420  1
  H+  H207  1  0.36486013  0.70683513  0.48770907  1
  H+  H208  1  0.10879836  0.21495367  0.83441381  1
  H+  H209  1  0.81230437  0.85439962  0.63620242  1
  H+  H210  1  0.87946253  0.34747736  0.84028466  1
  H+  H211  1  0.97223475  0.37222065  0.64807759  1
  H+  H212  1  0.86276552  0.22433983  0.34008583  1
  H+  H213  1  0.87843728  0.60790209  0.99446574  1
  H+  H214  1  0.64563508  0.47297550  0.32861204  1
  H+  H215  1  0.11316012  0.61718468  0.33041179  1
  H+  H216  1  0.70788733  0.59876272  0.49286795  1
  H+  H217  1  0.33239548  0.61687805  0.34014487  1
  H+  H218  1  0.21874387  0.88755371  0.51160163  1
  H+  H219  1  0.47777366  0.60700067  0.66629534  1
  H+  H220  1  0.66320354  0.33173084  0.89954575  1
  H+  H221  1  0.39312234  0.86084477  0.65481522  1
  H+  H222  1  0.39245991  0.09286399  0.99144009  1
  H+  H223  1  0.27800118  0.62944934  0.67220946  1
  H+  H224  1  0.87987225  0.89958409  0.48606131  1
  H+  H225  1  0.96810365  0.88010132  0.65899939  1
  H+  H226  1  0.11321375  0.77301227  0.18513992  1
  H+  H227  1  0.85568962  0.87866271  0.16232436  1
  H+  H228  1  0.88648222  0.11004089  0.32838767  1
  H+  H229  1  0.73708427  0.11186058  0.98577881  1
  H+  H230  1  0.12737687  0.80274487  0.83998829  1
  H+  H231  1  0.64381037  0.02897915  0.51481334  1
  H+  H232  1  0.38010221  1.02424753  0.50816532  1
  H+  H233  1  0.25081392  0.13472819  0.65682139  1
  H+  H234  1  0.33143407  0.37092079  0.34844135  1
  H+  H235  1  0.53507836  0.91586921  0.01588629  1
  H+  H236  1  0.71980709  0.86864825  0.34027206  1
  H+  H237  1  0.52101572  0.14165457  0.67337941  1
  H+  H238  1  0.14049604  1.04987006  0.50826821  1
  H+  H239  1  0.27329824  0.92304920  0.83331251  1
  H+  H240  1  0.65178052  0.84178875  0.74365168  1
  H+  H241  1  0.07887445  0.39942595  0.90487024  1
  H+  H242  1  0.11689918  0.61714531  0.17472102  1
  H+  H243  1  0.52568171  0.39681338  0.65804590  1
  H+  H244  1  0.20590448  0.35929180  0.18158025  1
  H+  H245  1  0.88435375  0.36521708  0.17899412  1
  H+  H246  1  0.37538302  0.88622756  0.83788840  1
  H+  H247  1  0.11739612  0.21227856  -0.00616089  1
  H+  H248  1  0.36229489  0.38886464  0.66402783  1
  H+  H249  1  0.34594474  0.34758203  0.80208658  1
  H+  H250  1  0.62594757  0.58292986  0.19462466  1
  H+  H251  1  0.77613992  0.13396128  0.33583034  1
  H+  H252  1  0.07883002  0.41197814  0.10748940  1
  H+  H253  1  0.64845586  0.88419286  0.83637999  1
  H+  H254  1  0.47089159  0.00613237  0.26772604  1
  H+  H255  1  0.51838103  0.13041743  0.48969646  1
  H+  H256  1  0.64398411  1.03736078  0.16734019  1
  H+  H257  1  0.61426744  0.38514383  0.00132052  1
  H+  H258  1  0.36328485  0.47738431  0.67200619  1
  H+  H259  1  0.86548977  0.75889043  0.17551955  1
  H+  H260  1  0.92078118  0.83042513  0.91167505  1
  H+  H261  1  0.35363610  0.89048990  0.00797297  1
  H+  H262  1  0.69289099  0.59558321  0.32601464  1
  H+  H263  1  0.85668439  0.47746172  0.16862137  1
  H+  H264  1  0.83627754  0.92727863  0.72403279  1
  H+  H265  1  0.63953674  0.11593685  0.50877101  1
  H+  H266  1  0.31455735  0.25637595  1.01014865  1
  H+  H267  1  0.47670800  0.54651599  0.20234529  1
  H+  H268  1  0.23445734  0.13278906  0.50279648  1
  H+  H269  1  0.29258093  0.87265826  0.34060878  1
  H+  H270  1  0.88090817  0.51651229  0.66252236  1
  H+  H271  1  0.73039460  0.36643714  0.99322747  1
  H+  H272  1  0.85907715  0.12028378  0.81979471  1
  H+  H273  1  0.87671936  0.63944718  0.51973593  1
  H+  H274  1  0.60580113  0.21982218  0.48924998  1
  H+  H275  1  0.77807383  0.88414282  0.81812636  1
  H+  H276  1  0.11048445  0.12774591  0.33642126  1
  H+  H277  1  0.45019252  0.60184451  0.34331559  1
  H+  H278  1  0.71250135  0.60401064  0.83779479  1
  H+  H279  1  0.86530320  0.88104787  0.82527137  1
  H+  H280  1  1.01978002  0.12712780  0.33666581  1
  H+  H281  1  0.61181566  0.46322523  0.15954782  1
  H+  H282  1  0.38451619  0.43527521  0.48636094  1
  H+  H283  1  0.41274124  0.81257818  0.98025456  1
  H+  H284  1  0.14556695  0.63694635  0.51919393  1
  H+  H285  1  0.37382125  0.00521401  0.16738014  1
  H+  H286  1  0.60469627  0.64283513  0.83102879  1
  H+  H287  1  0.97794987  0.84311188  0.31579931  1
  H+  H288  1  0.86576958  0.72323168  0.01145490  1
  H+  H289  1  0.57880694  0.41678880  0.72083334  1
  H+  H290  1  0.46046586  0.32175121  0.80592509  1
  H+  H291  1  0.40561953  0.54187033  0.28601633  1
  H+  H292  1  0.29415473  0.88739427  0.10855665  1
  H+  H293  1  0.60813788  0.38266780  0.82064225  1
  H+  H294  1  0.42234293  0.87353391  0.92906547  1
  H+  H295  1  0.18045675  0.32519121  0.89871831  1
  H+  H296  1  0.04419649  0.93776918  0.75932233  1
  H+  H297  1  0.41148570  0.31610016  0.91354849  1
  H+  H298  1  0.32332059  0.79440389  0.86333657  1
  H+  H299  1  0.62989979  0.27203122  0.65709324  1
  H+  H300  1  0.06492010  0.67393529  0.40719753  1
  H+  H301  1  0.91327529  0.07843966  0.23266006  1
  H+  H302  1  0.58883163  0.16271641  0.09400006  1
  H+  H303  1  0.90753966  0.57661879  0.93457886  1
  H+  H304  1  0.58173645  0.66937508  0.76880860  1
  H+  H305  1  0.10122741  0.17223554  0.73866717  1
  H+  H306  1  0.66514687  0.32833140  0.56049837  1
  H+  H307  1  0.35936052  0.12405788  0.15937626  1
  H+  H308  1  0.66590511  0.32198822  0.22662547  1
  H+  H309  1  0.35107678  0.67206922  0.72408165  1
  H+  H310  1  0.93854808  0.49771697  0.62118482  1
  H+  H311  1  0.48165514  0.35565883  0.17563301  1
  H+  H312  1  0.83278822  0.67359507  0.77496598  1
  H+  H313  1  0.12682006  0.37935033  0.85324641  1
  H+  H314  1  0.89262891  0.73287539  0.67797589  1
  H+  H315  1  0.43485677  0.58728837  0.83002583  1
  H+  H316  1  0.58415849  0.16107728  0.39603639  1
  H+  H317  1  0.76144897  0.47098196  0.72224952  1
  H+  H318  1  0.82151029  0.40997463  0.77346241  1
  H+  H319  1  0.64166179  0.61387659  -0.01280791  1
  H+  H320  1  0.77128494  0.38625832  0.16111374  1
  H+  H321  1  0.59895585  0.94480252  0.10086455  1
  H+  H322  1  0.16362376  0.81940675  0.24557886  1
  H+  H323  1  0.19080274  0.11217416  0.59758839  1
  H+  H324  1  0.44591010  0.57293438  0.50463374  1
  H+  H325  1  0.33923610  0.93913793  0.73894178  1
  H+  H326  1  0.37053469  0.68720128  0.07968530  1
  H+  H327  1  0.82808656  0.16168173  0.43399085  1
  H+  H328  1  0.05814175  0.66694549  0.10735333  1
  H+  H329  1  0.07325117  0.93145255  0.44372500  1
  H+  H330  1  0.57475419  0.17812360  0.75825700  1
  H+  H331  1  0.59455394  0.40702656  0.42718029  1
  H+  H332  1  0.71946975  0.06931975  0.82770089  1
  H+  H333  1  0.11890900  0.97011433  0.31017820  1
  H+  H334  1  0.10503381  0.11756275  -0.00523366  1
  H+  H335  1  0.82226431  0.65681888  0.10036635  1
  H+  H336  1  0.02523722  0.12883073  0.17339803  1
  H+  H337  1  0.41809498  0.34012927  0.27156169  1
  H+  H338  1  0.19737215  0.81219825  0.59899763  1
  H+  H339  1  0.41515116  0.34966589  0.58713960  1
  H+  H340  1  0.32408854  0.65185709  0.07688329  1
  H+  H341  1  0.57871436  0.40828462  0.09721139  1
  H+  H342  1  0.39071229  0.60813380  0.65851162  1
  H+  H343  1  0.91484452  0.60687931  0.57485319  1
  H+  H344  1  0.15616178  0.82681781  0.92532739  1
  H+  H345  1  0.66841109  0.09667534  0.23268490  1
  H+  H346  1  0.13451233  0.10821580  0.18066534  1
  H+  H347  1  0.31446258  0.64907640  0.43119406  1
  H+  H348  1  0.01392235  0.88046861  0.06413521  1
  H+  H349  1  0.87402406  0.82304626  0.55975575  1
  H+  H350  1  0.06030893  0.90669552  0.75496154  1
  H+  H351  1  0.63430151  0.90561760  0.49969743  1
  H+  H352  1  0.91231820  0.33238571  0.27223425  1
  H+  H353  1  0.14201363  0.58768481  0.27008043  1
  H+  H354  1  0.41837209  0.09016802  0.60254068  1
  H+  H355  1  0.43117151  0.06191872  0.25503175  1
  H+  H356  1  0.90511265  0.08731547  0.59821032  1
  H+  H357  1  0.68072091  0.55681703  0.24031032  1
  H+  H358  1  0.08352247  0.17012100  0.43130764  1
  H+  H359  1  0.83190527  0.17575745  0.72759785  1
  H+  H360  1  0.66891994  0.06960227  0.92941254  1
  H+  H361  1  0.15276991  0.32695735  0.27365769  1
  H+  H362  1  0.32205569  0.39694669  0.75240060  1
  H+  H363  1  0.46534693  0.09333993  0.16010876  1
  H+  H364  1  0.84012760  0.91768680  0.39736202  1
  H+  H365  1  0.33956001  0.17193088  0.43570455  1
  H+  H366  1  0.32232617  0.12512791  0.06858136  1
  H+  H367  1  0.07703957  0.41916709  0.43124009  1
  H+  H368  1  0.33698922  0.90799406  0.42723324  1
  H+  H369  1  0.67367042  0.81072145  0.54448617  1
  H+  H370  1  0.42052898  0.56231702  0.92725263  1
  H+  H371  1  0.07536995  0.68294507  0.76478620  1
  H+  H372  1  0.43088295  0.11467350  0.89141138  1
  H+  H373  1  0.16965674  0.57413099  0.95212041  1
  H+  H374  1  0.31535834  0.39441142  0.09352808  1
  H+  H375  1  0.60713237  0.22067668  0.15395226  1
  H+  H376  1  0.36874978  0.39489553  -0.00283512  1
  H+  H377  1  0.89902216  0.86989219  1.00798529  1
  H+  H378  1  0.90697131  0.32156943  0.93877575  1
  H+  H379  1  0.91203012  0.07316763  0.89422116  1
  H+  H380  1  0.07824875  0.39379522  0.71702560  1
  H+  H381  1  0.66813654  0.85902037  0.28118059  1
  H+  H382  1  0.60261253  0.68771922  0.04721464  1
  H+  H383  1  0.89645987  0.81146647  0.23837886  1
  O2-  O384  1  0.08858489  0.16252918  0.16876908  1
  O2-  O385  1  0.08490677  0.17882570  0.47606515  1
  O2-  O386  1  0.08331450  0.15406188  0.82195303  1
  O2-  O387  1  0.08118967  0.42009231  0.15219093  1
  O2-  O388  1  0.07783939  0.41125336  0.47744222  1
  O2-  O389  1  0.09735050  0.41486211  0.86268005  1
  O2-  O390  1  0.06219298  0.66756653  0.15207555  1
  O2-  O391  1  0.07568152  0.68731578  0.48784422  1
  O2-  O392  1  0.06897356  0.69263732  0.80971672  1
  O2-  O393  1  0.04017813  0.90923330  0.13149496  1
  O2-  O394  1  0.07686527  0.94608373  0.48666598  1
  O2-  O395  1  0.10577958  0.95322756  0.87142284  1
  O2-  O396  1  0.32966160  0.15450625  0.14252211  1
  O2-  O397  1  0.33938866  0.17282884  0.48072729  1
  O2-  O398  1  0.37167700  0.22919836  0.85775356  1
  O2-  O399  1  0.29997249  0.37272197  0.13646752  1
  O2-  O400  1  0.40046676  0.39044853  0.47251476  1
  O2-  O401  1  0.32285326  0.38712003  0.79834493  1
  O2-  O402  1  0.31441043  0.75388238  0.18743790  1
  O2-  O403  1  0.32061977  0.64773231  0.47689625  1
  O2-  O404  1  0.37583015  0.67962574  0.80054565  1
  O2-  O405  1  0.30034958  0.89415055  0.15293357  1
  O2-  O406  1  0.32529590  0.90209858  0.47302680  1
  O2-  O407  1  0.33304826  0.95137008  0.81798760  1
  O2-  O408  1  0.57953247  0.15937596  0.13923182  1
  O2-  O409  1  0.57793191  0.15986274  0.47314273  1
  O2-  O410  1  0.56914385  0.18066187  0.80549434  1
  O2-  O411  1  0.57864522  0.40339494  0.14241032  1
  O2-  O412  1  0.59210364  0.40329762  0.47211899  1
  O2-  O413  1  0.57428169  0.40716356  0.80272464  1
  O2-  O414  1  0.62137424  0.72084850  0.11977207  1
  O2-  O415  1  0.55208742  0.64995372  0.49953795  1
  O2-  O416  1  0.57943084  0.67597799  0.81383022  1
  O2-  O417  1  0.60361039  0.95192530  0.14794257  1
  O2-  O418  1  0.60395911  0.93778113  0.49025831  1
  O2-  O419  1  0.61499832  0.95374131  0.82388248  1
  O2-  O420  1  0.89723243  0.20303185  0.14405551  1
  O2-  O421  1  0.83132210  0.16297312  0.47936351  1
  O2-  O422  1  0.82301261  0.14577048  0.80613034  1
  O2-  O423  1  0.83262169  0.42065070  0.14831142  1
  O2-  O424  1  0.79501253  0.34490145  0.46106547  1
  O2-  O425  1  0.82950824  0.40473153  0.81769864  1
  O2-  O426  1  0.82131238  0.65847455  0.14571881  1
  O2-  O427  1  0.81839724  0.64729444  0.45650845  1
  O2-  O428  1  0.83192915  0.66817217  0.81911178  1
  O2-  O429  1  0.83251226  0.91290904  0.14198543  1
  O2-  O430  1  0.85066925  0.92944675  0.47052283  1
  O2-  O431  1  0.83978859  0.91222979  0.80531753  1
  O2-  O432  1  0.15973137  0.06989881  0.19025635  1
  O2-  O433  1  0.17573595  0.11170185  0.51991159  1
  O2-  O434  1  0.19748952  0.09922545  0.81971712  1
  O2-  O435  1  0.15000985  0.33414880  0.20244644  1
  O2-  O436  1  0.16346176  0.34417989  0.50291717  1
  O2-  O437  1  0.17117319  0.32476788  0.85388664  1
  O2-  O438  1  0.15369714  0.59311074  0.18863211  1
  O2-  O439  1  0.18427864  0.62373557  0.54211130  1
  O2-  O440  1  0.21095408  0.57813699  0.87552428  1
  O2-  O441  1  0.14895701  0.83054752  0.20405424  1
  O2-  O442  1  0.16804586  0.84892222  0.53569945  1
  O2-  O443  1  0.16370244  0.85311091  0.86609455  1
  O2-  O444  1  0.40671746  0.06787827  0.17764609  1
  O2-  O445  1  0.41435886  0.08385492  0.52228981  1
  O2-  O446  1  0.42177828  0.12299201  0.84800507  1
  O2-  O447  1  0.42258713  0.32766145  0.19445215  1
  O2-  O448  1  0.37270269  0.32739261  0.51607947  1
  O2-  O449  1  0.39800467  0.27997867  0.80051703  1
  O2-  O450  1  0.42372759  0.49352816  0.22231748  1
  O2-  O451  1  0.38543735  0.52433878  0.50163522  1
  O2-  O452  1  0.39921752  0.53964631  0.85733637  1
  O2-  O453  1  0.46854874  0.93491227  0.21456280  1
  O2-  O454  1  0.43043872  0.82895208  0.51170232  1
  O2-  O455  1  0.38251086  0.83915330  0.85612238  1
  O2-  O456  1  0.67034871  0.10096516  0.18598532  1
  O2-  O457  1  0.67316374  0.09256563  0.52845905  1
  O2-  O458  1  0.66234669  0.03802545  0.84911773  1
  O2-  O459  1  0.66302252  0.32113268  0.18102112  1
  O2-  O460  1  0.66410198  0.32447687  0.51513467  1
  O2-  O461  1  0.66277670  0.33178189  0.85365705  1
  O2-  O462  1  0.66453128  0.55900132  0.19462266  1
  O2-  O463  1  0.65072453  0.56796640  0.51201928  1
  O2-  O464  1  0.65241420  0.57113806  0.85168355  1
  O2-  O465  1  0.71144082  0.91628820  0.20887587  1
  O2-  O466  1  0.68316580  0.84677239  0.50914199  1
  O2-  O467  1  0.67507495  0.84591071  0.83649940  1
  O2-  O468  1  0.91243429  0.07353950  0.18745043  1
  O2-  O469  1  0.91964325  0.08569904  0.51709981  1
  O2-  O470  1  0.91365868  0.07538765  0.84840268  1
  O2-  O471  1  0.91352559  0.33736789  0.19912784  1
  O2-  O472  1  0.90496843  0.32551389  0.51626839  1
  O2-  O473  1  0.90565033  0.31449159  0.85756191  1
  O2-  O474  1  0.90543559  0.58744649  0.20113246  1
  O2-  O475  1  0.91718100  0.65754977  0.55481475  1
  O2-  O476  1  0.90594963  0.57362799  0.85485612  1
  O2-  O477  1  0.89262498  0.81802671  0.19343723  1
  O2-  O478  1  0.91436092  0.82975119  0.52472707  1
  O2-  O479  1  0.92405282  0.83178133  0.86644438  1
  O2-  O480  1  0.16673100  0.07971023  0.31045826  1
  O2-  O481  1  0.19183476  0.09705594  0.64110799  1
  O2-  O482  1  0.13180361  0.02902327  0.98235139  1
  O2-  O483  1  0.15446297  0.31843494  0.31939769  1
  O2-  O484  1  0.18379548  0.35480699  0.61404266  1
  O2-  O485  1  0.17298046  0.32921038  0.97678488  1
  O2-  O486  1  0.14346684  0.58734619  0.31521939  1
  O2-  O487  1  0.17061722  0.57096353  0.65280146  1
  O2-  O488  1  0.14507686  0.56679659  0.99369758  1
  O2-  O489  1  0.18555586  0.82592629  0.32261166  1
  O2-  O490  1  0.21327124  0.79535620  0.63802114  1
  O2-  O491  1  0.15327211  0.81389760  0.97401061  1
  O2-  O492  1  0.45409958  0.04433604  0.29002219  1
  O2-  O493  1  0.42204142  0.09475592  0.64776441  1
  O2-  O494  1  0.43854853  0.08912319  0.96778851  1
  O2-  O495  1  0.40574442  0.33378508  0.31653101  1
  O2-  O496  1  0.42760867  0.35172670  0.63188234  1
  O2-  O497  1  0.43641139  0.36822444  0.94054170  1
  O2-  O498  1  0.39357609  0.55943207  0.32613440  1
  O2-  O499  1  0.41772604  0.57251271  0.65203202  1
  O2-  O500  1  0.42629619  0.57913054  0.97195428  1
  O2-  O501  1  0.48797418  0.86277592  0.32821220  1
  O2-  O502  1  0.37018862  0.81176672  0.62680494  1
  O2-  O503  1  0.42655291  0.87236749  0.97451305  1
  O2-  O504  1  0.66929974  0.08475243  0.30310806  1
  O2-  O505  1  0.66277691  0.09909621  0.65134721  1
  O2-  O506  1  0.67366631  0.08571536  0.97277084  1
  O2-  O507  1  0.67918583  0.32456090  0.30347515  1
  O2-  O508  1  0.66059908  0.33139979  0.63914488  1
  O2-  O509  1  0.67044663  0.33618593  0.97637516  1
  O2-  O510  1  0.70287622  0.55363425  0.30511862  1
  O2-  O511  1  0.66711884  0.58704723  0.63704013  1
  O2-  O512  1  0.67216910  0.58215460  0.97384509  1
  O2-  O513  1  0.65997070  0.84678865  0.32538858  1
  O2-  O514  1  0.64983253  0.84073957  0.69902182  1
  O2-  O515  1  0.70746106  0.83492238  0.96286088  1
  O2-  O516  1  0.91685638  0.08013860  0.31203330  1
  O2-  O517  1  0.89503304  0.08277930  0.64264630  1
  O2-  O518  1  0.91811783  0.07700745  0.96975788  1
  O2-  O519  1  0.91107761  0.32846693  0.31824999  1
  O2-  O520  1  0.91233918  0.35282946  0.63479120  1
  O2-  O521  1  0.91275029  0.32507180  0.98380260  1
  O2-  O522  1  0.91572396  0.64775245  0.31657038  1
  O2-  O523  1  0.93075955  0.54553841  0.63415523  1
  O2-  O524  1  0.91008549  0.57800769  0.97988367  1
  O2-  O525  1  0.91508833  0.80251761  0.31393838  1
  O2-  O526  1  0.80215170  0.80581067  0.60795850  1
  O2-  O527  1  0.92657366  0.83102990  0.99456970  1
  O2-  O528  1  0.07899668  0.15235044  0.00650695  1
  O2-  O529  1  0.08082737  0.15883136  0.35157789  1
  O2-  O530  1  0.12045002  0.19435707  0.69734666  1
  O2-  O531  1  0.07280855  0.39248830  0.02423261  1
  O2-  O532  1  0.07689941  0.42638687  0.36133369  1
  O2-  O533  1  0.07624075  0.40389400  0.67381969  1
  O2-  O534  1  0.06739796  0.66499605  0.02036034  1
  O2-  O535  1  0.06512843  0.67309557  0.36200184  1
  O2-  O536  1  0.08847863  0.65979803  0.69534426  1
  O2-  O537  1  0.01508064  0.87099231  0.01780705  1
  O2-  O538  1  0.09164586  0.90628060  0.30507863  1
  O2-  O539  1  0.15105678  0.93616377  0.62475907  1
  O2-  O540  1  0.31469177  0.10520634  0.02485781  1
  O2-  O541  1  0.33650679  0.16858394  0.35462001  1
  O2-  O542  1  0.35746001  0.19552677  0.68498899  1
  O2-  O543  1  0.33870808  0.42040966  0.01888717  1
  O2-  O544  1  0.29850470  0.39751088  0.36322992  1
  O2-  O545  1  0.32825089  0.41318774  0.68215736  1
  O2-  O546  1  0.35246568  0.68721579  -0.04554952  1
  O2-  O547  1  0.30967001  0.65239352  0.35688241  1
  O2-  O548  1  0.34075516  0.66844302  0.67941704  1
  O2-  O549  1  0.30582538  0.89862608  0.02516485  1
  O2-  O550  1  0.35245506  0.90438662  0.35710166  1
  O2-  O551  1  0.34714716  0.93696201  0.69442263  1
  O2-  O552  1  0.60197624  0.17249416  0.01703789  1
  O2-  O553  1  0.59295707  0.16490650  0.35074131  1
  O2-  O554  1  0.58101853  0.17410904  0.69082932  1
  O2-  O555  1  0.58356233  0.41536528  0.01622254  1
  O2-  O556  1  0.60533239  0.40866660  0.34704118  1
  O2-  O557  1  0.58557998  0.42187736  0.67584458  1
  O2-  O558  1  0.59741982  0.67189061  0.00296286  1
  O2-  O559  1  0.55801493  0.68315505  0.36858837  1
  O2-  O560  1  0.58512507  0.66840453  0.69090277  1
  O2-  O561  1  0.59275972  0.93785539  0.03276793  1
  O2-  O562  1  0.57080059  0.92739981  0.35383012  1
  O2-  O563  1  0.57619109  0.94841046  0.70419350  1
  O2-  O564  1  0.82629507  0.14918266  0.01361353  1
  O2-  O565  1  0.83440610  0.16278535  0.35417067  1
  O2-  O566  1  0.83098742  0.18728243  0.68340981  1
  O2-  O567  1  0.83214300  0.41231371  0.02404148  1
  O2-  O568  1  0.82883542  0.41998799  0.35853240  1
  O2-  O569  1  0.79181015  0.44313776  0.70580380  1
  O2-  O570  1  0.83200425  0.66066746  0.02181462  1
  O2-  O571  1  0.84250348  0.58193206  0.35353146  1
  O2-  O572  1  0.84689651  0.68116585  0.65894210  1
  O2-  O573  1  0.85136703  0.91260467  0.01923029  1
  O2-  O574  1  0.83100021  0.91111728  0.35182926  1
  O2-  O575  1  0.81784294  0.92790078  0.68169255  1
