# generated using pymatgen
data_H2O
_symmetry_space_group_name_H-M   'P 1'
_cell_length_a   17.98523085
_cell_length_b   17.97911053
_cell_length_c   21.98441873
_cell_angle_alpha   90.02272239
_cell_angle_beta   90.01310180
_cell_angle_gamma   120.02570317
_symmetry_Int_Tables_number   1
_chemical_formula_structural   H2O
_chemical_formula_sum   'H384 O192'
_cell_volume   6154.84626012
_cell_formula_units_Z   192
loop_
 _symmetry_equiv_pos_site_id
 _symmetry_equiv_pos_as_xyz
  1  'x, y, z'
loop_
 _atom_type_symbol
 _atom_type_oxidation_number
  H+  1.0
  O2-  -2.0
loop_
 _atom_site_type_symbol
 _atom_site_label
 _atom_site_symmetry_multiplicity
 _atom_site_fract_x
 _atom_site_fract_y
 _atom_site_fract_z
 _atom_site_occupancy
  H+  H0  1  0.71014791  0.49075271  0.78508039  1
  H+  H1  1  0.40637916  0.02869056  0.83438075  1
  H+  H2  1  0.44769906  0.00570958  0.66378969  1
  H+  H3  1  0.60399187  0.78629389  0.17525706  1
  H+  H4  1  0.50422422  0.68288759  1.00706587  1
  H+  H5  1  0.64815542  0.63060798  0.08147714  1
  H+  H6  1  0.91012064  0.04320558  0.49604427  1
  H+  H7  1  0.78702343  0.38140651  0.00308085  1
  H+  H8  1  0.88883057  0.35671241  0.32283406  1
  H+  H9  1  0.27032227  0.88041379  0.34324856  1
  H+  H10  1  0.21890168  0.62231764  0.14268825  1
  H+  H11  1  0.35858096  0.39903781  0.16878173  1
  H+  H12  1  0.50054187  0.77065348  0.11471174  1
  H+  H13  1  0.88073985  0.72330881  0.32859122  1
  H+  H14  1  0.10494424  0.95773093  0.34577312  1
  H+  H15  1  0.37319421  0.72229543  1.05261889  1
  H+  H16  1  0.95541621  0.59872191  0.51489140  1
  H+  H17  1  0.71045361  0.60790727  0.18447050  1
  H+  H18  1  0.04224722  0.30012330  0.87086551  1
  H+  H19  1  -0.04674238  0.33977094  0.84339523  1
  H+  H20  1  0.13551688  0.11231687  1.01224482  1
  H+  H21  1  0.86749524  0.46994777  0.33325110  1
  H+  H22  1  0.36294143  0.40348366  0.34290770  1
  H+  H23  1  0.76327478  0.46027460  0.11291333  1
  H+  H24  1  0.64031752  1.02319452  0.66359504  1
  H+  H25  1  0.85261806  0.46308085  0.49427380  1
  H+  H26  1  0.38208765  0.28549739  0.99537604  1
  H+  H27  1  0.64181348  -0.01684689  1.01590407  1
  H+  H28  1  0.50156954  0.88974059  0.43980994  1
  H+  H29  1  0.11628022  0.39029949  0.66142639  1
  H+  H30  1  0.23994895  0.12355957  0.00790260  1
  H+  H31  1  0.73975532  0.36513312  0.65804425  1
  H+  H32  1  0.34479942  0.73982138  0.15265070  1
  H+  H33  1  0.58253072  0.40085896  0.40187019  1
  H+  H34  1  0.71263637  0.87677099  0.74749966  1
  H+  H35  1  0.13450659  0.77328955  0.66733371  1
  H+  H36  1  0.59919605  0.08899642  0.50842500  1
  H+  H37  1  0.13837744  0.09520139  0.33672274  1
  H+  H38  1  0.79287382  0.37778693  0.83001076  1
  H+  H39  1  0.69209252  0.84135723  0.91509695  1
  H+  H40  1  0.79926985  1.00367144  0.44851900  1
  H+  H41  1  0.87061289  0.89130061  0.66100138  1
  H+  H42  1  0.53770551  0.71188397  0.09494348  1
  H+  H43  1  0.51909476  0.45048593  0.11933790  1
  H+  H44  1  0.38097005  0.88261658  0.18655400  1
  H+  H45  1  0.52007944  0.89889693  0.18620872  1
  H+  H46  1  0.47823774  0.42084942  0.81327955  1
  H+  H47  1  0.33365151  0.43119873  0.40307169  1
  H+  H48  1  0.43260808  0.24098751  0.81015202  1
  H+  H49  1  0.36959290  0.87426290  0.67551874  1
  H+  H50  1  0.62920909  0.88459869  0.84295052  1
  H+  H51  1  0.12961605  0.35607064  0.50269677  1
  H+  H52  1  0.21007554  0.34144893  -0.00732815  1
  H+  H53  1  0.40374670  0.78614943  0.37001608  1
  H+  H54  1  0.15099705  0.61624402  0.31286377  1
  H+  H55  1  0.10429963  0.96470455  0.49398652  1
  H+  H56  1  0.09326598  0.66909728  0.24664265  1
  H+  H57  1  0.65528251  0.27522452  0.84345297  1
  H+  H58  1  0.34328915  0.65075562  0.15040860  1
  H+  H59  1  0.06949684  0.01424149  0.88066898  1
  H+  H60  1  0.22114293  0.10458230  0.16359958  1
  H+  H61  1  0.48267684  0.14037403  0.98985240  1
  H+  H62  1  0.25038115  0.18375461  0.78121909  1
  H+  H63  1  0.22359048  0.36628241  0.33186690  1
  H+  H64  1  0.37032076  0.14353270  0.16451020  1
  H+  H65  1  0.86976708  0.38737109  0.67029443  1
  H+  H66  1  0.13828512  0.52540073  0.83512557  1
  H+  H67  1  0.86328218  0.08932250  0.17707315  1
  H+  H68  1  0.86664953  0.58254659  0.81682834  1
  H+  H69  1  0.10022391  0.50208301  0.50982939  1
  H+  H70  1  0.10563729  0.47497541  0.66172151  1
  H+  H71  1  0.88660994  0.14783168  0.48630911  1
  H+  H72  1  0.63463605  0.12076620  0.17609223  1
  H+  H73  1  0.01892322  0.64750377  0.16790109  1
  H+  H74  1  0.52451356  0.12567005  0.34383891  1
  H+  H75  1  0.21175721  0.84329114  0.51051678  1
  H+  H76  1  0.15917383  0.51132746  -0.00631604  1
  H+  H77  1  0.36569597  0.53105786  0.32459875  1
  H+  H78  1  0.12385023  0.38152442  0.16463303  1
  H+  H79  1  0.25424763  0.87232388  0.84078593  1
  H+  H80  1  0.11304844  0.47160086  0.34637635  1
  H+  H81  1  0.22111933  0.09467849  0.50671645  1
  H+  H82  1  0.01544220  0.11083605  0.01464637  1
  H+  H83  1  0.65772771  0.50600322  0.34130368  1
  H+  H84  1  0.41061293  0.11861011  0.82505173  1
  H+  H85  1  0.49415303  0.04374106  0.03657316  1
  H+  H86  1  0.79197492  0.62091676  0.33926067  1
  H+  H87  1  0.88498586  0.85648942  0.50568851  1
  H+  H88  1  0.78632599  0.13607461  0.33435218  1
  H+  H89  1  0.61871141  0.65383651  0.70186413  1
  H+  H90  1  0.12263320  0.72655753  0.30528747  1
  H+  H91  1  0.26852353  0.59715188  0.83121748  1
  H+  H92  1  0.14873371  0.79479213  0.17234094  1
  H+  H93  1  0.37384813  0.16339325  -0.00009300  1
  H+  H94  1  0.12873968  0.96091695  0.83201557  1
  H+  H95  1  0.65874807  0.81948920  0.37562837  1
  H+  H96  1  0.66887685  0.67733960  0.08946873  1
  H+  H97  1  -0.02446987  0.09744779  0.84328131  1
  H+  H98  1  0.87552236  -0.03002849  0.33116469  1
  H+  H99  1  0.78328068  0.88264331  0.33406374  1
  H+  H100  1  0.35428755  0.22323785  0.16388698  1
  H+  H101  1  0.27605490  0.55314458  0.62389264  1
  H+  H102  1  0.38065805  0.63896949  0.51573199  1
  H+  H103  1  0.34606177  0.10659632  0.50415768  1
  H+  H104  1  0.16150105  0.86288804  0.84741483  1
  H+  H105  1  0.38878401  0.36760548  0.66886617  1
  H+  H106  1  0.64803518  0.11987795  0.33043227  1
  H+  H107  1  0.36477319  0.64676134  0.35350921  1
  H+  H108  1  0.47062475  0.35288641  0.66855977  1
  H+  H109  1  0.94154056  0.84528496  0.89666009  1
  H+  H110  1  0.84181412  0.61797661  0.53211078  1
  H+  H111  1  0.43277234  0.89589064  0.05701819  1
  H+  H112  1  0.90587417  0.52906773  0.15792051  1
  H+  H113  1  0.84612384  0.70933425  0.52850391  1
  H+  H114  1  0.36418192  0.39780568  0.49683529  1
  H+  H115  1  0.14411294  0.27890467  0.65466167  1
  H+  H116  1  0.61296702  0.46943202  0.47960344  1
  H+  H117  1  0.60105284  0.21749357  0.15398218  1
  H+  H118  1  0.50068843  0.12230142  0.49952917  1
  H+  H119  1  0.85675795  -0.00318479  0.17539504  1
  H+  H120  1  0.48540193  0.60874660  0.50984878  1
  H+  H121  1  0.12794343  0.13621859  0.48594845  1
  H+  H122  1  0.91407738  0.41010957  0.14618301  1
  H+  H123  1  0.68768797  0.58826203  0.42346640  1
  H+  H124  1  0.62151238  0.72979635  0.85545930  1
  H+  H125  1  0.97927525  0.36004223  0.32409646  1
  H+  H126  1  0.12051202  0.10312760  0.66193062  1
  H+  H127  1  0.61330865  0.37042938  0.34194878  1
  H+  H128  1  0.13333950  0.88999856  0.67326892  1
  H+  H129  1  0.11900467  0.46856398  0.15080203  1
  H+  H130  1  0.40410294  0.79294610  0.86930138  1
  H+  H131  1  0.66863877  0.37125383  0.83953568  1
  H+  H132  1  0.47197876  0.38481263  0.79267413  1
  H+  H133  1  0.97229792  0.85373856  0.50429678  1
  H+  H134  1  0.37980620  0.75831435  0.52834955  1
  H+  H135  1  0.59987016  0.71295474  0.46401401  1
  H+  H136  1  0.52555455  0.89378981  0.69199278  1
  H+  H137  1  0.39410089  0.52504229  0.51789152  1
  H+  H138  1  0.87611376  0.25858444  0.49998726  1
  H+  H139  1  0.87884220  0.98818671  0.65469018  1
  H+  H140  1  0.37416326  1.00695600  0.17528345  1
  H+  H141  1  0.38958730  0.60734741  0.85581961  1
  H+  H142  1  0.44274032  0.64061907  0.16771963  1
  H+  H143  1  0.10223326  0.16761840  0.42388395  1
  H+  H144  1  0.63254878  -0.00393816  0.32776186  1
  H+  H145  1  0.60908938  0.37886854  0.49339323  1
  H+  H146  1  0.63717654  0.23731218  0.67305463  1
  H+  H147  1  0.47379217  0.37015391  0.51189605  1
  H+  H148  1  0.36756261  0.11633551  0.34507663  1
  H+  H149  1  0.86901758  0.59667485  0.16508420  1
  H+  H150  1  0.59025085  0.48824845  0.16979086  1
  H+  H151  1  0.13178624  0.68743944  0.04897118  1
  H+  H152  1  0.73731006  0.83990271  0.85082280  1
  H+  H153  1  0.27406916  0.39656929  0.49329986  1
  H+  H154  1  0.42005318  0.07787289  0.27297861  1
  H+  H155  1  0.45626049  0.61463517  0.31614824  1
  H+  H156  1  0.80368179  0.64643486  0.62565138  1
  H+  H157  1  0.39790395  0.65109721  0.68609652  1
  H+  H158  1  0.78332777  0.13276412  0.65406602  1
  H+  H159  1  0.97617773  0.36219824  0.64981127  1
  H+  H160  1  0.60422536  0.46638081  0.67486238  1
  H+  H161  1  0.22957642  0.85914541  0.66152335  1
  H+  H162  1  0.22967902  0.36589629  0.17889316  1
  H+  H163  1  0.84467471  0.57804044  0.97289899  1
  H+  H164  1  0.14287097  0.27093229  0.18049155  1
  H+  H165  1  0.74088942  0.42593247  0.08920617  1
  H+  H166  1  0.34644239  0.66739790  0.45842646  1
  H+  H167  1  0.22192392  0.08622208  0.34454745  1
  H+  H168  1  0.02581045  0.37656241  0.01056998  1
  H+  H169  1  0.35380007  0.92229842  0.76771243  1
  H+  H170  1  0.86841406  0.22431115  0.65751595  1
  H+  H171  1  0.64384498  0.01928633  0.85449737  1
  H+  H172  1  0.10534692  0.89333540  0.15156890  1
  H+  H173  1  0.64735894  0.11081777  0.84762028  1
  H+  H174  1  0.09950969  0.20557926  0.00957884  1
  H+  H175  1  0.39984708  0.77511230  0.68081745  1
  H+  H176  1  0.83781154  0.70452685  0.15424380  1
  H+  H177  1  0.90021257  0.86887391  0.84021382  1
  H+  H178  1  0.55596166  0.64118197  0.37877622  1
  H+  H179  1  0.01206721  0.87886481  0.14832496  1
  H+  H180  1  0.77887206  0.12236205  0.84388357  1
  H+  H181  1  0.10396782  0.64044674  0.15620202  1
  H+  H182  1  0.87520830  0.38026825  -0.00417637  1
  H+  H183  1  0.49547225  0.62399341  0.67526776  1
  H+  H184  1  0.19491169  0.61285806  0.99555239  1
  H+  H185  1  0.57402013  0.96143697  0.48865210  1
  H+  H186  1  0.76473240  0.37495340  0.48617725  1
  H+  H187  1  0.16245094  0.09351311  0.85934316  1
  H+  H188  1  0.40673676  0.59647846  0.93306695  1
  H+  H189  1  0.03927923  0.88228935  0.82445606  1
  H+  H190  1  0.62611122  0.09540496  1.00376211  1
  H+  H191  1  0.09897199  0.64118216  0.67242294  1
  H+  H192  1  0.60782975  0.62724289  0.46738854  1
  H+  H193  1  0.02562905  0.14229366  0.66177545  1
  H+  H194  1  0.77146799  0.62105175  0.80534642  1
  H+  H195  1  0.12286382  0.34186045  0.99779759  1
  H+  H196  1  0.64557522  0.87127145  0.32602778  1
  H+  H197  1  0.34879805  0.51921421  0.00093541  1
  H+  H198  1  0.19985502  0.61206925  0.64901300  1
  H+  H199  1  0.30947886  0.57988513  0.98403748  1
  H+  H200  1  0.77448018  0.12926578  1.01107459  1
  H+  H201  1  0.21181060  0.11257653  0.66630559  1
  H+  H202  1  0.07808806  0.22488716  0.82157452  1
  H+  H203  1  0.46123409  0.85227162  0.52389920  1
  H+  H204  1  0.25791164  0.23719636  0.84298898  1
  H+  H205  1  -0.01369417  0.60512805  0.30263569  1
  H+  H206  1  0.36718071  0.99177174  0.51532567  1
  H+  H207  1  0.33951470  0.17440188  0.06681485  1
  H+  H208  1  0.61803216  0.90049921  0.70021112  1
  H+  H209  1  0.89690035  0.12017610  0.64572896  1
  H+  H210  1  0.86669854  0.22198407  0.15974538  1
  H+  H211  1  0.31417677  0.37565900  0.85258960  1
  H+  H212  1  0.00649265  0.12608038  0.49392840  1
  H+  H213  1  0.80420310  0.67383166  -0.00184867  1
  H+  H214  1  0.38683914  1.01110625  0.33226405  1
  H+  H215  1  0.49387102  0.63241997  0.87406085  1
  H+  H216  1  0.56784541  0.88934841  0.04508017  1
  H+  H217  1  0.09737057  0.39531659  0.81793161  1
  H+  H218  1  0.62438618  0.26295883  0.50654602  1
  H+  H219  1  0.89881450  0.23523128  0.85313560  1
  H+  H220  1  0.63148341  0.61912651  0.20525330  1
  H+  H221  1  0.22055852  0.38941758  0.79694413  1
  H+  H222  1  0.88221006  0.49803803  0.82856670  1
  H+  H223  1  0.12409293  -0.01632879  0.67599537  1
  H+  H224  1  0.97792969  0.84654143  0.32527498  1
  H+  H225  1  0.51067845  0.13436855  0.16994792  1
  H+  H226  1  0.86856057  0.76664324  0.66196283  1
  H+  H227  1  0.38713593  0.89943477  0.83014981  1
  H+  H228  1  0.11931261  0.22237090  0.33321979  1
  H+  H229  1  0.28382084  0.57544738  0.59373061  1
  H+  H230  1  0.20431497  0.75390126  0.00703069  1
  H+  H231  1  0.34535442  0.86122326  0.50471273  1
  H+  H232  1  0.89320410  0.56625764  0.88873057  1
  H+  H233  1  0.36579053  0.91449540  0.02153138  1
  H+  H234  1  0.45587872  0.36607296  0.19335246  1
  H+  H235  1  0.61149060  0.21736836  0.34623848  1
  H+  H236  1  0.68251937  0.58311714  0.90475100  1
  H+  H237  1  0.73588114  0.88161018  0.68107179  1
  H+  H238  1  0.60982916  0.90001323  0.18920490  1
  H+  H239  1  0.37451206  0.48500468  0.67307666  1
  H+  H240  1  0.89759059  0.10340324  0.32568908  1
  H+  H241  1  0.88828983  0.00775433  0.83946794  1
  H+  H242  1  0.83510137  0.41322241  0.39475849  1
  H+  H243  1  0.86144071  0.11052490  0.84250986  1
  H+  H244  1  0.33312813  0.15149063  0.71662754  1
  H+  H245  1  0.11123103  0.38158096  0.34052144  1
  H+  H246  1  0.64879663  0.11407757  0.65462504  1
  H+  H247  1  0.66118991  0.51631382  1.00198610  1
  H+  H248  1  0.73109256  0.35570460  0.32680875  1
  H+  H249  1  0.71572864  0.61017071  0.68214947  1
  H+  H250  1  0.42606733  0.25411655  0.84135716  1
  H+  H251  1  0.47264748  0.36978768  0.98743522  1
  H+  H252  1  0.62299051  0.74616131  0.70783711  1
  H+  H253  1  0.75143641  0.86164393  0.16407077  1
  H+  H254  1  1.12461914  0.14202467  0.16876722  1
  H+  H255  1  0.13948966  0.73364719  0.82708895  1
  H+  H256  1  0.63776074  0.61251016  0.85540488  1
  H+  H257  1  0.39628246  0.31785012  0.38147383  1
  H+  H258  1  0.13466604  0.85573175  0.32640089  1
  H+  H259  1  0.61554580  0.37467585  0.00546994  1
  H+  H260  1  0.64809721  0.36170954  0.65411723  1
  H+  H261  1  0.82183488  -0.05618470  1.00251336  1
  H+  H262  1  0.67133767  0.89193611  1.01229734  1
  H+  H263  1  0.54493656  0.14219471  0.82713081  1
  H+  H264  1  0.79064943  0.63581173  0.09977165  1
  H+  H265  1  0.35671523  0.39643220  0.00744278  1
  H+  H266  1  0.63595314  0.47642876  0.82549391  1
  H+  H267  1  0.46029246  0.17492866  0.22427359  1
  H+  H268  1  0.88709547  0.84398574  0.32451564  1
  H+  H269  1  0.00636026  0.36714978  0.49292358  1
  H+  H270  1  0.36074173  0.20126914  0.34286258  1
  H+  H271  1  0.03276651  0.13048160  0.33228808  1
  H+  H272  1  0.07018158  0.40255875  0.43553227  1
  H+  H273  1  0.90359186  0.80966562  0.22297259  1
  H+  H274  1  0.64321544  0.26597744  -0.00880832  1
  H+  H275  1  0.88888030  0.26102903  1.00315815  1
  H+  H276  1  0.86488922  0.83600111  0.16671115  1
  H+  H277  1  0.09303729  0.72029818  0.49773954  1
  H+  H278  1  0.77205990  0.14018974  0.16224521  1
  H+  H279  1  0.88841802  0.62852135  0.32424286  1
  H+  H280  1  0.49542409  0.87319227  0.85450128  1
  H+  H281  1  0.87516227  0.60952744  0.66442711  1
  H+  H282  1  0.59177257  0.70740131  0.32515938  1
  H+  H283  1  0.60484852  0.84734047  0.46228820  1
  H+  H284  1  0.60022872  0.34541346  0.18084859  1
  H+  H285  1  0.70170952  0.86694223  0.46552882  1
  H+  H286  1  0.98699413  0.35391576  0.17122975  1
  H+  H287  1  0.14459745  0.27490063  0.49853146  1
  H+  H288  1  0.22887652  0.85769139  0.93524675  1
  H+  H289  1  0.91100779  0.33143641  0.59278680  1
  H+  H290  1  0.54735434  0.15336026  0.67938538  1
  H+  H291  1  0.36139662  0.88452647  0.35893849  1
  H+  H292  1  0.16025302  0.06538307  0.95559863  1
  H+  H293  1  0.38875592  0.59404096  0.22868857  1
  H+  H294  1  0.84369965  0.92977824  0.74296083  1
  H+  H295  1  0.32187758  0.41899800  0.06730687  1
  H+  H296  1  0.91191048  0.57108659  0.25307322  1
  H+  H297  1  0.91131815  0.82667140  0.60501535  1
  H+  H298  1  0.08818996  0.67624139  0.73713919  1
  H+  H299  1  0.69594996  0.77654425  0.60098079  1
  H+  H300  1  0.91344474  0.06603797  0.26465236  1
  H+  H301  1  0.80673004  0.62300443  0.73628415  1
  H+  H302  1  0.12221399  0.17028210  0.80966366  1
  H+  H303  1  0.79854307  0.88457471  0.10001951  1
  H+  H304  1  0.23535220  0.88734294  0.17184340  1
  H+  H305  1  0.13409119  0.64386874  0.82308491  1
  H+  H306  1  0.84648470  0.16585215  0.42722928  1
  H+  H307  1  0.92316250  0.33054591  0.22790621  1
  H+  H308  1  0.89131048  0.44191017  0.08394422  1
  H+  H309  1  0.32579740  0.13881796  0.44223580  1
  H+  H310  1  0.16224368  0.58330378  0.20089590  1
  H+  H311  1  0.65043541  0.56834547  0.73823016  1
  H+  H312  1  0.61079478  0.17460732  0.77135182  1
  H+  H313  1  0.17167438  0.33503273  0.59371625  1
  H+  H314  1  0.31864184  0.89477465  0.44342797  1
  H+  H315  1  0.30291314  0.42520723  0.75352520  1
  H+  H316  1  0.28243212  0.65321828  0.36902229  1
  H+  H317  1  0.84487233  0.40776060  0.76690286  1
  H+  H318  1  0.93838058  0.09684608  0.58830460  1
  H+  H319  1  0.10389653  0.91831197  0.73969274  1
  H+  H320  1  0.59444291  0.91799324  0.78647468  1
  H+  H321  1  0.86724352  0.47597475  0.67825883  1
  H+  H322  1  0.07613991  0.17128070  0.72503420  1
  H+  H323  1  0.12822614  0.31368589  0.90241431  1
  H+  H324  1  0.35449257  0.34431734  0.90616708  1
  H+  H325  1  0.63725395  0.03386599  0.18577082  1
  H+  H326  1  0.66875938  0.08164078  0.94288983  1
  H+  H327  1  0.72359896  0.60762814  0.49224837  1
  H+  H328  1  0.58324985  0.40445700  0.06304756  1
  H+  H329  1  0.36715712  0.94990262  0.11732326  1
  H+  H330  1  0.56314183  0.15407516  0.44033092  1
  H+  H331  1  0.69391975  0.36894912  0.16679839  1
  H+  H332  1  0.87838510  0.08989027  1.00025153  1
  H+  H333  1  0.12737923  0.02205032  0.16360193  1
  H+  H334  1  0.87643419  0.50947581  -0.02734981  1
  H+  H335  1  0.73317429  0.80889072  0.58231648  1
  H+  H336  1  0.39271139  0.32821078  0.24957305  1
  H+  H337  1  0.28181868  0.39671325  0.66287747  1
  H+  H338  1  0.41556311  0.82714891  0.61629093  1
  H+  H339  1  0.15657244  0.07176338  0.56360982  1
  H+  H340  1  0.08855387  0.40333922  0.06824048  1
  H+  H341  1  0.08549897  0.17081678  0.11526408  1
  H+  H342  1  0.55266588  0.12805775  0.07444966  1
  H+  H343  1  0.90556134  0.56371395  0.57807222  1
  H+  H344  1  0.05457105  0.66573054  0.43694261  1
  H+  H345  1  0.38968433  0.83029217  0.24140945  1
  H+  H346  1  0.90916913  0.05644697  0.94325084  1
  H+  H347  1  0.66453967  0.32395594  0.27081536  1
  H+  H348  1  0.57959531  0.67096679  0.79651439  1
  H+  H349  1  0.41370925  0.34243992  0.57045759  1
  H+  H350  1  0.08143380  0.42705595  0.75437531  1
  H+  H351  1  0.63570874  0.05459472  0.56168807  1
  H+  H352  1  0.48846989  0.87471043  0.34747469  1
  H+  H353  1  0.09502994  0.58940249  0.50587942  1
  H+  H354  1  0.35678484  0.48819483  0.16069852  1
  H+  H355  1  0.87580965  0.22264065  0.33257383  1
  H+  H356  1  0.10373998  0.87493866  0.49800604  1
  H+  H357  1  0.66964741  0.32761724  0.56199295  1
  H+  H358  1  0.48077409  0.36141691  0.34232863  1
  H+  H359  1  0.39224047  0.03891928  0.57838605  1
  H+  H360  1  0.17988235  0.57368769  0.89929444  1
  H+  H361  1  0.16832915  0.33422440  0.27014162  1
  H+  H362  1  0.67747870  0.10036245  0.26531970  1
  H+  H363  1  0.36076306  0.66541899  0.74785129  1
  H+  H364  1  0.17530292  0.84746682  0.26323066  1
  H+  H365  1  0.60499094  0.74296178  0.01125314  1
  H+  H366  1  0.60562509  0.93868589  0.38750831  1
  H+  H367  1  0.13063142  0.57342410  0.59499772  1
  H+  H368  1  0.59847900  0.40556052  0.72565477  1
  H+  H369  1  0.87411119  0.34826575  0.49817102  1
  H+  H370  1  0.21454517  0.58270128  0.29211464  1
  H+  H371  1  0.67673418  0.58114137  0.29506580  1
  H+  H372  1  0.43906544  0.13138557  0.92567691  1
  H+  H373  1  0.15493148  0.82019535  0.57063225  1
  H+  H374  1  0.65257463  0.81242869  0.24045763  1
  H+  H375  1  0.96943537  0.61906768  0.67057684  1
  H+  H376  1  0.67635984  0.32935350  0.93451700  1
  H+  H377  1  0.82733767  0.94130646  0.41798712  1
  H+  H378  1  0.06977652  0.89121548  0.40059520  1
  H+  H379  1  0.30071554  0.53727566  0.80030542  1
  H+  H380  1  0.83331925  0.15526770  0.07021561  1
  H+  H381  1  0.34425175  0.23827077  0.68882804  1
  H+  H382  1  0.92746905  0.31198483  0.94153622  1
  H+  H383  1  0.44244844  0.59207685  0.61131372  1
  O2-  O384  1  0.09889010  0.17992028  0.15880432  1
  O2-  O385  1  0.10393261  0.17197780  0.46961997  1
  O2-  O386  1  0.06676176  0.16914352  0.80281594  1
  O2-  O387  1  0.08999694  0.40569568  0.14399237  1
  O2-  O388  1  0.06878157  0.40050211  0.48088526  1
  O2-  O389  1  0.07891042  0.43342391  0.79943585  1
  O2-  O390  1  0.08304993  0.67917933  0.17092843  1
  O2-  O391  1  0.05589090  0.66011106  0.48087261  1
  O2-  O392  1  0.10727655  0.67658399  0.80753366  1
  O2-  O393  1  0.07147958  0.91840164  0.13542697  1
  O2-  O394  1  0.07234834  0.90277985  0.48063964  1
  O2-  O395  1  0.10036643  0.90539263  0.80959834  1
  O2-  O396  1  0.33778903  0.16865693  0.14288326  1
  O2-  O397  1  0.31712796  0.13629923  0.48685627  1
  O2-  O398  1  0.22069228  0.18162518  0.81969563  1
  O2-  O399  1  0.33171696  0.42741782  0.14628793  1
  O2-  O400  1  0.33521237  0.42900677  0.47922943  1
  O2-  O401  1  0.28178223  0.43161565  0.79492609  1
  O2-  O402  1  0.31828502  0.68365690  0.13113633  1
  O2-  O403  1  0.34776635  0.66767668  0.50342429  1
  O2-  O404  1  0.32136517  0.59810117  0.81257851  1
  O2-  O405  1  0.34643672  0.94740286  0.16007593  1
  O2-  O406  1  0.31407687  0.89037101  0.48881338  1
  O2-  O407  1  0.35638119  0.92893517  0.81270935  1
  O2-  O408  1  0.56929199  0.15524409  0.14651088  1
  O2-  O409  1  0.56129957  0.15673870  0.48571955  1
  O2-  O410  1  0.60754989  0.17329530  0.81659189  1
  O2-  O411  1  0.55098150  0.43384722  0.14688270  1
  O2-  O412  1  0.57710267  0.40573885  0.47513846  1
  O2-  O413  1  0.65232103  0.44314244  0.79783519  1
  O2-  O414  1  0.51977407  0.73096645  0.13289929  1
  O2-  O415  1  0.56763498  0.64939701  0.45916477  1
  O2-  O416  1  0.58297829  0.66751498  0.84182888  1
  O2-  O417  1  0.58243765  0.93444285  0.17984584  1
  O2-  O418  1  0.54729879  0.90003800  0.46939706  1
  O2-  O419  1  0.59775915  0.91538909  0.83168829  1
  O2-  O420  1  0.83126778  0.16097980  0.14608572  1
  O2-  O421  1  0.84331309  0.16306393  0.47250285  1
  O2-  O422  1  0.83896313  0.14821795  0.82890981  1
  O2-  O423  1  0.91849176  0.46085739  0.12453120  1
  O2-  O424  1  0.82575539  0.40703656  0.47196398  1
  O2-  O425  1  0.85163242  0.41154981  0.81236253  1
  O2-  O426  1  0.80013524  0.64107308  0.14427327  1
  O2-  O427  1  0.80741230  0.64735500  0.53706255  1
  O2-  O428  1  0.79779258  0.59633525  0.77890617  1
  O2-  O429  1  0.80910973  0.88567738  0.14439418  1
  O2-  O430  1  0.81110935  0.95737153  0.45793428  1
  O2-  O431  1  0.82651503  0.93021151  0.78758233  1
  O2-  O432  1  0.16292375  0.08130997  0.18032254  1
  O2-  O433  1  0.15765120  0.06864500  0.51874493  1
  O2-  O434  1  0.13202066  0.03967395  0.88489877  1
  O2-  O435  1  0.17073659  0.33418834  0.19620129  1
  O2-  O436  1  0.16803484  0.33366132  0.51632741  1
  O2-  O437  1  0.10246622  0.31258816  0.86178659  1
  O2-  O438  1  0.15729291  0.58133326  0.15680874  1
  O2-  O439  1  0.12215298  0.56077419  0.52704279  1
  O2-  O440  1  0.17965705  0.58237366  0.85435752  1
  O2-  O441  1  0.17505472  0.85470058  0.18712244  1
  O2-  O442  1  0.15068874  0.81704802  0.52533671  1
  O2-  O443  1  0.19793403  0.83987508  0.86261716  1
  O2-  O444  1  0.43307233  0.11857454  0.20484874  1
  O2-  O445  1  0.39718907  0.05051740  0.53438308  1
  O2-  O446  1  0.43869997  0.09181253  0.84633685  1
  O2-  O447  1  0.39457844  0.33254575  0.20499424  1
  O2-  O448  1  0.41516877  0.35261479  0.52627987  1
  O2-  O449  1  0.30671090  0.32658253  0.87726398  1
  O2-  O450  1  0.38675052  0.59215818  0.18320430  1
  O2-  O451  1  0.43224771  0.58354711  0.53538395  1
  O2-  O452  1  0.43052953  0.60283328  0.88681233  1
  O2-  O453  1  0.39975801  0.84009645  0.19792209  1
  O2-  O454  1  0.40305219  0.82119034  0.54229315  1
  O2-  O455  1  0.43456361  0.85510926  0.86534966  1
  O2-  O456  1  0.67139256  0.09851330  0.19305073  1
  O2-  O457  1  0.61746122  0.04648203  0.51823501  1
  O2-  O458  1  0.67399414  0.08062684  0.86832330  1
  O2-  O459  1  0.64290207  0.32835939  0.18963468  1
  O2-  O460  1  0.66158073  0.32528807  0.51695164  1
  O2-  O461  1  0.68852335  0.33494514  0.86061594  1
  O2-  O462  1  0.65519633  0.58095061  0.20908651  1
  O2-  O463  1  0.66963858  0.58002696  0.46628034  1
  O2-  O464  1  0.67006074  0.58113303  0.86080677  1
  O2-  O465  1  0.65593667  0.83124048  0.19836099  1
  O2-  O466  1  0.64271230  0.82259043  0.45346129  1
  O2-  O467  1  0.68053332  0.82948890  0.87041314  1
  O2-  O468  1  0.88247226  0.05230083  0.19700702  1
  O2-  O469  1  0.94697381  0.10165991  0.51214232  1
  O2-  O470  1  0.92045198  0.06036873  0.86503269  1
  O2-  O471  1  0.92516151  0.32929852  0.18251789  1
  O2-  O472  1  0.90454496  0.31990303  0.51596949  1
  O2-  O473  1  0.94543399  0.29416314  0.87144720  1
  O2-  O474  1  0.91043970  0.58063452  0.18155007  1
  O2-  O475  1  0.89748530  0.56138094  0.53271227  1
  O2-  O476  1  0.90190618  0.56326079  0.84117477  1
  O2-  O477  1  0.89537491  0.80405945  0.17838495  1
  O2-  O478  1  0.91092198  0.82321535  0.51949337  1
  O2-  O479  1  0.81465334  0.84988319  0.81391430  1
  O2-  O480  1  0.15996043  0.05423838  0.33481634  1
  O2-  O481  1  0.15320740  0.07280361  0.64994450  1
  O2-  O482  1  0.17323055  0.08531780  0.99953832  1
  O2-  O483  1  0.16374409  0.33227295  0.31617059  1
  O2-  O484  1  0.17523410  0.33948473  0.63934208  1
  O2-  O485  1  0.14872604  0.30760014  0.98039261  1
  O2-  O486  1  0.18181390  0.58511338  0.32662579  1
  O2-  O487  1  0.13805524  0.57985739  0.64200025  1
  O2-  O488  1  0.20308201  0.56738035  0.97588811  1
  O2-  O489  1  0.17098246  0.83337425  0.30805578  1
  O2-  O490  1  0.16806932  0.83421705  0.64943019  1
  O2-  O491  1  0.25072527  0.86216762  0.97883753  1
  O2-  O492  1  0.42184673  0.07250036  0.31910532  1
  O2-  O493  1  0.38893026  -0.00481149  0.65878569  1
  O2-  O494  1  0.45084916  0.16178691  0.96489071  1
  O2-  O495  1  0.41594646  0.33291286  0.33943422  1
  O2-  O496  1  0.40914680  0.32706660  0.65636813  1
  O2-  O497  1  0.41070709  0.34564065  0.97965369  1
  O2-  O498  1  0.39259591  0.59069913  0.30796913  1
  O2-  O499  1  0.43704011  0.58902606  0.65683589  1
  O2-  O500  1  0.36446759  0.57907529  0.98769368  1
  O2-  O501  1  0.43279141  0.85054572  0.36937186  1
  O2-  O502  1  0.41928217  0.83481446  0.66211485  1
  O2-  O503  1  0.47301937  0.82972708  1.06953334  1
  O2-  O504  1  0.68072311  0.09453644  0.31125132  1
  O2-  O505  1  0.66831981  0.07576928  0.63762920  1
  O2-  O506  1  0.66903710  0.08000728  0.98865938  1
  O2-  O507  1  0.66828595  0.32373467  0.31569104  1
  O2-  O508  1  0.67935497  0.33147213  0.64138120  1
  O2-  O509  1  0.67188194  0.32686020  0.98058449  1
  O2-  O510  1  0.69518909  0.57002079  0.33477689  1
  O2-  O511  1  0.64966970  0.57717679  0.69451756  1
  O2-  O512  1  0.69233948  0.57765410  0.98725741  1
  O2-  O513  1  0.66736867  0.82973442  0.33061564  1
  O2-  O514  1  0.68356147  0.85827950  0.70762547  1
  O2-  O515  1  0.69896680  0.85219558  0.99155992  1
  O2-  O516  1  0.92550115  0.07101855  0.31044484  1
  O2-  O517  1  0.93188062  0.09158732  0.63351888  1
  O2-  O518  1  0.90369772  0.05330740  0.98857887  1
  O2-  O519  1  0.91985252  0.32794666  0.30669383  1
  O2-  O520  1  0.91421557  0.33489178  0.63835460  1
  O2-  O521  1  0.92116833  0.32095950  0.98606916  1
  O2-  O522  1  0.92193952  0.57411470  0.29905212  1
  O2-  O523  1  0.90970705  0.58034636  0.65544449  1
  O2-  O524  1  0.88624832  0.56462498  0.95382006  1
  O2-  O525  1  0.91625847  0.81276091  0.30902665  1
  O2-  O526  1  0.90538645  0.82850773  0.64941384  1
  O2-  O527  1  0.95786702  0.88102566  0.86032979  1
  O2-  O528  1  0.07705824  0.14650089  0.02706187  1
  O2-  O529  1  0.09303604  0.16199338  0.34802981  1
  O2-  O530  1  0.08577732  0.17064130  0.68022679  1
  O2-  O531  1  0.08797560  0.40515415  0.02249573  1
  O2-  O532  1  0.07867793  0.40980501  0.35645886  1
  O2-  O533  1  0.08054462  0.41462469  0.67671924  1
  O2-  O534  1  0.18039405  0.69567338  0.02462300  1
  O2-  O535  1  0.09525120  0.66415015  0.29229960  1
  O2-  O536  1  0.07773831  0.67768766  0.69142679  1
  O2-  O537  1  0.23320348  0.91872495  0.00889195  1
  O2-  O538  1  0.07146442  0.89276015  0.35524122  1
  O2-  O539  1  0.10494401  0.92252962  0.69279650  1
  O2-  O540  1  0.33210233  0.17760733  0.02155395  1
  O2-  O541  1  0.33464729  0.14415760  0.36140283  1
  O2-  O542  1  0.30149727  0.18153198  0.70938151  1
  O2-  O543  1  0.31867609  0.41844809  0.02193532  1
  O2-  O544  1  0.32985714  0.43034380  0.35705851  1
  O2-  O545  1  0.33782641  0.42287811  0.68541556  1
  O2-  O546  1  0.42223018  0.76002934  0.02614609  1
  O2-  O547  1  0.34402094  0.67939074  0.37913062  1
  O2-  O548  1  0.37897153  0.68861880  0.70629304  1
  O2-  O549  1  0.41267809  0.93904487  0.05137900  1
  O2-  O550  1  0.32634430  0.91285194  0.36537620  1
  O2-  O551  1  0.33704077  0.90961002  0.68738859  1
  O2-  O552  1  0.54024585  0.10514712  0.03141702  1
  O2-  O553  1  0.58368671  0.15759892  0.36218589  1
  O2-  O554  1  0.60726557  0.17709569  0.69106133  1
  O2-  O555  1  0.58885507  0.40957325  0.01865379  1
  O2-  O556  1  0.58553266  0.40417756  0.35564226  1
  O2-  O557  1  0.58350847  0.40399929  0.68189741  1
  O2-  O558  1  0.55572187  0.68879701  0.02645981  1
  O2-  O559  1  0.55464900  0.64565632  0.33352861  1
  O2-  O560  1  0.58706216  0.68322755  0.71600982  1
  O2-  O561  1  0.63181990  0.92858058  0.03559913  1
  O2-  O562  1  0.60269466  0.93390155  0.34289855  1
  O2-  O563  1  0.58468109  0.93033784  0.70843279  1
  O2-  O564  1  0.83566525  0.15516109  0.02440567  1
  O2-  O565  1  0.84722857  0.16239712  0.34828227  1
  O2-  O566  1  0.84407607  0.16248522  0.66718860  1
  O2-  O567  1  0.85001076  0.41718272  0.00798667  1
  O2-  O568  1  0.83515860  0.41018608  0.34907699  1
  O2-  O569  1  0.83756114  0.41368009  0.69000234  1
  O2-  O570  1  0.77891354  0.61492713  0.01410853  1
  O2-  O571  1  0.85797599  0.65944818  0.34365808  1
  O2-  O572  1  0.81072354  0.65499610  0.67011421  1
  O2-  O573  1  0.78586995  0.88293868  0.01717156  1
  O2-  O574  1  0.84346547  0.90964445  0.34908371  1
  O2-  O575  1  0.84483040  0.92887733  0.67235042  1
