# generated using pymatgen
data_H2O
_symmetry_space_group_name_H-M   'P 1'
_cell_length_a   17.99000055
_cell_length_b   17.98512958
_cell_length_c   21.98824315
_cell_angle_alpha   89.92745710
_cell_angle_beta   90.05100257
_cell_angle_gamma   120.02833085
_symmetry_Int_Tables_number   1
_chemical_formula_structural   H2O
_chemical_formula_sum   'H384 O192'
_cell_volume   6159.44369688
_cell_formula_units_Z   192
loop_
 _symmetry_equiv_pos_site_id
 _symmetry_equiv_pos_as_xyz
  1  'x, y, z'
loop_
 _atom_type_symbol
 _atom_type_oxidation_number
  H+  1.0
  O2-  -2.0
loop_
 _atom_site_type_symbol
 _atom_site_label
 _atom_site_symmetry_multiplicity
 _atom_site_fract_x
 _atom_site_fract_y
 _atom_site_fract_z
 _atom_site_occupancy
  H+  H0  1  0.21549420  0.36343392  0.65560665  1
  H+  H1  1  0.78535091  0.12344399  0.81411281  1
  H+  H2  1  0.05703721  0.71722895  0.35193446  1
  H+  H3  1  0.61165982  0.80373352  0.84395008  1
  H+  H4  1  0.88563366  0.52174141  0.83136407  1
  H+  H5  1  0.89061090  1.02321908  0.16328715  1
  H+  H6  1  0.09086925  0.87551588  0.00219751  1
  H+  H7  1  0.13566118  1.01961926  0.66939408  1
  H+  H8  1  0.24174590  0.12486450  0.17779040  1
  H+  H9  1  0.39278048  0.52370275  0.66313090  1
  H+  H10  1  0.53018496  0.89524647  0.16805118  1
  H+  H11  1  0.85205392  0.62590523  0.00386694  1
  H+  H12  1  0.71075718  0.85324059  -0.00346401  1
  H+  H13  1  0.82255441  0.65050546  0.06668657  1
  H+  H14  1  0.78310050  0.40289787  0.12735697  1
  H+  H15  1  0.26524024  0.12228246  0.49584522  1
  H+  H16  1  0.08588519  0.63555475  0.16344857  1
  H+  H17  1  0.36300249  0.62004492  0.85446581  1
  H+  H18  1  0.37204689  0.24298767  0.34658879  1
  H+  H19  1  0.59709688  0.20795065  0.34496185  1
  H+  H20  1  0.64485069  0.03071537  0.65909874  1
  H+  H21  1  0.64457186  1.01311308  0.17557822  1
  H+  H22  1  0.64002380  0.11817114  0.65171728  1
  H+  H23  1  0.61116442  0.47419772  0.16223992  1
  H+  H24  1  0.30989441  0.63110724  0.31898424  1
  H+  H25  1  0.88817313  0.28459032  0.99838740  1
  H+  H26  1  0.51806520  0.88775104  1.01653758  1
  H+  H27  1  0.39235817  0.86389788  0.67283079  1
  H+  H28  1  0.31250303  0.85699791  0.33705031  1
  H+  H29  1  0.65657784  0.85126459  0.90564495  1
  H+  H30  1  0.55335991  0.90470752  0.32727923  1
  H+  H31  1  0.13792072  0.58574289  0.23538445  1
  H+  H32  1  0.16607456  0.07423303  0.57241881  1
  H+  H33  1  0.18915141  0.84982965  0.33243095  1
  H+  H34  1  0.33699606  0.44602493  1.00607961  1
  H+  H35  1  0.45410510  0.08030587  0.50198115  1
  H+  H36  1  1.01368808  0.88070563  0.83597680  1
  H+  H37  1  0.19764360  0.82040720  0.19741711  1
  H+  H38  1  0.70446952  0.60103100  0.32376732  1
  H+  H39  1  0.62206774  0.63633836  0.15178684  1
  H+  H40  1  0.48196041  0.88433945  0.84171628  1
  H+  H41  1  0.56862673  0.68828941  0.79266444  1
  H+  H42  1  0.10150466  0.75259014  0.17780379  1
  H+  H43  1  0.24457559  0.85627588  0.49323749  1
  H+  H44  1  0.92193368  0.95381883  0.38022682  1
  H+  H45  1  0.02827755  0.62847071  0.86140301  1
  H+  H46  1  0.59851871  0.71466112  -0.00099004  1
  H+  H47  1  0.10556771  0.39341183  0.65638460  1
  H+  H48  1  0.88167178  0.53044056  0.64474243  1
  H+  H49  1  0.53417762  0.89974380  0.67446434  1
  H+  H50  1  0.78038139  0.14527626  0.66509037  1
  H+  H51  1  0.86520747  0.62951870  0.81522157  1
  H+  H52  1  0.10389486  0.88342955  0.83954522  1
  H+  H53  1  0.12619819  0.37119336  0.33640123  1
  H+  H54  1  0.07730117  0.86415617  0.34627831  1
  H+  H55  1  0.88821143  0.52700122  -0.01375482  1
  H+  H56  1  0.85802483  0.61888861  0.16012871  1
  H+  H57  1  0.65535689  0.56961848  0.46791468  1
  H+  H58  1  0.06115335  0.54529357  0.31371701  1
  H+  H59  1  0.85503766  0.88776448  0.67536803  1
  H+  H60  1  0.90662639  0.37053700  0.49356270  1
  H+  H61  1  0.15751777  0.03433167  0.17428380  1
  H+  H62  1  0.81136740  0.43094391  0.52413226  1
  H+  H63  1  0.10520486  0.57545233  0.32636747  1
  H+  H64  1  0.61483319  0.04277015  0.84492157  1
  H+  H65  1  0.88006280  0.39852080  0.99677519  1
  H+  H66  1  0.71225831  0.84923744  0.50540288  1
  H+  H67  1  0.36185587  0.99519782  0.50535376  1
  H+  H68  1  0.25233385  0.65256151  1.02232512  1
  H+  H69  1  0.96984513  0.62206298  0.98898072  1
  H+  H70  1  0.86740695  0.49085640  0.15686981  1
  H+  H71  1  0.10149355  0.72801121  0.64189928  1
  H+  H72  1  0.37679280  0.37350179  0.74353722  1
  H+  H73  1  0.12154079  0.35072785  0.18401790  1
  H+  H74  1  0.20714317  0.35246786  0.85784435  1
  H+  H75  1  0.72797186  0.60614613  0.16873275  1
  H+  H76  1  0.66260586  0.58285113  0.22602122  1
  H+  H77  1  0.94916152  0.13998152  0.90580088  1
  H+  H78  1  0.38444158  0.10049413  0.66183506  1
  H+  H79  1  0.93792007  0.81436146  0.33806486  1
  H+  H80  1  0.18663811  0.02254918  0.31505396  1
  H+  H81  1  0.67466105  0.68831063  0.78158607  1
  H+  H82  1  0.27518947  0.12665849  0.67977133  1
  H+  H83  1  0.62510660  0.85990223  1.00135250  1
  H+  H84  1  0.97116343  0.10019321  0.50606931  1
  H+  H85  1  0.76037040  0.87834370  0.82947606  1
  H+  H86  1  0.35902580  0.45984148  0.49506305  1
  H+  H87  1  0.22467736  0.34437863  0.50654002  1
  H+  H88  1  0.57202535  0.17333973  0.75208862  1
  H+  H89  1  0.88780622  0.02375914  0.31700029  1
  H+  H90  1  0.51951722  0.39096711  0.81644268  1
  H+  H91  1  0.47859056  0.11179304  0.17320047  1
  H+  H92  1  0.59487470  0.22222564  0.16644512  1
  H+  H93  1  0.60652534  0.13774723  0.01938364  1
  H+  H94  1  0.96632237  0.36596317  0.81433192  1
  H+  H95  1  0.61894103  0.91982264  0.83306489  1
  H+  H96  1  0.61469725  0.12918867  0.33917642  1
  H+  H97  1  0.37818903  0.02267952  0.96080825  1
  H+  H98  1  0.84484803  0.87529778  0.50489924  1
  H+  H99  1  0.79481888  0.32175329  0.35914961  1
  H+  H100  1  0.22756577  0.86119530  0.66588154  1
  H+  H101  1  0.12462720  0.26059288  0.84525025  1
  H+  H102  1  0.61557523  0.08445238  0.50641342  1
  H+  H103  1  0.38826058  0.87368273  -0.00783924  1
  H+  H104  1  0.36222272  0.89445566  0.83659032  1
  H+  H105  1  0.39370584  0.79268540  0.84378377  1
  H+  H106  1  0.14163004  0.89807231  0.15263573  1
  H+  H107  1  0.97021322  0.86395782  0.67254724  1
  H+  H108  1  0.47032791  0.35714855  0.33925236  1
  H+  H109  1  0.10692981  0.88509319  0.68779778  1
  H+  H110  1  0.08663282  0.15783986  0.76870010  1
  H+  H111  1  0.10714005  0.47916550  0.16686987  1
  H+  H112  1  0.83216706  0.42763999  0.71661656  1
  H+  H113  1  0.15497876  0.47026866  0.33466662  1
  H+  H114  1  0.37230032  0.56415954  0.30547093  1
  H+  H115  1  0.88044472  0.27605892  0.81693873  1
  H+  H116  1  0.63530781  0.36917686  0.82688426  1
  H+  H117  1  0.61419567  0.51767334  0.31660739  1
  H+  H118  1  0.01597115  0.39228214  0.65843765  1
  H+  H119  1  0.13412955  0.10325682  0.51254537  1
  H+  H120  1  0.98061426  0.10525115  0.32043417  1
  H+  H121  1  0.85651838  0.70974516  0.15964067  1
  H+  H122  1  0.88202030  0.14708434  0.82542481  1
  H+  H123  1  0.33186150  0.91546049  0.74156501  1
  H+  H124  1  0.45691991  0.58441062  1.00088510  1
  H+  H125  1  0.52564621  0.13338087  0.65939526  1
  H+  H126  1  0.27417906  0.65199972  0.82062203  1
  H+  H127  1  0.11635887  0.52758092  0.63627024  1
  H+  H128  1  0.11008913  0.38606211  1.01391600  1
  H+  H129  1  0.12074115  0.52104562  1.00062444  1
  H+  H130  1  0.50295765  0.86934563  0.50884890  1
  H+  H131  1  0.65936659  1.03259196  0.32244881  1
  H+  H132  1  0.82965085  0.17005605  0.06827256  1
  H+  H133  1  0.85540011  0.38970372  0.80550183  1
  H+  H134  1  0.43938713  0.71229875  0.37009143  1
  H+  H135  1  0.84985764  0.95003876  -0.00020717  1
  H+  H136  1  0.85413351  0.72598706  0.67027022  1
  H+  H137  1  0.70557015  0.35769935  0.19784966  1
  H+  H138  1  0.70256624  0.35011664  0.33795421  1
  H+  H139  1  0.12963847  1.02386340  0.85823547  1
  H+  H140  1  0.11746448  0.62985674  0.85681894  1
  H+  H141  1  0.87726635  0.14656225  0.32714689  1
  H+  H142  1  0.72888611  0.86264943  0.17063784  1
  H+  H143  1  0.61245081  0.47587708  0.81871984  1
  H+  H144  1  0.35951264  0.23230613  0.83476907  1
  H+  H145  1  0.74354493  0.12809842  0.32086158  1
  H+  H146  1  0.27969096  0.14025729  0.34185533  1
  H+  H147  1  0.86304785  0.22654894  0.16366311  1
  H+  H148  1  0.48446749  0.59963502  0.16377665  1
  H+  H149  1  0.87065450  0.84375272  0.83645124  1
  H+  H150  1  -0.01144483  0.62554616  0.16555168  1
  H+  H151  1  0.36403127  0.97004602  0.67962806  1
  H+  H152  1  0.24046898  0.64927252  0.70639972  1
  H+  H153  1  0.46416972  0.07733697  0.32683341  1
  H+  H154  1  0.37851047  0.99270602  0.15123056  1
  H+  H155  1  0.67156982  0.82375105  0.26261855  1
  H+  H156  1  0.37399615  0.22805535  0.16791378  1
  H+  H157  1  0.86069907  0.88185615  0.16088251  1
  H+  H158  1  0.22003487  0.33551497  0.32940194  1
  H+  H159  1  0.36571569  0.84380662  0.51400816  1
  H+  H160  1  0.29435921  0.90378515  0.13331069  1
  H+  H161  1  0.11403754  0.13018588  0.83278511  1
  H+  H162  1  0.48741611  0.60397927  0.65471028  1
  H+  H163  1  0.62087767  0.63195683  0.64578502  1
  H+  H164  1  0.48100943  0.35151367  0.65085679  1
  H+  H165  1  0.96521774  0.84852496  0.18990066  1
  H+  H166  1  0.11062382  0.85576179  0.50713458  1
  H+  H167  1  0.48175364  0.36040263  0.17992169  1
  H+  H168  1  0.96454268  0.86950571  0.51818420  1
  H+  H169  1  0.88682976  0.28084175  0.65086206  1
  H+  H170  1  0.84482194  0.73009058  0.33694695  1
  H+  H171  1  0.13517660  0.76844918  0.86347517  1
  H+  H172  1  0.13983684  0.51144558  0.82548431  1
  H+  H173  1  0.72967988  0.59483109  0.83932619  1
  H+  H174  1  0.36464258  0.34548455  0.99305528  1
  H+  H175  1  0.74710386  0.58138669  0.39937196  1
  H+  H176  1  0.63378202  0.35748077  0.64838742  1
  H+  H177  1  0.06047316  0.90677623  0.05803796  1
  H+  H178  1  1.03836059  0.21912036  0.99606560  1
  H+  H179  1  0.89533491  0.56822071  0.22533975  1
  H+  H180  1  0.62792266  0.60214298  0.98808933  1
  H+  H181  1  0.73930922  0.35907979  0.97953881  1
  H+  H182  1  0.21732424  0.11190000  0.85902050  1
  H+  H183  1  0.34914900  0.97544880  0.83977401  1
  H+  H184  1  0.72430086  0.86337012  0.65509779  1
  H+  H185  1  0.30779059  0.67462646  0.12162425  1
  H+  H186  1  0.73078109  0.85109124  0.32174556  1
  H+  H187  1  0.13860996  0.10953792  0.66322149  1
  H+  H188  1  0.17148684  0.85068177  0.60628844  1
  H+  H189  1  0.87836539  0.61872316  0.64748557  1
  H+  H190  1  0.59247763  0.19100671  0.49376321  1
  H+  H191  1  0.98173936  0.11978789  1.01011766  1
  H+  H192  1  0.22609588  0.10900774  0.02869637  1
  H+  H193  1  0.06286849  0.67299863  0.07342646  1
  H+  H194  1  0.59691410  0.46834593  0.01445926  1
  H+  H195  1  0.18729155  0.97283417  0.10323019  1
  H+  H196  1  0.86881873  0.14179631  0.48737446  1
  H+  H197  1  0.11124365  0.20473256  0.34128560  1
  H+  H198  1  0.13443920  0.78071428  0.00191213  1
  H+  H199  1  0.61424513  0.22620571  0.65741415  1
  H+  H200  1  1.02044721  0.38932247  0.16167426  1
  H+  H201  1  0.12766125  0.81837878  0.27328487  1
  H+  H202  1  0.60762509  0.98421467  0.51286886  1
  H+  H203  1  0.72132695  0.11019865  0.99739789  1
  H+  H204  1  0.36828935  0.46373871  0.14959826  1
  H+  H205  1  0.10882464  0.22129752  0.67010784  1
  H+  H206  1  0.98173289  0.52805501  0.45980968  1
  H+  H207  1  0.57341488  0.17042797  0.10337206  1
  H+  H208  1  0.37489285  0.34914410  0.33837102  1
  H+  H209  1  0.36120286  0.37067583  0.49398201  1
  H+  H210  1  0.63936436  0.86177593  0.17421010  1
  H+  H211  1  0.86086351  0.74981433  -0.00652388  1
  H+  H212  1  0.19682080  0.33252209  1.00412264  1
  H+  H213  1  0.86996777  0.13921863  0.15969737  1
  H+  H214  1  0.88278313  0.36410419  0.16821223  1
  H+  H215  1  0.91463357  0.37705838  0.32403821  1
  H+  H216  1  0.46758905  0.59121400  0.33093525  1
  H+  H217  1  0.86914725  0.64046650  0.50484664  1
  H+  H218  1  0.27252081  0.89669798  -0.00094206  1
  H+  H219  1  0.61647717  0.22845238  0.00871783  1
  H+  H220  1  0.67613445  0.14415268  0.85397314  1
  H+  H221  1  0.09577791  0.63003260  0.62777147  1
  H+  H222  1  0.10972991  0.20923838  0.49484963  1
  H+  H223  1  0.63604698  0.64315290  0.78335363  1
  H+  H224  1  0.27124321  0.62191696  0.48770286  1
  H+  H225  1  0.40045836  0.88343318  0.17007039  1
  H+  H226  1  0.20797129  0.62557271  0.18212739  1
  H+  H227  1  0.56156082  0.13958251  0.82001621  1
  H+  H228  1  0.72519275  0.61661867  0.63432133  1
  H+  H229  1  0.60875971  0.47466679  0.65610150  1
  H+  H230  1  0.41429441  0.81340070  0.34556683  1
  H+  H231  1  0.60565571  0.63100223  0.34343706  1
  H+  H232  1  0.10187941  0.37813278  0.81002314  1
  H+  H233  1  0.76758305  0.39256897  0.80880745  1
  H+  H234  1  0.85778893  0.49685443  0.32223332  1
  H+  H235  1  0.98860650  0.12987549  0.84430606  1
  H+  H236  1  0.62079023  0.72984310  0.49919517  1
  H+  H237  1  0.35807558  0.45117856  0.34308200  1
  H+  H238  1  0.44360573  0.91461777  0.34552902  1
  H+  H239  1  0.85803821  0.71448900  0.81756182  1
  H+  H240  1  0.13342358  0.13117582  -0.01516816  1
  H+  H241  1  0.92920652  0.59573610  0.33257329  1
  H+  H242  1  0.34451237  0.48536611  0.84905560  1
  H+  H243  1  0.88954336  0.11697737  0.65749269  1
  H+  H244  1  0.86259095  0.39711694  0.65770528  1
  H+  H245  1  0.41684030  0.66227775  0.68799945  1
  H+  H246  1  1.03264894  0.13093330  0.14348769  1
  H+  H247  1  0.87717201  0.16228890  1.01046163  1
  H+  H248  1  0.38639190  0.10718171  0.17918266  1
  H+  H249  1  1.02189468  0.13136299  0.67074551  1
  H+  H250  1  0.11192580  0.11616193  0.34064521  1
  H+  H251  1  0.88701721  0.77641926  0.51600473  1
  H+  H252  1  0.89330750  0.27341663  0.49630375  1
  H+  H253  1  0.24738365  0.61156275  0.70417101  1
  H+  H254  1  0.84631127  0.40868423  0.40211134  1
  H+  H255  1  1.02652173  0.36993589  0.48609749  1
  H+  H256  1  0.36729921  0.21079299  0.67476351  1
  H+  H257  1  0.36828846  0.11369785  0.86802432  1
  H+  H258  1  0.62103812  0.36392815  0.18231062  1
  H+  H259  1  0.45003977  0.62406062  0.85155777  1
  H+  H260  1  0.61131731  0.72198145  0.34507551  1
  H+  H261  1  0.50683409  0.38160384  0.01623170  1
  H+  H262  1  0.38660884  0.33742188  0.65221371  1
  H+  H263  1  0.05732212  0.94141734  0.34212629  1
  H+  H264  1  0.60921050  0.97537205  0.01556818  1
  H+  H265  1  0.10464609  0.97457307  0.50082459  1
  H+  H266  1  0.98109254  0.36874357  1.00191693  1
  H+  H267  1  -0.05013272  0.84024866  -0.00868472  1
  H+  H268  1  0.34434430  0.73677980  0.02277942  1
  H+  H269  1  0.88542994  0.23951131  0.32826377  1
  H+  H270  1  0.34464720  0.73512471  0.17871339  1
  H+  H271  1  0.74264513  0.11055513  0.17414004  1
  H+  H272  1  0.38021174  0.37193442  0.85044632  1
  H+  H273  1  0.58563202  0.92068624  0.10618258  1
  H+  H274  1  0.38313794  0.26259173  0.49855273  1
  H+  H275  1  0.03033901  0.63751159  0.39778494  1
  H+  H276  1  0.21962439  0.85977267  0.84835637  1
  H+  H277  1  0.12553427  0.57278185  0.47838387  1
  H+  H278  1  0.92645626  0.08418651  0.22111923  1
  H+  H279  1  0.59885228  0.38264308  0.34512662  1
  H+  H280  1  0.12731661  0.26558458  0.17345102  1
  H+  H281  1  0.81855374  0.59056672  0.34870696  1
  H+  H282  1  0.35149275  0.11612810  0.49235299  1
  H+  H283  1  0.09826406  0.64152083  0.01853444  1
  H+  H284  1  0.36248020  0.37351594  0.15433965  1
  H+  H285  1  0.61868505  0.72379924  0.15398758  1
  H+  H286  1  -0.00559960  0.63420030  0.63448460  1
  H+  H287  1  0.42849617  0.75708884  0.69206097  1
  H+  H288  1  0.07782994  0.91643381  0.74685292  1
  H+  H289  1  0.34554694  0.16521016  0.10966054  1
  H+  H290  1  0.57325497  0.40992777  0.10431654  1
  H+  H291  1  0.37308114  0.75914356  0.51800333  1
  H+  H292  1  0.84861964  0.17524648  0.42598114  1
  H+  H293  1  0.60531826  0.65468632  0.71151316  1
  H+  H294  1  0.43296644  0.55631951  0.22388546  1
  H+  H295  1  0.89398896  0.80777029  0.24095788  1
  H+  H296  1  0.67705300  0.32636407  0.92220936  1
  H+  H297  1  0.35790817  0.68912775  0.77644593  1
  H+  H298  1  0.85478311  0.97664548  0.67266453  1
  H+  H299  1  0.91500697  0.08035969  0.60023700  1
  H+  H300  1  0.33076751  0.16419784  0.40878689  1
  H+  H301  1  0.47712595  0.59818660  0.50665277  1
  H+  H302  1  0.84541166  0.85938316  0.00293829  1
  H+  H303  1  0.87713004  0.01675962  0.50864223  1
  H+  H304  1  0.33611345  0.95421704  0.33763938  1
  H+  H305  1  0.63639227  0.89545260  0.32814289  1
  H+  H306  1  0.02685712  0.73507470  0.47572186  1
  H+  H307  1  0.14030568  0.31423726  0.94427490  1
  H+  H308  1  1.00463706  0.37789521  0.31925889  1
  H+  H309  1  0.12416042  0.58485180  0.94721352  1
  H+  H310  1  0.08343183  0.41850286  0.74880488  1
  H+  H311  1  0.36444188  0.69452884  0.41570151  1
  H+  H312  1  0.64002711  0.32218686  0.28050189  1
  H+  H313  1  0.81999514  0.90326480  0.44279602  1
  H+  H314  1  0.66833952  0.56366095  0.89903855  1
  H+  H315  1  0.41521534  0.83184986  0.61126386  1
  H+  H316  1  0.37734972  0.26357140  0.99126250  1
  H+  H317  1  0.65532229  0.06688730  0.57071082  1
  H+  H318  1  0.18433203  0.08329773  0.26277194  1
  H+  H319  1  0.68020897  0.08238313  0.23859686  1
  H+  H320  1  0.67651663  0.49079474  0.47547327  1
  H+  H321  1  0.66667594  0.60478008  0.57363711  1
  H+  H322  1  0.30320427  0.88926235  0.43480772  1
  H+  H323  1  0.07998873  0.14693646  0.43639865  1
  H+  H324  1  0.28398336  0.30407020  0.72970874  1
  H+  H325  1  0.85419323  0.43342937  0.05459238  1
  H+  H326  1  0.58141659  0.65957681  0.05888789  1
  H+  H327  1  0.31582503  0.38885085  0.06538607  1
  H+  H328  1  0.14399069  0.49759418  0.49183210  1
  H+  H329  1  0.09003741  0.39795132  0.42718344  1
  H+  H330  1  0.39234118  0.56732517  0.94799816  1
  H+  H331  1  0.42451063  0.86203499  0.23580695  1
  H+  H332  1  0.30869969  0.42213991  0.79249599  1
  H+  H333  1  0.81500011  0.90104464  0.76857946  1
  H+  H334  1  0.42295541  0.84025685  0.94002248  1
  H+  H335  1  0.58188167  0.42261643  0.72001730  1
  H+  H336  1  0.64834774  0.08161667  0.94591604  1
  H+  H337  1  0.32406942  0.39582200  0.40545873  1
  H+  H338  1  0.91288481  0.83727053  0.61130377  1
  H+  H339  1  0.63711134  0.77187065  0.65430284  1
  H+  H340  1  0.89658877  0.81131155  0.89604629  1
  H+  H341  1  0.59543683  0.66480164  0.43412483  1
  H+  H342  1  0.91705830  0.33650242  0.58931737  1
  H+  H343  1  0.13447397  0.34206413  0.50170077  1
  H+  H344  1  0.16165537  0.32570995  0.59459830  1
  H+  H345  1  0.36337980  0.62778573  0.49719068  1
  H+  H346  1  0.08515906  0.69831673  0.77142464  1
  H+  H347  1  0.91987452  0.34006974  0.22764884  1
  H+  H348  1  0.08812639  0.42220034  0.07400455  1
  H+  H349  1  0.41772718  0.57253396  0.56481786  1
  H+  H350  1  0.40991933  0.05252705  0.26507333  1
  H+  H351  1  0.14918614  0.57486016  0.57164325  1
  H+  H352  1  0.29178772  0.59954935  0.25094351  1
  H+  H353  1  0.86287089  0.86691450  0.34774346  1
  H+  H354  1  0.06087925  0.91064187  0.44268714  1
  H+  H355  1  0.13258579  0.15220581  0.05597898  1
  H+  H356  1  0.12248621  0.13715043  0.15571110  1
  H+  H357  1  0.59383419  0.44715523  0.39302843  1
  H+  H358  1  0.85811777  0.67029631  0.44027411  1
  H+  H359  1  0.06917947  0.69392706  0.73931324  1
  H+  H360  1  0.33306242  0.16311761  0.78141016  1
  H+  H361  1  0.42003429  0.32230485  0.55552194  1
  H+  H362  1  0.16386991  0.83900656  0.94168536  1
  H+  H363  1  0.57081157  0.13941298  0.43112189  1
  H+  H364  1  0.62917677  0.27946493  0.82166216  1
  H+  H365  1  0.62010777  0.89476146  0.67313922  1
  H+  H366  1  0.90686471  0.57848341  0.89314146  1
  H+  H367  1  0.83144913  0.90658829  0.09856260  1
  H+  H368  1  0.04336781  0.62345733  0.48711643  1
  H+  H369  1  0.40412082  0.06509273  0.60019288  1
  H+  H370  1  0.50194643  0.71727418  0.77115580  1
  H+  H371  1  0.59276932  0.86820949  0.50303961  1
  H+  H372  1  0.71469482  0.59855869  0.99497406  1
  H+  H373  1  0.59221528  0.94238691  0.76896954  1
  H+  H374  1  0.41424643  0.33476430  0.90104559  1
  H+  H375  1  0.81972725  0.65500433  0.72219714  1
  H+  H376  1  0.19519697  0.55173402  0.88489570  1
  H+  H377  1  0.65485108  0.81781801  0.56612520  1
  H+  H378  1  0.15295651  0.30576441  0.27155862  1
  H+  H379  1  0.72348335  0.36194844  0.64904339  1
  H+  H380  1  0.34971007  0.94284243  0.04688625  1
  H+  H381  1  0.84212182  0.17311862  0.72352171  1
  H+  H382  1  0.41872748  0.32752814  0.23842303  1
  H+  H383  1  0.37401355  0.13191257  -0.00487569  1
  O2-  O384  1  0.09363462  0.16099661  0.13026932  1
  O2-  O385  1  0.07865050  0.14743587  0.48172704  1
  O2-  O386  1  0.08646237  0.16208745  0.81362226  1
  O2-  O387  1  0.08301033  0.41921867  0.15202667  1
  O2-  O388  1  0.08810948  0.39370731  0.47239651  1
  O2-  O389  1  0.08287572  0.41767207  0.79459773  1
  O2-  O390  1  0.05484710  0.66606814  0.15116242  1
  O2-  O391  1  0.06001944  0.73008408  0.50990295  1
  O2-  O392  1  0.08916865  0.65866230  0.87586323  1
  O2-  O393  1  0.13866800  0.94571942  0.13150790  1
  O2-  O394  1  0.06679042  0.91289443  0.48766883  1
  O2-  O395  1  0.07573789  0.91548879  0.82404879  1
  O2-  O396  1  0.34060921  0.16584547  0.15432064  1
  O2-  O397  1  0.32443011  0.14997663  0.47762418  1
  O2-  O398  1  0.32962612  0.16933642  0.82594982  1
  O2-  O399  1  0.33361674  0.40242079  0.13622240  1
  O2-  O400  1  0.32701996  0.39948807  0.48062452  1
  O2-  O401  1  0.31635979  0.42287489  0.83656223  1
  O2-  O402  1  0.30584839  0.67444154  0.16757759  1
  O2-  O403  1  0.33558977  0.66083500  0.48316500  1
  O2-  O404  1  0.33769551  0.68855053  0.81870480  1
  O2-  O405  1  0.35631049  0.93517788  0.12798854  1
  O2-  O406  1  0.30545555  0.88741664  0.48010683  1
  O2-  O407  1  0.32607133  0.91811899  0.82025420  1
  O2-  O408  1  0.56795613  0.16385173  0.14949547  1
  O2-  O409  1  0.56531394  0.13284262  0.47731998  1
  O2-  O410  1  0.55885906  0.18276612  0.79425699  1
  O2-  O411  1  0.57973772  0.41164015  0.15135782  1
  O2-  O412  1  0.66237419  0.52089085  0.44466744  1
  O2-  O413  1  0.57653139  0.41854023  0.79664875  1
  O2-  O414  1  0.59087257  0.66551825  0.13600145  1
  O2-  O415  1  0.59473328  0.66335636  0.48209255  1
  O2-  O416  1  0.53265023  0.71111465  0.80718678  1
  O2-  O417  1  0.59080366  0.92249733  0.15246787  1
  O2-  O418  1  0.56405037  0.90195535  0.49414772  1
  O2-  O419  1  0.58715051  0.94676864  0.81375931  1
  O2-  O420  1  0.83304872  0.16491816  0.14958729  1
  O2-  O421  1  0.84550362  0.17721735  0.47076927  1
  O2-  O422  1  0.84343235  0.16403499  0.80098982  1
  O2-  O423  1  0.84318733  0.42622532  0.13788908  1
  O2-  O424  1  0.88705101  0.44215378  0.45740705  1
  O2-  O425  1  0.82826517  0.42491264  0.79318105  1
  O2-  O426  1  0.82587077  0.65062296  0.14387985  1
  O2-  O427  1  0.88828442  0.69149060  0.47957062  1
  O2-  O428  1  0.83050995  0.65530276  0.79976252  1
  O2-  O429  1  0.83376359  0.91393227  0.14382173  1
  O2-  O430  1  0.81315340  0.90366055  0.48741663  1
  O2-  O431  1  0.81622831  0.89041650  0.81255890  1
  O2-  O432  1  0.18045457  0.09211579  0.19348524  1
  O2-  O433  1  0.16534479  0.07307846  0.52664941  1
  O2-  O434  1  0.15649154  0.08465236  0.87167852  1
  O2-  O435  1  0.13567641  0.30970170  0.20354397  1
  O2-  O436  1  0.16350157  0.31245784  0.52112629  1
  O2-  O437  1  0.14398267  0.31869295  0.86341624  1
  O2-  O438  1  0.14364015  0.58724234  0.19119349  1
  O2-  O439  1  0.16857206  0.56086915  0.49884949  1
  O2-  O440  1  0.17571560  0.56756630  0.84827175  1
  O2-  O441  1  0.14094099  0.81495029  0.19608158  1
  O2-  O442  1  0.13468726  0.81690735  0.51812498  1
  O2-  O443  1  0.16050254  0.83229641  0.86576965  1
  O2-  O444  1  0.41567032  0.07397705  0.18938385  1
  O2-  O445  1  0.39518096  0.05654567  0.51851517  1
  O2-  O446  1  0.38620964  0.07091589  0.87961202  1
  O2-  O447  1  0.42013220  0.32481945  0.19371900  1
  O2-  O448  1  0.41318219  0.32373569  0.51079760  1
  O2-  O449  1  0.41197563  0.34041142  0.85535519  1
  O2-  O450  1  0.42576608  0.56349144  0.18040668  1
  O2-  O451  1  0.41664712  0.57150540  0.51942474  1
  O2-  O452  1  0.39136160  0.58692908  0.86771899  1
  O2-  O453  1  0.42564199  0.85222719  0.19175049  1
  O2-  O454  1  0.40022809  0.82002636  0.53225083  1
  O2-  O455  1  0.42344045  0.85240741  0.86014740  1
  O2-  O456  1  0.68083796  0.07602975  0.19166178  1
  O2-  O457  1  0.64393992  0.05329352  0.52448041  1
  O2-  O458  1  0.62459112  0.09416171  0.86927027  1
  O2-  O459  1  0.64397408  0.32919605  0.20511974  1
  O2-  O460  1  0.82709248  0.46540192  0.48699073  1
  O2-  O461  1  0.66680837  0.33896613  0.83838073  1
  O2-  O462  1  0.66545707  0.57954199  0.18105362  1
  O2-  O463  1  0.66057847  0.64069373  0.50162526  1
  O2-  O464  1  0.66947973  0.56147362  0.85377690  1
  O2-  O465  1  0.66942246  0.83066021  0.18783660  1
  O2-  O466  1  0.65047317  0.81289259  0.51985058  1
  O2-  O467  1  0.65729010  0.85949468  0.86029534  1
  O2-  O468  1  0.92360782  0.08485638  0.17587322  1
  O2-  O469  1  0.91152353  0.07767841  0.52154005  1
  O2-  O470  1  0.93369082  0.11748696  0.86417722  1
  O2-  O471  1  0.91133869  0.33168237  0.18281188  1
  O2-  O472  1  0.92848193  0.33441985  0.51285541  1
  O2-  O473  1  0.90490107  0.33795566  0.82483163  1
  O2-  O474  1  0.90203186  0.57317651  0.18083914  1
  O2-  O475  1  1.04139074  0.58128090  0.45752024  1
  O2-  O476  1  0.91736622  0.58158850  0.84824817  1
  O2-  O477  1  0.90340516  0.82013803  0.19644933  1
  O2-  O478  1  0.90385088  0.83456977  0.53251743  1
  O2-  O479  1  0.90453992  0.81631923  0.85107598  1
  O2-  O480  1  0.18471558  0.07538854  0.30956958  1
  O2-  O481  1  0.16891754  0.07810156  0.65058334  1
  O2-  O482  1  0.26362512  0.08176649  1.03434085  1
  O2-  O483  1  0.15796905  0.30420502  0.31806801  1
  O2-  O484  1  0.15692338  0.33048211  0.64030880  1
  O2-  O485  1  0.13637893  0.31208081  0.98954294  1
  O2-  O486  1  0.28423419  0.57898165  0.29321563  1
  O2-  O487  1  0.13890654  0.58371156  0.61505689  1
  O2-  O488  1  0.14394725  0.58288692  0.98827121  1
  O2-  O489  1  0.12786808  0.82258027  0.31871940  1
  O2-  O490  1  0.16741109  0.83724717  0.64995924  1
  O2-  O491  1  0.16551519  0.84177399  0.98746585  1
  O2-  O492  1  0.40666140  0.03899556  0.30959839  1
  O2-  O493  1  0.41392887  0.07031535  0.64489142  1
  O2-  O494  1  0.40616204  0.08326241  0.94447201  1
  O2-  O495  1  0.40896851  0.32003572  0.32446104  1
  O2-  O496  1  0.42007581  0.31217053  0.63642797  1
  O2-  O497  1  0.40290754  0.32329579  0.97675095  1
  O2-  O498  1  0.41614842  0.54591794  0.31021421  1
  O2-  O499  1  0.42472690  0.57999248  0.64391273  1
  O2-  O500  1  0.39517931  0.55162155  0.99051007  1
  O2-  O501  1  0.43352950  0.86621098  0.31981371  1
  O2-  O502  1  0.42832022  0.84055112  0.65565093  1
  O2-  O503  1  0.41850224  0.84050004  0.98520151  1
  O2-  O504  1  0.68195254  0.09384089  0.30729627  1
  O2-  O505  1  0.67219620  0.08786068  0.63780279  1
  O2-  O506  1  0.65848031  0.07562299  0.98968543  1
  O2-  O507  1  0.64104857  0.31929451  0.32635464  1
  O2-  O508  1  0.66295405  0.32609765  0.63505516  1
  O2-  O509  1  0.68056444  0.31722039  0.96619848  1
  O2-  O510  1  0.64654338  0.57997958  0.30530352  1
  O2-  O511  1  0.66538305  0.58777785  0.61740793  1
  O2-  O512  1  0.65576717  0.56785186  0.97706131  1
  O2-  O513  1  0.67086230  0.82222050  0.30882575  1
  O2-  O514  1  0.66289749  0.83191468  0.63924587  1
  O2-  O515  1  0.65150215  0.82922994  0.98033874  1
  O2-  O516  1  0.92221670  0.08296633  0.30182309  1
  O2-  O517  1  0.91659150  0.08202611  0.64576711  1
  O2-  O518  1  0.97958256  0.16747647  0.99095762  1
  O2-  O519  1  0.94355049  0.34827316  0.30516878  1
  O2-  O520  1  0.91499025  0.34087324  0.63477154  1
  O2-  O521  1  0.92337750  0.34373555  0.98284767  1
  O2-  O522  1  0.87311228  0.55567955  0.31134799  1
  O2-  O523  1  0.90869333  0.59074441  0.62812926  1
  O2-  O524  1  0.91081570  0.58838400  0.97173724  1
  O2-  O525  1  0.87904757  0.78916588  0.32030823  1
  O2-  O526  1  0.91003643  0.83502779  0.65668260  1
  O2-  O527  1  0.88829571  0.81029756  0.97676415  1
  O2-  O528  1  0.16819173  0.15212268  0.02150270  1
  O2-  O529  1  0.07867922  0.14247421  0.35545684  1
  O2-  O530  1  0.08312664  0.16140077  0.68519501  1
  O2-  O531  1  0.08629071  0.42276982  0.02851268  1
  O2-  O532  1  0.10778248  0.41438135  0.34796817  1
  O2-  O533  1  0.07800016  0.42550121  0.67201653  1
  O2-  O534  1  0.07077124  0.67634154  0.02819421  1
  O2-  O535  1  0.00844999  0.66874733  0.37278528  1
  O2-  O536  1  0.06428664  0.66411302  0.64081311  1
  O2-  O537  1  0.04973513  0.89469906  0.01451697  1
  O2-  O538  1  0.04072813  0.88808751  0.36400117  1
  O2-  O539  1  0.07716537  0.91618253  0.70086154  1
  O2-  O540  1  0.35001601  0.15639554  0.02540610  1
  O2-  O541  1  0.33737550  0.17357576  0.36225636  1
  O2-  O542  1  0.33548269  0.15373106  0.69511836  1
  O2-  O543  1  0.30584289  0.38399508  0.01937575  1
  O2-  O544  1  0.32319642  0.39112562  0.35962448  1
  O2-  O545  1  0.32776808  0.36210778  0.71775255  1
  O2-  O546  1  0.30533174  0.68469135  0.04625712  1
  O2-  O547  1  0.38685648  0.71538315  0.37263882  1
  O2-  O548  1  0.42878705  0.70982982  0.71623047  1
  O2-  O549  1  0.33701200  0.93199055  0.00278680  1
  O2-  O550  1  0.29346705  0.89442509  0.35522411  1
  O2-  O551  1  0.33288993  0.91006377  0.69615840  1
  O2-  O552  1  0.58136665  0.17323166  0.03122889  1
  O2-  O553  1  0.57533859  0.14713476  0.35769471  1
  O2-  O554  1  0.58696380  0.16445480  0.67236015  1
  O2-  O555  1  0.56396016  0.41221738  0.03586638  1
  O2-  O556  1  0.57070469  0.41781519  0.35312847  1
  O2-  O557  1  0.57963847  0.41675403  0.67429798  1
  O2-  O558  1  0.57506429  0.65481608  0.01358937  1
  O2-  O559  1  0.58135727  0.66404213  0.36488225  1
  O2-  O560  1  0.59075863  0.65953993  0.66925808  1
  O2-  O561  1  0.57862662  0.91513204  0.03258849  1
  O2-  O562  1  0.61384720  0.93370495  0.33998589  1
  O2-  O563  1  0.59544027  0.92988767  0.68855911  1
  O2-  O564  1  0.82969089  0.17162500  0.02310106  1
  O2-  O565  1  0.84896299  0.17866962  0.34171747  1
  O2-  O566  1  0.84167654  0.17596334  0.67804940  1
  O2-  O567  1  0.84938115  0.43093228  0.00972731  1
  O2-  O568  1  0.81974766  0.38390560  0.35661892  1
  O2-  O569  1  0.83276505  0.42861692  0.67065952  1
  O2-  O570  1  0.81870611  0.65224607  0.02125780  1
  O2-  O571  1  0.79218555  0.62216942  0.36987539  1
  O2-  O572  1  0.82061655  0.66228260  0.67667359  1
  O2-  O573  1  0.81930555  0.89477761  0.02044224  1
  O2-  O574  1  0.86339554  0.91936253  0.36474330  1
  O2-  O575  1  0.81996233  0.91515736  0.68551755  1
