# generated using pymatgen
data_H2O
_symmetry_space_group_name_H-M   'P 1'
_cell_length_a   18.00238909
_cell_length_b   18.00193185
_cell_length_c   22.01415821
_cell_angle_alpha   89.98067721
_cell_angle_beta   90.02318906
_cell_angle_gamma   120.00871995
_symmetry_Int_Tables_number   1
_chemical_formula_structural   H2O
_chemical_formula_sum   'H384 O192'
_cell_volume   6177.94110854
_cell_formula_units_Z   192
loop_
 _symmetry_equiv_pos_site_id
 _symmetry_equiv_pos_as_xyz
  1  'x, y, z'
loop_
 _atom_type_symbol
 _atom_type_oxidation_number
  H+  1.0
  O2-  -2.0
loop_
 _atom_site_type_symbol
 _atom_site_label
 _atom_site_symmetry_multiplicity
 _atom_site_fract_x
 _atom_site_fract_y
 _atom_site_fract_z
 _atom_site_occupancy
  H+  H0  1  0.81942921  0.11889495  0.69803135  1
  H+  H1  1  0.75818343  0.63287501  0.64894181  1
  H+  H2  1  0.32136452  0.90770278  0.76676788  1
  H+  H3  1  0.60475508  0.88631142  0.16578930  1
  H+  H4  1  0.84817701  0.13620767  -0.01029192  1
  H+  H5  1  0.88095911  0.51574074  0.32145901  1
  H+  H6  1  0.63557716  0.02050627  0.17375795  1
  H+  H7  1  0.36299145  0.86622173  0.67691809  1
  H+  H8  1  0.37636199  0.10633989  0.83250849  1
  H+  H9  1  0.35980962  0.38387230  0.33778573  1
  H+  H10  1  0.60961843  0.38827257  0.02056038  1
  H+  H11  1  0.35848392  -0.02326470  1.00410102  1
  H+  H12  1  0.46501583  0.37960210  0.82783536  1
  H+  H13  1  0.34878803  0.88004916  0.83214316  1
  H+  H14  1  0.59454414  0.69790121  0.48544960  1
  H+  H15  1  0.11036870  0.64301977  1.01848027  1
  H+  H16  1  0.60902374  0.38741286  0.66684613  1
  H+  H17  1  0.72325310  0.07311350  0.49675795  1
  H+  H18  1  0.39512640  0.12073478  0.17287995  1
  H+  H19  1  0.86404152  0.45020194  0.46360468  1
  H+  H20  1  0.61905147  0.26057716  0.65327032  1
  H+  H21  1  0.72640219  0.62342655  0.85808846  1
  H+  H22  1  0.33041361  0.62366308  0.01045796  1
  H+  H23  1  0.22460462  0.60706170  0.32627958  1
  H+  H24  1  0.60574137  0.67734271  0.11467670  1
  H+  H25  1  0.77016185  0.11019412  0.78148879  1
  H+  H26  1  0.96818019  0.09860986  0.18171545  1
  H+  H27  1  0.48819598  0.87992404  0.68132431  1
  H+  H28  1  0.71044172  0.29110460  0.87237554  1
  H+  H29  1  0.47624898  0.60812036  0.31763042  1
  H+  H30  1  0.41273483  0.70319905  0.38203471  1
  H+  H31  1  0.64451660  0.61892923  1.00971818  1
  H+  H32  1  0.90384547  0.31462200  0.84645565  1
  H+  H33  1  0.28803394  0.90866911  0.49986372  1
  H+  H34  1  0.62871759  0.11343396  0.17171104  1
  H+  H35  1  0.39002671  0.83019011  0.61443942  1
  H+  H36  1  0.53305090  0.37016283  0.17402653  1
  H+  H37  1  0.23380973  0.38168234  0.97925405  1
  H+  H38  1  0.12387848  0.73711464  0.83236575  1
  H+  H39  1  0.09930407  0.38224445  0.34885068  1
  H+  H40  1  0.36802799  0.01238640  0.83795449  1
  H+  H41  1  0.10472994  0.72958095  0.16434165  1
  H+  H42  1  0.29458420  0.23951463  0.52922553  1
  H+  H43  1  0.85423520  0.13407822  0.17092161  1
  H+  H44  1  0.63024416  0.26522902  0.31245490  1
  H+  H45  1  0.48340603  0.58444833  0.66212103  1
  H+  H46  1  0.90453036  0.79163076  0.85655917  1
  H+  H47  1  0.86027127  0.20093063  0.65305087  1
  H+  H48  1  0.47063954  0.85997005  0.99859186  1
  H+  H49  1  0.69684219  0.83167687  0.50261849  1
  H+  H50  1  0.60399497  0.09407995  0.84211914  1
  H+  H51  1  0.20744212  0.61288271  0.00578682  1
  H+  H52  1  0.88491530  0.63500600  0.66112647  1
  H+  H53  1  0.57279200  0.12284723  0.49818682  1
  H+  H54  1  0.02651153  0.13058377  -0.00767455  1
  H+  H55  1  0.83736745  0.08194341  0.79718185  1
  H+  H56  1  0.38979229  0.56873449  0.65497503  1
  H+  H57  1  0.60839775  0.72207327  0.33547017  1
  H+  H58  1  0.84549263  0.38463510  0.17947104  1
  H+  H59  1  0.99727917  0.63655333  0.84232543  1
  H+  H60  1  0.72839281  0.87142073  0.00207907  1
  H+  H61  1  0.75835630  0.89051036  0.16164430  1
  H+  H62  1  0.51825710  0.89340970  0.16924878  1
  H+  H63  1  0.37387141  0.48117326  0.49619190  1
  H+  H64  1  0.13559929  0.52074290  0.32926408  1
  H+  H65  1  0.27542380  0.13310857  0.16176916  1
  H+  H66  1  0.13667660  0.02596769  0.32875846  1
  H+  H67  1  0.72984966  0.11426095  0.17507794  1
  H+  H68  1  0.77344003  0.64594158  0.01349964  1
  H+  H69  1  0.96369180  0.35510910  0.18108158  1
  H+  H70  1  0.99986203  0.13851711  0.49428807  1
  H+  H71  1  0.98815265  0.86364920  0.65110671  1
  H+  H72  1  0.84883308  0.36012574  0.02101455  1
  H+  H73  1  0.91206807  0.57043056  0.99613708  1
  H+  H74  1  0.86867118  0.89986000  1.01389579  1
  H+  H75  1  0.10743508  0.96070224  0.02143217  1
  H+  H76  1  0.36287697  0.47488124  0.33479928  1
  H+  H77  1  0.97619098  0.34280104  0.66365888  1
  H+  H78  1  0.52192218  0.39122076  0.66140420  1
  H+  H79  1  1.03588154  0.66804234  1.01358605  1
  H+  H80  1  0.71196920  0.34266005  0.65943599  1
  H+  H81  1  0.74596262  0.86190125  0.66067417  1
  H+  H82  1  0.04099587  0.89509795  0.49301092  1
  H+  H83  1  0.46633982  0.10910341  0.64251336  1
  H+  H84  1  0.61474122  0.22379882  0.49144200  1
  H+  H85  1  0.13573512  1.02163034  0.65695478  1
  H+  H86  1  0.14194200  0.12929394  0.50802974  1
  H+  H87  1  0.71204721  0.16879082  0.34965336  1
  H+  H88  1  0.89461473  0.77709295  0.64388004  1
  H+  H89  1  0.32305115  0.91867087  0.10462641  1
  H+  H90  1  0.60925848  0.71504582  0.67345682  1
  H+  H91  1  1.03019169  0.13988182  0.33833590  1
  H+  H92  1  0.20903611  0.59806927  0.50912930  1
  H+  H93  1  0.87889839  0.34018349  0.50249701  1
  H+  H94  1  0.28944493  0.13717998  1.01239420  1
  H+  H95  1  0.67444176  0.84744657  0.75568106  1
  H+  H96  1  0.38568729  0.87349731  0.51498030  1
  H+  H97  1  0.34437497  0.46220611  0.81452725  1
  H+  H98  1  0.23060536  0.87704210  -0.00658585  1
  H+  H99  1  0.40608793  0.32884828  0.59972807  1
  H+  H100  1  0.87836044  0.65243246  0.84981063  1
  H+  H101  1  0.88318614  0.72776577  0.48509004  1
  H+  H102  1  0.85045792  0.37734591  0.32579958  1
  H+  H103  1  0.86961202  0.66273630  0.01023221  1
  H+  H104  1  0.11145664  0.30933011  0.48764468  1
  H+  H105  1  0.12281600  0.89128049  0.67041736  1
  H+  H106  1  0.64749505  0.41836810  0.83540572  1
  H+  H107  1  0.87034307  0.13044021  0.48645501  1
  H+  H108  1  0.33691184  0.72255701  0.49879749  1
  H+  H109  1  0.03423148  0.90468119  0.83091851  1
  H+  H110  1  0.84607616  0.65839737  0.41854547  1
  H+  H111  1  0.51460582  0.12347137  0.01153270  1
  H+  H112  1  0.49681976  0.57156377  0.94582563  1
  H+  H113  1  1.03319875  0.66241763  0.67873142  1
  H+  H114  1  0.48198706  0.19670703  0.48343659  1
  H+  H115  1  0.89053699  0.01910483  0.33353255  1
  H+  H116  1  0.16382156  0.82728877  0.39462070  1
  H+  H117  1  0.70826356  0.10093677  0.64437899  1
  H+  H118  1  0.49604537  0.10999771  0.82069987  1
  H+  H119  1  0.47191907  0.61505447  0.82015266  1
  H+  H120  1  0.12769867  0.59908040  0.15205987  1
  H+  H121  1  0.33717095  0.36741338  0.48885565  1
  H+  H122  1  0.11260867  0.62920581  0.32944706  1
  H+  H123  1  0.62784929  0.11234972  0.00462045  1
  H+  H124  1  0.14043062  0.14231064  0.81990284  1
  H+  H125  1  0.87577048  0.97284617  0.66411892  1
  H+  H126  1  0.38610416  1.02843956  0.17483921  1
  H+  H127  1  0.22532395  0.61583453  0.85111894  1
  H+  H128  1  0.13764291  0.87259358  0.84163186  1
  H+  H129  1  0.10183003  0.19653470  0.42595859  1
  H+  H130  1  0.86328407  0.62400152  0.34065099  1
  H+  H131  1  0.78605281  0.89253355  0.81537736  1
  H+  H132  1  0.63347095  0.74647024  1.02002714  1
  H+  H133  1  0.66080660  0.58769376  0.91251253  1
  H+  H134  1  0.85259200  0.22230113  0.16965850  1
  H+  H135  1  0.36146750  0.37824452  -0.00211975  1
  H+  H136  1  0.23888145  0.87674382  0.66608076  1
  H+  H137  1  0.89516412  0.02003591  0.83631490  1
  H+  H138  1  0.27651346  0.14013150  0.33835593  1
  H+  H139  1  0.47723174  0.58652889  0.50098382  1
  H+  H140  1  0.97306239  0.11838995  0.83353243  1
  H+  H141  1  0.93621878  0.54919099  0.52688038  1
  H+  H142  1  0.36278363  0.64301705  0.82520443  1
  H+  H143  1  0.47252170  0.36309664  0.32799631  1
  H+  H144  1  0.86489654  0.64367656  0.16399175  1
  H+  H145  1  0.89463580  0.11032038  0.33425443  1
  H+  H146  1  0.64122261  0.61108747  0.32878555  1
  H+  H147  1  0.05165780  0.66311457  0.49167453  1
  H+  H148  1  0.45879310  0.63137646  0.96004481  1
  H+  H149  1  0.54130412  0.37506359  0.48429489  1
  H+  H150  1  0.65296527  0.63086895  0.18418604  1
  H+  H151  1  0.88214963  0.26906976  0.33038446  1
  H+  H152  1  0.47620299  0.85949578  0.84497664  1
  H+  H153  1  0.63784808  0.77762203  0.17909729  1
  H+  H154  1  0.63951714  0.51985565  0.32645597  1
  H+  H155  1  0.85651186  0.87971499  0.34150244  1
  H+  H156  1  0.85727951  0.23491053  0.99596349  1
  H+  H157  1  0.12958168  0.01332428  0.18005236  1
  H+  H158  1  0.10791449  0.88978872  0.34221319  1
  H+  H159  1  0.15129545  0.78754497  0.66058009  1
  H+  H160  1  0.63934650  0.87632640  0.32439232  1
  H+  H161  1  0.36929849  0.14596631  0.33361348  1
  H+  H162  1  0.08986218  0.24116127  0.81240943  1
  H+  H163  1  0.94417707  0.81464206  0.17243300  1
  H+  H164  1  0.39689099  0.04543408  0.32843838  1
  H+  H165  1  0.61436118  0.73109372  0.81489780  1
  H+  H166  1  0.39053086  0.61326108  0.31403910  1
  H+  H167  1  0.54657405  0.65688233  0.03216356  1
  H+  H168  1  0.90102691  0.87726994  0.84603882  1
  H+  H169  1  0.18462741  0.84568320  0.56774241  1
  H+  H170  1  0.81791013  0.95112722  0.51302535  1
  H+  H171  1  0.20271163  0.60239725  0.66619965  1
  H+  H172  1  -0.03162161  0.86293405  0.33202532  1
  H+  H173  1  0.89722442  0.22591269  0.81794168  1
  H+  H174  1  0.14725143  0.04372011  0.50638509  1
  H+  H175  1  0.74862909  0.94957763  0.46876104  1
  H+  H176  1  0.14282871  0.11807045  0.32607241  1
  H+  H177  1  0.37398085  0.23495476  0.81189446  1
  H+  H178  1  0.36824042  0.46900528  0.99716919  1
  H+  H179  1  0.64004553  0.32361025  0.25413200  1
  H+  H180  1  0.23124378  0.37611737  0.32348804  1
  H+  H181  1  1.00885671  0.63412460  0.16092286  1
  H+  H182  1  0.14145243  0.25481483  0.17153148  1
  H+  H183  1  0.35635271  0.12846946  0.65598261  1
  H+  H184  1  0.64832811  0.40043211  0.80419903  1
  H+  H185  1  0.59599747  0.12592463  0.66238084  1
  H+  H186  1  0.60514913  0.61447787  0.48131406  1
  H+  H187  1  0.38540949  0.78826762  0.18657926  1
  H+  H188  1  0.92925331  0.06939345  0.58360950  1
  H+  H189  1  0.39793892  0.36236313  0.17278185  1
  H+  H190  1  0.96811076  0.36094789  0.33244182  1
  H+  H191  1  0.10926577  0.13436032  0.67172233  1
  H+  H192  1  0.61793985  1.01911406  0.65929930  1
  H+  H193  1  0.10450701  0.37114158  0.17130203  1
  H+  H194  1  0.73321281  0.34924093  0.50102869  1
  H+  H195  1  0.35294871  0.88485303  1.00583540  1
  H+  H196  1  0.91526970  0.34615332  0.94094750  1
  H+  H197  1  0.97385209  0.36091576  1.00060437  1
  H+  H198  1  0.59297688  0.96772743  0.83331323  1
  H+  H199  1  0.39426729  0.88461128  0.33455242  1
  H+  H200  1  0.60865950  0.95023719  0.39442320  1
  H+  H201  1  0.11717383  0.60289391  0.66226553  1
  H+  H202  1  0.11423378  0.23183121  0.32981250  1
  H+  H203  1  0.69552289  0.10286175  0.85385080  1
  H+  H204  1  0.59922406  0.21560899  1.02008634  1
  H+  H205  1  0.34520580  0.37615396  0.82759025  1
  H+  H206  1  0.60409685  -0.02641057  1.01312479  1
  H+  H207  1  0.10587261  0.37581479  0.68112798  1
  H+  H208  1  0.38323227  0.27337872  0.32979535  1
  H+  H209  1  0.37857313  1.03391551  0.61139809  1
  H+  H210  1  0.65410836  0.33213657  0.85441610  1
  H+  H211  1  0.63519800  0.51647199  0.64983431  1
  H+  H212  1  0.89862071  0.85528457  0.49566948  1
  H+  H213  1  0.80522971  0.42614674  0.80911253  1
  H+  H214  1  0.33782776  0.73677884  0.68388586  1
  H+  H215  1  0.88184498  0.78580047  1.00175986  1
  H+  H216  1  0.11864042  0.26943145  0.65649515  1
  H+  H217  1  0.48576393  0.88911967  0.33067118  1
  H+  H218  1  0.63854313  0.52625039  1.00932650  1
  H+  H219  1  0.08402636  0.40391924  0.77468467  1
  H+  H220  1  0.88300102  0.77220669  0.33266804  1
  H+  H221  1  0.10699976  0.11580117  0.17233239  1
  H+  H222  1  0.14904309  0.09360257  0.98275274  1
  H+  H223  1  0.38936945  0.64437879  0.15617907  1
  H+  H224  1  0.68598357  0.59604417  0.24433414  1
  H+  H225  1  0.33843598  0.64941953  0.68605861  1
  H+  H226  1  0.57543086  0.65521279  0.39123638  1
  H+  H227  1  0.87851875  0.88600951  0.66647213  1
  H+  H228  1  0.64121408  0.51853797  0.49548764  1
  H+  H229  1  0.68264835  0.88995706  0.63600992  1
  H+  H230  1  0.72314214  0.86706177  0.32633601  1
  H+  H231  1  0.90135544  0.56033542  0.68097193  1
  H+  H232  1  0.60889418  0.38283340  0.32838487  1
  H+  H233  1  0.38182946  0.34855651  0.66388950  1
  H+  H234  1  0.86209308  -0.01411592  1.00827526  1
  H+  H235  1  0.09319186  0.47404848  1.01168163  1
  H+  H236  1  0.07182616  0.17547963  0.75696099  1
  H+  H237  1  0.83641188  0.43974407  0.02904704  1
  H+  H238  1  0.58908167  0.50522715  0.81514300  1
  H+  H239  1  0.47971219  0.36776895  0.99861358  1
  H+  H240  1  0.38548919  0.26894515  0.50484697  1
  H+  H241  1  0.77201799  0.62471363  0.34748622  1
  H+  H242  1  0.85665471  0.98431891  0.16803836  1
  H+  H243  1  0.35382436  0.89297056  0.16517771  1
  H+  H244  1  0.12036298  0.22447047  -0.00549178  1
  H+  H245  1  0.37936693  0.77051672  -0.00273578  1
  H+  H246  1  0.28133066  0.15349964  0.80658466  1
  H+  H247  1  0.21155719  0.85414001  0.17302485  1
  H+  H248  1  0.22609020  0.86889561  0.84282802  1
  H+  H249  1  0.58755513  0.19353510  0.82362310  1
  H+  H250  1  0.75346942  0.63811566  0.17968397  1
  H+  H251  1  0.77893810  0.10987413  0.34073972  1
  H+  H252  1  0.68928737  0.38022819  0.16723169  1
  H+  H253  1  0.38415707  0.75231980  0.33838797  1
  H+  H254  1  0.88863875  0.21287402  0.85116097  1
  H+  H255  1  0.12080503  0.64550064  0.83183048  1
  H+  H256  1  0.14543272  0.29450529  0.97710296  1
  H+  H257  1  0.28362377  0.90171191  0.34891930  1
  H+  H258  1  0.39066187  0.11271265  0.99436253  1
  H+  H259  1  0.57140223  0.87161527  0.68172623  1
  H+  H260  1  0.99354845  0.39527124  0.84758691  1
  H+  H261  1  0.61302936  1.00762299  0.33988393  1
  H+  H262  1  0.88412132  0.33490553  0.66056946  1
  H+  H263  1  0.76105488  0.37853439  0.32069625  1
  H+  H264  1  0.92668234  1.04678178  0.47570941  1
  H+  H265  1  0.75486997  0.13796387  0.99810924  1
  H+  H266  1  0.87669530  0.52190626  0.17392380  1
  H+  H267  1  0.39452937  0.51778580  0.16260525  1
  H+  H268  1  0.10390664  0.45349489  0.49905916  1
  H+  H269  1  0.14724729  0.56659150  0.56741782  1
  H+  H270  1  0.88833950  0.63936462  0.48950468  1
  H+  H271  1  0.62502089  0.90464241  0.48958318  1
  H+  H272  1  0.25625217  0.12227414  0.66416887  1
  H+  H273  1  0.36578765  0.97247074  0.69552212  1
  H+  H274  1  0.88979781  0.42059703  0.81947620  1
  H+  H275  1  0.52716543  0.12850854  0.16896173  1
  H+  H276  1  0.70795137  0.34132206  1.01403008  1
  H+  H277  1  0.28220338  0.37768291  0.15282725  1
  H+  H278  1  0.01692157  0.12550259  0.66423004  1
  H+  H279  1  0.12206354  -0.00765027  0.82041017  1
  H+  H280  1  0.34988545  0.43786314  0.67562639  1
  H+  H281  1  0.16218153  0.78782108  0.50695020  1
  H+  H282  1  0.19660276  0.59132818  0.18869046  1
  H+  H283  1  0.85403447  0.43597546  0.64698649  1
  H+  H284  1  0.96069641  0.12820854  0.97954015  1
  H+  H285  1  0.53466063  0.63384951  0.16721510  1
  H+  H286  1  0.45919821  0.85075587  0.52405461  1
  H+  H287  1  0.63585866  0.86341446  1.00267550  1
  H+  H288  1  0.57249785  0.91360440  0.07162217  1
  H+  H289  1  0.63438067  0.60563105  0.65282988  1
  H+  H290  1  0.85251244  0.20795119  0.49357700  1
  H+  H291  1  0.42259660  0.09756201  0.26673103  1
  H+  H292  1  0.83985957  0.68019117  0.79740668  1
  H+  H293  1  0.64785097  0.07757556  0.94283243  1
  H+  H294  1  0.07153497  0.41074246  0.40794914  1
  H+  H295  1  0.19390852  0.13988366  0.87455125  1
  H+  H296  1  0.97317046  0.60438177  0.32404802  1
  H+  H297  1  0.91230924  0.58394277  0.23133373  1
  H+  H298  1  0.61362418  0.64358484  0.83289840  1
  H+  H299  1  0.90996980  0.31460276  0.56479097  1
  H+  H300  1  0.81229441  0.39978797  0.11875853  1
  H+  H301  1  0.16965285  0.39228436  0.27914328  1
  H+  H302  1  0.82059675  0.91203550  0.39721609  1
  H+  H303  1  0.90999356  0.07108071  0.24143482  1
  H+  H304  1  0.06417901  0.89967349  0.10977152  1
  H+  H305  1  0.13279827  0.90318015  0.49412198  1
  H+  H306  1  0.37719428  0.99758238  0.49787109  1
  H+  H307  1  0.13410173  0.36387143  0.88019559  1
  H+  H308  1  0.55804597  0.14848415  0.72070792  1
  H+  H309  1  0.41696898  0.33161338  0.23642792  1
  H+  H310  1  0.12000880  0.84766665  0.18105380  1
  H+  H311  1  0.16699852  0.84891543  0.92789268  1
  H+  H312  1  0.41931507  0.57361411  0.22407129  1
  H+  H313  1  0.55649783  0.91190783  0.77122186  1
  H+  H314  1  0.67337043  0.32637686  0.56219708  1
  H+  H315  1  0.12554206  0.64112818  0.49123710  1
  H+  H316  1  0.32196469  0.67954200  0.77593124  1
  H+  H317  1  0.34791520  0.17050076  0.07111645  1
  H+  H318  1  0.33350844  0.16433798  0.72190898  1
  H+  H319  1  0.07754765  0.14843207  0.11240397  1
  H+  H320  1  0.66630808  0.84224312  0.23548817  1
  H+  H321  1  0.63101446  0.38148151  0.48632103  1
  H+  H322  1  0.58476636  0.65788705  0.73359100  1
  H+  H323  1  0.88436011  0.09535718  0.63528189  1
  H+  H324  1  0.08533392  0.92606525  0.39946249  1
  H+  H325  1  0.63742738  0.86926006  0.81301477  1
  H+  H326  1  0.41153609  0.07873644  0.93236302  1
  H+  H327  1  0.18289978  0.31862126  0.22555538  1
  H+  H328  1  0.84604574  0.41889354  0.71911476  1
  H+  H329  1  0.92867225  0.83277046  0.55781701  1
  H+  H330  1  0.59355521  0.16039500  0.39709430  1
  H+  H331  1  0.09798086  0.46159745  0.68460858  1
  H+  H332  1  0.20843285  0.35236035  0.65971279  1
  H+  H333  1  0.39624717  0.27594893  0.99435066  1
  H+  H334  1  0.13911814  0.77134466  0.33725556  1
  H+  H335  1  0.81700113  0.38519616  0.41278255  1
  H+  H336  1  0.10415897  0.39305275  0.00227194  1
  H+  H337  1  0.64881566  0.79727289  0.56432233  1
  H+  H338  1  0.16662119  0.07739360  0.23694598  1
  H+  H339  1  0.90382825  0.08317712  0.91936541  1
  H+  H340  1  0.10478624  0.45923733  0.16639977  1
  H+  H341  1  0.08653799  0.65893315  0.38997610  1
  H+  H342  1  0.30929827  0.38344411  0.73568611  1
  H+  H343  1  0.41673768  0.85328986  0.24270715  1
  H+  H344  1  0.56238226  0.45034095  0.75366997  1
  H+  H345  1  0.93772158  0.61838821  0.93367526  1
  H+  H346  1  0.81052280  0.68579071  0.70605373  1
  H+  H347  1  0.34001479  0.41025384  0.09341368  1
  H+  H348  1  0.83509021  0.68020691  0.10787007  1
  H+  H349  1  0.33173021  0.41694218  0.42686207  1
  H+  H350  1  0.42119518  0.33300975  0.89152502  1
  H+  H351  1  0.90297063  0.32594917  0.23696492  1
  H+  H352  1  0.36277922  0.22483919  0.16604275  1
  H+  H353  1  0.01504174  0.36528627  0.49683871  1
  H+  H354  1  0.34670701  0.15283645  0.42488555  1
  H+  H355  1  0.58475532  0.41628751  0.08102738  1
  H+  H356  1  0.34847461  0.93957854  0.40419069  1
  H+  H357  1  0.16537911  0.08794153  0.59916354  1
  H+  H358  1  0.40868867  0.57134877  0.87444377  1
  H+  H359  1  0.66037748  0.57738573  0.55347137  1
  H+  H360  1  0.41453969  0.82648140  0.91037567  1
  H+  H361  1  0.92218350  0.85000224  0.94387499  1
  H+  H362  1  1.01399634  0.87758476  1.01516235  1
  H+  H363  1  0.33087020  0.66896123  0.07154143  1
  H+  H364  1  0.64842011  0.31286690  0.95519264  1
  H+  H365  1  0.44038173  0.73449780  0.12677438  1
  H+  H366  1  0.30760378  0.67224009  0.43683531  1
  H+  H367  1  0.82710108  0.15313473  0.40344849  1
  H+  H368  1  0.90785471  0.54888666  0.84050405  1
  H+  H369  1  0.12956592  0.86644220  -0.00256053  1
  H+  H370  1  0.08592410  0.15306182  0.06216279  1
  H+  H371  1  0.07596212  0.67129770  0.09387595  1
  H+  H372  1  0.59078312  0.41384962  0.39129290  1
  H+  H373  1  0.58167910  0.15160882  0.10766981  1
  H+  H374  1  0.94067487  0.61091613  0.57780138  1
  H+  H375  1  0.42578001  0.54910138  0.56564652  1
  H+  H376  1  0.18466735  0.04415693  0.94471491  1
  H+  H377  1  0.08654173  0.91813058  0.72842188  1
  H+  H378  1  0.13991125  0.52561109  0.84926275  1
  H+  H379  1  0.09486850  0.68139240  0.73537158  1
  H+  H380  1  0.37980907  0.76049478  0.84543601  1
  H+  H381  1  0.15324176  0.58693145  0.94436889  1
  H+  H382  1  0.85430575  0.92075682  0.76304293  1
  H+  H383  1  0.82718450  0.92782319  0.10025994  1
  O2-  O384  1  0.07310518  0.14515218  0.15797373  1
  O2-  O385  1  0.09696787  0.19407077  0.47188257  1
  O2-  O386  1  0.07413866  0.18129792  0.80293329  1
  O2-  O387  1  0.07377587  0.40072035  0.18419677  1
  O2-  O388  1  0.07506375  0.39473867  0.48117939  1
  O2-  O389  1  0.08689398  0.41219290  0.82147830  1
  O2-  O390  1  0.07079804  0.66626895  0.14580402  1
  O2-  O391  1  0.10874467  0.68264609  0.47394568  1
  O2-  O392  1  0.09329301  0.67766349  0.81529813  1
  O2-  O393  1  0.06284152  0.90250018  0.15529285  1
  O2-  O394  1  0.10071992  0.93098679  0.47841188  1
  O2-  O395  1  0.09246828  0.93018367  0.81170351  1
  O2-  O396  1  0.33543428  0.16637718  0.14680967  1
  O2-  O397  1  0.36151376  0.14540612  0.46800042  1
  O2-  O398  1  0.34196025  0.17471750  0.79465660  1
  O2-  O399  1  0.34293920  0.41290469  0.13853983  1
  O2-  O400  1  0.32950897  0.41551283  0.47277439  1
  O2-  O401  1  0.31028847  0.39956574  0.80995152  1
  O2-  O402  1  0.38209402  0.69252242  0.13917439  1
  O2-  O403  1  0.30658398  0.66441887  0.48094567  1
  O2-  O404  1  0.33219620  0.67745218  0.82112783  1
  O2-  O405  1  0.32014537  0.91924327  0.14949859  1
  O2-  O406  1  0.34951466  0.93772977  0.48494671  1
  O2-  O407  1  0.31914548  0.90928800  0.81643150  1
  O2-  O408  1  0.58706462  0.15203630  0.15271521  1
  O2-  O409  1  0.57068606  0.16698028  0.47381331  1
  O2-  O410  1  0.55719282  0.13563823  0.80534632  1
  O2-  O411  1  0.59420732  0.40284356  0.15940976  1
  O2-  O412  1  0.60002810  0.41065276  0.46983420  1
  O2-  O413  1  0.53997030  0.46381587  0.79061586  1
  O2-  O414  1  0.59821871  0.67148327  0.16004987  1
  O2-  O415  1  0.56856968  0.64007309  0.46632012  1
  O2-  O416  1  0.58184756  0.66752098  0.81017186  1
  O2-  O417  1  0.57645723  0.91815994  0.14997778  1
  O2-  O418  1  0.66042429  0.95688469  0.46508645  1
  O2-  O419  1  0.56299781  0.90787660  0.81668116  1
  O2-  O420  1  0.82159435  0.16089324  0.15570462  1
  O2-  O421  1  0.82796565  0.14880432  0.47584923  1
  O2-  O422  1  0.79020414  0.07154377  0.76859810  1
  O2-  O423  1  0.81640224  0.41508291  0.16227100  1
  O2-  O424  1  0.82770185  0.38855145  0.45827564  1
  O2-  O425  1  0.86479800  0.45155843  0.79582871  1
  O2-  O426  1  0.83752199  0.67877530  0.15328763  1
  O2-  O427  1  0.85723697  0.66650797  0.47030460  1
  O2-  O428  1  0.84385048  0.68161734  0.84153263  1
  O2-  O429  1  0.82087467  0.92407943  0.14664499  1
  O2-  O430  1  0.78912947  0.92633677  0.47456416  1
  O2-  O431  1  0.84890317  0.92033153  0.80838411  1
  O2-  O432  1  0.16307268  0.07518539  0.19097171  1
  O2-  O433  1  0.17000817  0.09999033  0.52699598  1
  O2-  O434  1  0.17533425  0.11574015  0.83407793  1
  O2-  O435  1  0.17863693  0.31690212  0.18088864  1
  O2-  O436  1  0.14830598  0.28308053  0.49324875  1
  O2-  O437  1  0.09164166  0.33832891  0.84678239  1
  O2-  O438  1  0.16445811  0.57312751  0.15062516  1
  O2-  O439  1  0.14715644  0.56553368  0.52217997  1
  O2-  O440  1  0.16411409  0.58531082  0.86389735  1
  O2-  O441  1  0.15133213  0.81611216  0.18718220  1
  O2-  O442  1  0.18708298  0.84795757  0.52195946  1
  O2-  O443  1  0.16502105  0.84124558  0.86032538  1
  O2-  O444  1  0.42376341  0.08891896  0.18790689  1
  O2-  O445  1  0.44703239  0.22321297  0.47266939  1
  O2-  O446  1  0.40187515  0.07408573  0.85176723  1
  O2-  O447  1  0.42245327  0.32874065  0.19115563  1
  O2-  O448  1  0.35056593  0.29123126  0.52349265  1
  O2-  O449  1  0.41205946  0.33060629  0.84705945  1
  O2-  O450  1  0.42593575  0.57820119  0.17877704  1
  O2-  O451  1  0.41870908  0.55294708  0.52096572  1
  O2-  O452  1  0.40938981  0.58528172  0.83107854  1
  O2-  O453  1  0.41421914  0.84973839  0.19674547  1
  O2-  O454  1  0.39935883  0.83104229  0.53392659  1
  O2-  O455  1  0.41385254  0.82535588  0.86305986  1
  O2-  O456  1  0.66512376  0.08166556  0.18837199  1
  O2-  O457  1  0.66414709  0.02433041  0.50620724  1
  O2-  O458  1  0.63509056  0.06757109  0.86468457  1
  O2-  O459  1  0.62710615  0.34458612  0.17590848  1
  O2-  O460  1  0.67366776  0.32454550  0.51667390  1
  O2-  O461  1  0.65274558  0.28317077  0.87587492  1
  O2-  O462  1  0.68966527  0.60516451  0.19807297  1
  O2-  O463  1  0.66149897  0.57840351  0.50843188  1
  O2-  O464  1  0.66457831  0.59590316  0.86748343  1
  O2-  O465  1  0.66516312  0.84009583  0.18942202  1
  O2-  O466  1  0.63872327  0.79747435  0.52045247  1
  O2-  O467  1  0.67243926  0.84316594  0.80016882  1
  O2-  O468  1  0.90706965  0.06997699  0.19572229  1
  O2-  O469  1  0.93848633  0.09303200  0.50411745  1
  O2-  O470  1  0.91378057  0.08017314  0.85013122  1
  O2-  O471  1  0.90117066  0.32757452  0.19169974  1
  O2-  O472  1  0.90744083  0.30985824  0.51941722  1
  O2-  O473  1  0.93208058  0.37459418  0.86063574  1
  O2-  O474  1  0.91127419  0.58453318  0.18582712  1
  O2-  O475  1  0.94606819  0.60711588  0.53280875  1
  O2-  O476  1  0.93670842  0.60656188  0.85959356  1
  O2-  O477  1  0.97234902  0.87738695  0.16688433  1
  O2-  O478  1  0.92841962  0.82675675  0.51180034  1
  O2-  O479  1  0.93508280  0.85404097  0.86639421  1
  O2-  O480  1  0.17042902  0.08534854  0.31151420  1
  O2-  O481  1  0.16687837  0.08384280  0.64537615  1
  O2-  O482  1  0.17908169  0.06093322  0.98593230  1
  O2-  O483  1  0.17130740  0.34940937  0.30566439  1
  O2-  O484  1  0.14800647  0.33160293  0.64735718  1
  O2-  O485  1  0.17261569  0.35564032  0.96452348  1
  O2-  O486  1  0.16649450  0.57830603  0.30963658  1
  O2-  O487  1  0.14375447  0.56816010  0.64990771  1
  O2-  O488  1  0.14792910  0.58536987  0.98951388  1
  O2-  O489  1  0.16832339  0.83274376  0.35046742  1
  O2-  O490  1  0.18040323  0.84756172  0.64487242  1
  O2-  O491  1  0.16933021  0.84952146  0.97551889  1
  O2-  O492  1  0.42093103  0.10372602  0.31147711  1
  O2-  O493  1  0.40903178  0.09373872  0.62394558  1
  O2-  O494  1  0.41430770  0.07668875  0.97761419  1
  O2-  O495  1  0.41167722  0.33459628  0.31406385  1
  O2-  O496  1  0.42491904  0.33871294  0.64238890  1
  O2-  O497  1  0.42262347  0.33563795  0.97825592  1
  O2-  O498  1  0.41564596  0.57757371  0.30179490  1
  O2-  O499  1  0.42570693  0.54475466  0.64380843  1
  O2-  O500  1  0.44364228  0.57145692  0.95529964  1
  O2-  O501  1  0.42461069  0.85475262  0.31735521  1
  O2-  O502  1  0.39127680  0.82954354  0.65962055  1
  O2-  O503  1  0.41112706  0.82980102  0.98005130  1
  O2-  O504  1  0.65378373  0.12372311  0.33904076  1
  O2-  O505  1  0.64550793  0.07697776  0.64144035  1
  O2-  O506  1  0.66043503  0.08397473  0.98728679  1
  O2-  O507  1  0.65451541  0.32530689  0.29794436  1
  O2-  O508  1  0.65555334  0.32177786  0.63996062  1
  O2-  O509  1  0.64767126  0.31871808  0.99977791  1
  O2-  O510  1  0.67500260  0.58328918  0.31566193  1
  O2-  O511  1  0.66542027  0.57857416  0.63405733  1
  O2-  O512  1  0.66916274  0.58548339  0.99125154  1
  O2-  O513  1  0.66262098  0.83956495  0.31066476  1
  O2-  O514  1  0.68296116  0.83896121  0.65108666  1
  O2-  O515  1  0.66733540  0.83354903  0.99066941  1
  O2-  O516  1  0.92410385  0.07990440  0.31834784  1
  O2-  O517  1  0.91989108  0.06683952  0.62814163  1
  O2-  O518  1  0.90096980  0.08790109  0.96660865  1
  O2-  O519  1  0.90848445  0.32867960  0.31531331  1
  O2-  O520  1  0.91849233  0.31113674  0.64318692  1
  O2-  O521  1  0.91013314  0.32914290  0.98446478  1
  O2-  O522  1  0.91183348  0.57827606  0.31037573  1
  O2-  O523  1  0.92434553  0.61068459  0.65474669  1
  O2-  O524  1  0.93768833  0.62786739  0.97894740  1
  O2-  O525  1  0.90672875  0.83223101  0.32027642  1
  O2-  O526  1  0.92988376  0.83821714  0.63129008  1
  O2-  O527  1  0.91812518  0.84780003  0.98940536  1
  O2-  O528  1  0.09011530  0.15772197  0.00749401  1
  O2-  O529  1  0.09201856  0.17615496  0.35043267  1
  O2-  O530  1  0.07408417  0.16024583  0.68427085  1
  O2-  O531  1  0.06544332  0.41146170  0.01984234  1
  O2-  O532  1  0.07114737  0.41446593  0.36196955  1
  O2-  O533  1  0.07271678  0.40257468  0.70151036  1
  O2-  O534  1  0.08868301  0.68052384  0.03642110  1
  O2-  O535  1  0.08001695  0.65745028  0.34514541  1
  O2-  O536  1  0.09340899  0.68189302  0.69003239  1
  O2-  O537  1  0.07421671  0.89882984  0.03166588  1
  O2-  O538  1  0.07861078  0.92173666  0.35429755  1
  O2-  O539  1  0.08650729  0.91697869  0.68325481  1
  O2-  O540  1  0.34993330  0.17085207  0.02521185  1
  O2-  O541  1  0.33680892  0.17344451  0.35299985  1
  O2-  O542  1  0.32176513  0.15306260  0.67646279  1
  O2-  O543  1  0.33092687  0.40980878  0.01126616  1
  O2-  O544  1  0.32963421  0.41568247  0.35190868  1
  O2-  O545  1  0.31126800  0.37893983  0.68994215  1
  O2-  O546  1  0.31605389  0.66521261  0.02696036  1
  O2-  O547  1  0.36653464  0.69278347  0.35392376  1
  O2-  O548  1  0.30673438  0.67567486  0.70230451  1
  O2-  O549  1  0.32281555  0.91561535  0.01912405  1
  O2-  O550  1  0.34561180  0.93555791  0.35908520  1
  O2-  O551  1  0.32670496  0.91190964  0.70326234  1
  O2-  O552  1  0.57362709  0.15278079  0.02949535  1
  O2-  O553  1  0.60355946  0.16632821  0.35205395  1
  O2-  O554  1  0.56164548  0.15398036  0.67590047  1
  O2-  O555  1  0.58325618  0.42191292  0.03579260  1
  O2-  O556  1  0.58506554  0.41759510  0.34642839  1
  O2-  O557  1  0.58370383  0.42368417  0.67713818  1
  O2-  O558  1  0.60825031  0.68528817  0.03911951  1
  O2-  O559  1  0.57968107  0.66003775  0.34542345  1
  O2-  O560  1  0.58327606  0.65548988  0.68784685  1
  O2-  O561  1  0.57197911  0.91243894  0.02605891  1
  O2-  O562  1  0.59416791  0.94731483  0.35063109  1
  O2-  O563  1  0.55048875  0.90889411  0.69650611  1
  O2-  O564  1  0.82107681  0.16943332  0.00656881  1
  O2-  O565  1  0.83263945  0.15604268  0.35716829  1
  O2-  O566  1  0.82480118  0.13692017  0.65461688  1
  O2-  O567  1  0.81010689  0.37938496  0.03981813  1
  O2-  O568  1  0.81958300  0.40789356  0.33965403  1
  O2-  O569  1  0.82753304  0.39178291  0.67816142  1
  O2-  O570  1  0.83372211  0.68464879  0.02830240  1
  O2-  O571  1  0.83406570  0.65359315  0.36124482  1
  O2-  O572  1  0.82088906  0.67328091  0.66490733  1
  O2-  O573  1  0.83671103  0.92933784  0.02869561  1
  O2-  O574  1  0.82668701  0.91359948  0.35270671  1
  O2-  O575  1  0.84767874  0.91439012  0.68392025  1
