# generated using pymatgen
data_H2O
_symmetry_space_group_name_H-M   'P 1'
_cell_length_a   17.98472641
_cell_length_b   17.98806195
_cell_length_c   22.00537551
_cell_angle_alpha   89.97348436
_cell_angle_beta   90.01095067
_cell_angle_gamma   119.98961877
_symmetry_Int_Tables_number   1
_chemical_formula_structural   H2O
_chemical_formula_sum   'H384 O192'
_cell_volume   6165.85063827
_cell_formula_units_Z   192
loop_
 _symmetry_equiv_pos_site_id
 _symmetry_equiv_pos_as_xyz
  1  'x, y, z'
loop_
 _atom_type_symbol
 _atom_type_oxidation_number
  H+  1.0
  O2-  -2.0
loop_
 _atom_site_type_symbol
 _atom_site_label
 _atom_site_symmetry_multiplicity
 _atom_site_fract_x
 _atom_site_fract_y
 _atom_site_fract_z
 _atom_site_occupancy
  H+  H0  1  0.38656122  0.10871174  0.84137175  1
  H+  H1  1  0.61374931  0.74148729  0.67292132  1
  H+  H2  1  0.00099663  0.87437901  0.48761762  1
  H+  H3  1  0.60415777  0.00365469  0.31461535  1
  H+  H4  1  0.14972997  0.37082833  0.66541793  1
  H+  H5  1  0.39620157  0.61368081  0.16276973  1
  H+  H6  1  0.36877726  0.64792868  0.48283516  1
  H+  H7  1  0.61960324  -0.01413993  0.48305492  1
  H+  H8  1  0.86606317  0.38601758  0.67142880  1
  H+  H9  1  0.53257740  0.89669974  0.48676890  1
  H+  H10  1  0.29342796  0.19572695  0.47615180  1
  H+  H11  1  0.12599108  0.72231958  0.02011602  1
  H+  H12  1  -0.02529783  0.12045149  0.50354161  1
  H+  H13  1  0.46454358  0.34659827  0.84419194  1
  H+  H14  1  0.27348488  0.88602300  0.82242036  1
  H+  H15  1  0.87299405  0.86227511  0.66659257  1
  H+  H16  1  0.47525676  0.85917603  0.98908146  1
  H+  H17  1  0.72424276  0.85496430  0.98386547  1
  H+  H18  1  0.61983796  0.24001970  0.33629322  1
  H+  H19  1  0.52124061  0.12316385  0.14863308  1
  H+  H20  1  0.11609324  0.47713594  0.66762946  1
  H+  H21  1  0.52643942  0.63799879  0.82778043  1
  H+  H22  1  0.62957600  0.40557797  0.49460923  1
  H+  H23  1  0.48436547  0.14350670  0.32618454  1
  H+  H24  1  0.14429334  0.12517141  0.16972962  1
  H+  H25  1  0.38248785  0.51473393  0.33761763  1
  H+  H26  1  0.10688890  0.63458855  0.53327250  1
  H+  H27  1  0.22823260  0.35390870  0.32760187  1
  H+  H28  1  0.73493805  0.37146641  0.50722524  1
  H+  H29  1  0.52782213  0.13807944  0.83167035  1
  H+  H30  1  0.09000052  0.08633209  0.82770289  1
  H+  H31  1  0.10541732  0.13605255  0.33595494  1
  H+  H32  1  0.39849961  0.01495887  0.99175238  1
  H+  H33  1  0.77675718  0.38250505  0.83118371  1
  H+  H34  1  0.64542672  0.60310430  -0.00978214  1
  H+  H35  1  0.40651531  0.31240476  0.23128912  1
  H+  H36  1  0.37660286  -0.02003662  0.15930982  1
  H+  H37  1  0.36133156  0.87799339  0.00617794  1
  H+  H38  1  0.61996899  0.22572190  0.83872649  1
  H+  H39  1  0.62834145  0.60155189  0.32577679  1
  H+  H40  1  0.83181823  0.16540227  0.06492528  1
  H+  H41  1  0.33469527  0.42002704  0.07447668  1
  H+  H42  1  0.47618033  0.86393730  0.83476599  1
  H+  H43  1  0.72897751  0.10832118  0.16396358  1
  H+  H44  1  0.65634617  0.54253993  0.50940797  1
  H+  H45  1  0.86239561  0.87891651  -0.00319503  1
  H+  H46  1  0.86694077  0.72845738  0.49293034  1
  H+  H47  1  0.64564877  0.61810315  0.83850726  1
  H+  H48  1  0.14732638  0.58587601  0.46824656  1
  H+  H49  1  0.11213766  0.48293583  0.16925912  1
  H+  H50  1  0.55087651  0.03373276  0.27640002  1
  H+  H51  1  0.61146054  0.73130256  0.82803031  1
  H+  H52  1  0.36935451  0.72543579  0.14994265  1
  H+  H53  1  0.87294925  0.35720199  0.17390701  1
  H+  H54  1  0.77076141  0.13491858  0.66679348  1
  H+  H55  1  0.61160282  0.96920216  0.14801460  1
  H+  H56  1  0.63175975  0.85818711  0.65699039  1
  H+  H57  1  0.75716769  0.61907090  0.82289422  1
  H+  H58  1  0.88383757  0.10234735  0.84092514  1
  H+  H59  1  0.60761626  0.87871764  0.82350212  1
  H+  H60  1  0.52462230  0.88517113  0.66620224  1
  H+  H61  1  0.22949705  0.13292193  0.32064761  1
  H+  H62  1  0.52173393  0.63416022  0.35580073  1
  H+  H63  1  0.72863371  0.36420018  0.32199640  1
  H+  H64  1  0.87902741  0.64965552  0.33847577  1
  H+  H65  1  0.67871717  0.33680896  0.91278854  1
  H+  H66  1  0.14733224  0.36911665  0.17957591  1
  H+  H67  1  0.36801356  0.38028189  0.16328417  1
  H+  H68  1  0.12736194  0.46868535  0.49865842  1
  H+  H69  1  0.92356553  0.33769241  0.90059265  1
  H+  H70  1  0.38610895  0.37599648  1.00013274  1
  H+  H71  1  0.61944662  0.13129557  1.00134129  1
  H+  H72  1  0.19202227  0.55244016  0.34225727  1
  H+  H73  1  0.77956148  0.63371428  0.00072134  1
  H+  H74  1  0.85067679  0.61731032  0.81737949  1
  H+  H75  1  0.15498809  0.79087316  0.31444943  1
  H+  H76  1  0.86058050  0.22339916  0.15836784  1
  H+  H77  1  0.30509191  0.52863405  0.87120234  1
  H+  H78  1  0.36887822  0.73921869  0.31878626  1
  H+  H79  1  0.01048731  0.60302374  0.16386774  1
  H+  H80  1  0.04873471  0.50394751  0.14047571  1
  H+  H81  1  0.09487324  0.17392556  0.83145608  1
  H+  H82  1  0.38738510  0.77578134  0.65469211  1
  H+  H83  1  -0.03989005  0.08284617  0.84165511  1
  H+  H84  1  0.34552126  0.35288965  0.33874907  1
  H+  H85  1  0.47425145  0.37281189  1.00042655  1
  H+  H86  1  0.64113587  0.11229491  0.66040771  1
  H+  H87  1  0.38167143  0.41347401  0.49238103  1
  H+  H88  1  0.38185579  0.38729984  0.67118508  1
  H+  H89  1  1.01691127  0.63383671  0.82147452  1
  H+  H90  1  0.87297082  0.75616368  0.82363734  1
  H+  H91  1  0.38985353  0.78145669  0.49835408  1
  H+  H92  1  0.25384536  0.37551081  0.50972881  1
  H+  H93  1  0.18552314  0.85551528  0.22591675  1
  H+  H94  1  0.98513154  0.37573524  0.84118751  1
  H+  H95  1  0.87083100  0.47578665  0.33616112  1
  H+  H96  1  0.39586281  0.11659611  0.16510803  1
  H+  H97  1  0.12147464  0.85101831  0.49384091  1
  H+  H98  1  0.23441709  0.88511230  0.33101207  1
  H+  H99  1  0.12439506  0.41092863  0.82565237  1
  H+  H100  1  0.87398948  0.51395996  0.66405699  1
  H+  H101  1  0.07554058  -0.05180069  0.65223901  1
  H+  H102  1  0.72238535  0.10690651  0.83278495  1
  H+  H103  1  0.09799777  0.22825915  0.47678820  1
  H+  H104  1  0.54474227  0.30344715  0.79497674  1
  H+  H105  1  0.87282357  0.88322330  0.51462341  1
  H+  H106  1  0.09460892  0.86864708  0.65852963  1
  H+  H107  1  0.37625115  0.18200154  0.32194525  1
  H+  H108  1  0.18155298  0.81559271  0.47174618  1
  H+  H109  1  0.11310250  0.89380148  0.32681007  1
  H+  H110  1  -0.02837824  0.11354882  0.65918172  1
  H+  H111  1  0.53000911  0.63794705  0.16381078  1
  H+  H112  1  0.36308779  0.88470479  0.66683511  1
  H+  H113  1  0.28144167  0.38524006  0.16643990  1
  H+  H114  1  0.39078654  0.85945542  0.16950896  1
  H+  H115  1  0.72798378  0.36413940  0.66358178  1
  H+  H116  1  0.13554974  0.12950457  0.48897929  1
  H+  H117  1  0.07084143  0.07128403  0.63653735  1
  H+  H118  1  0.64007242  0.36781798  0.32496339  1
  H+  H119  1  0.88504723  0.76121925  0.33315619  1
  H+  H120  1  0.71501735  0.85270149  0.83521659  1
  H+  H121  1  0.26943926  0.15139766  0.01163913  1
  H+  H122  1  0.15567200  0.88258507  0.16696180  1
  H+  H123  1  0.53094659  0.54748763  0.04593779  1
  H+  H124  1  0.44987924  0.22680591  0.72051298  1
  H+  H125  1  0.41411677  0.83183000  0.93050355  1
  H+  H126  1  0.22724970  0.62631419  0.83323754  1
  H+  H127  1  0.33004850  0.40150589  0.39634902  1
  H+  H128  1  0.86172264  0.22499137  0.00527984  1
  H+  H129  1  0.76760378  0.87631815  0.33725176  1
  H+  H130  1  0.87798023  0.85963365  0.32623481  1
  H+  H131  1  0.29788970  0.91956022  0.50978625  1
  H+  H132  1  -0.02285427  0.11871965  0.17461470  1
  H+  H133  1  0.27105346  0.63931030  0.66847679  1
  H+  H134  1  0.61017671  0.96757736  0.99871512  1
  H+  H135  1  0.27082308  0.39345169  1.01673429  1
  H+  H136  1  0.18828788  0.07969492  0.48190627  1
  H+  H137  1  0.88724806  0.36422195  -0.00795034  1
  H+  H138  1  0.52080006  0.38252964  0.15121283  1
  H+  H139  1  0.86555346  0.47677778  0.49261964  1
  H+  H140  1  0.63630941  0.11068400  0.83724540  1
  H+  H141  1  0.88330039  0.51487686  0.83441043  1
  H+  H142  1  -0.03424849  0.85716741  0.16442652  1
  H+  H143  1  0.67435012  0.34182695  0.56665773  1
  H+  H144  1  0.22840483  0.10487800  0.67362412  1
  H+  H145  1  0.87191785  0.64015400  1.00324681  1
  H+  H146  1  0.65124572  0.51783428  0.98665782  1
  H+  H147  1  0.07722933  0.93055110  0.10721587  1
  H+  H148  1  0.64280329  0.37645092  0.99818319  1
  H+  H149  1  0.33155514  0.91400303  0.76227132  1
  H+  H150  1  0.01678674  0.14438413  0.00886877  1
  H+  H151  1  0.63968301  0.27535997  0.66350860  1
  H+  H152  1  0.87645914  0.25741423  0.32552220  1
  H+  H153  1  0.10610118  0.72413638  0.82418050  1
  H+  H154  1  0.85904084  0.96450060  0.00621944  1
  H+  H155  1  0.61632195  0.47201649  0.33226280  1
  H+  H156  1  0.64017686  0.76768127  0.34055144  1
  H+  H157  1  0.52521474  0.12487649  0.99965753  1
  H+  H158  1  0.34774653  0.21732546  0.84135527  1
  H+  H159  1  0.48980164  0.38717016  0.66289931  1
  H+  H160  1  0.38997814  1.06348338  0.32972523  1
  H+  H161  1  0.61220860  0.11739725  0.14613400  1
  H+  H162  1  0.27380301  0.88530741  0.66777704  1
  H+  H163  1  0.63150138  0.76562366  0.55343385  1
  H+  H164  1  0.39234096  0.53621607  0.65706300  1
  H+  H165  1  0.39164562  0.00429295  0.50445955  1
  H+  H166  1  0.09043171  0.95387404  0.48273091  1
  H+  H167  1  0.14940309  0.84546339  1.04601115  1
  H+  H168  1  0.64838306  0.77781743  0.16877810  1
  H+  H169  1  0.97970464  0.36238436  0.65613271  1
  H+  H170  1  0.14701759  0.65696137  0.31627447  1
  H+  H171  1  0.23827159  0.61757793  0.49628730  1
  H+  H172  1  0.54579436  0.41442936  0.49104821  1
  H+  H173  1  0.63846315  1.02171630  0.65577336  1
  H+  H174  1  0.51570936  0.64592155  0.67386946  1
  H+  H175  1  0.38580593  0.62207723  0.65896569  1
  H+  H176  1  0.36452619  0.73753397  0.82233730  1
  H+  H177  1  0.77033617  0.90173169  0.15723683  1
  H+  H178  1  0.36175459  0.72658444  0.00055554  1
  H+  H179  1  0.72000617  0.85490342  0.65817614  1
  H+  H180  1  0.73539798  0.83206843  0.48541467  1
  H+  H181  1  -0.01585233  0.36010131  0.50316516  1
  H+  H182  1  0.77184664  0.62521688  0.15679201  1
  H+  H183  1  0.12470132  0.37906604  0.49944156  1
  H+  H184  1  0.51034553  0.60803307  1.00825359  1
  H+  H185  1  0.13139341  0.61251873  0.65461339  1
  H+  H186  1  0.10072047  0.71862113  0.53231123  1
  H+  H187  1  0.28455042  0.89384166  0.15919916  1
  H+  H188  1  0.86768725  0.47987740  0.00722343  1
  H+  H189  1  0.64245777  0.85788446  0.33327990  1
  H+  H190  1  0.86958298  0.13815025  0.33343186  1
  H+  H191  1  0.27926565  0.38672728  0.67514635  1
  H+  H192  1  1.00640841  0.63298141  0.99022254  1
  H+  H193  1  0.77546427  0.64293982  0.49496033  1
  H+  H194  1  0.01175264  0.12965708  0.33297805  1
  H+  H195  1  0.63156824  0.48283788  0.68208082  1
  H+  H196  1  0.11224755  0.48465796  0.00413661  1
  H+  H197  1  0.34852022  0.22036779  0.41558678  1
  H+  H198  1  0.87447903  0.23100534  0.49458565  1
  H+  H199  1  0.91279461  0.08087721  0.26234634  1
  H+  H200  1  0.94355160  0.21430327  0.78243073  1
  H+  H201  1  0.10391903  0.67318912  0.25960863  1
  H+  H202  1  0.84873349  -0.03952720  0.82653449  1
  H+  H203  1  0.37090262  0.38618771  0.82740946  1
  H+  H204  1  0.53379655  0.13630168  0.67964821  1
  H+  H205  1  0.52211345  0.87988139  0.15097285  1
  H+  H206  1  0.98112817  0.61356255  0.31788953  1
  H+  H207  1  0.86940203  0.38946968  0.48977909  1
  H+  H208  1  0.88203058  0.10962354  -0.00281632  1
  H+  H209  1  0.23315348  0.86651203  1.00981134  1
  H+  H210  1  0.49060332  0.63118301  0.50266545  1
  H+  H211  1  0.14983281  0.31043722  0.84874940  1
  H+  H212  1  0.35668150  0.18616513  0.74523883  1
  H+  H213  1  0.96565502  0.36821227  0.17560568  1
  H+  H214  1  0.61763581  0.38923589  0.67142805  1
  H+  H215  1  0.39279532  0.02205712  0.66441004  1
  H+  H216  1  0.24533460  0.38312217  0.83976748  1
  H+  H217  1  0.13487883  0.37642604  1.00344093  1
  H+  H218  1  0.88927755  0.27423032  0.65366232  1
  H+  H219  1  -0.03930498  0.84729360  0.66072978  1
  H+  H220  1  0.63875094  0.85994573  0.16226703  1
  H+  H221  1  0.86038549  0.97336930  0.67093768  1
  H+  H222  1  0.15685936  0.60885066  0.19192356  1
  H+  H223  1  0.35980015  0.23633805  0.01195169  1
  H+  H224  1  -0.03793268  0.84440528  0.82342044  1
  H+  H225  1  0.88434937  0.76970559  0.14956825  1
  H+  H226  1  0.87680608  0.35650317  0.32536948  1
  H+  H227  1  0.96146980  0.94168553  0.55160335  1
  H+  H228  1  0.81023963  0.63751486  0.74329535  1
  H+  H229  1  0.88112370  0.11158051  0.65711123  1
  H+  H230  1  0.35702989  0.64481375  0.82471234  1
  H+  H231  1  0.65567439  0.12992767  0.50094879  1
  H+  H232  1  0.64093827  0.61270160  0.17010540  1
  H+  H233  1  0.88354442  1.03026489  0.16994767  1
  H+  H234  1  0.12407103  0.63306854  1.00681676  1
  H+  H235  1  0.58685314  0.66006283  0.10459558  1
  H+  H236  1  0.08809184  0.42304419  0.72909746  1
  H+  H237  1  0.10158758  0.95905752  0.80795033  1
  H+  H238  1  0.24136885  0.14726814  0.65873502  1
  H+  H239  1  0.38771322  0.86653154  0.83527948  1
  H+  H240  1  0.40726699  0.31004289  0.49439708  1
  H+  H241  1  -0.03353046  0.60773860  0.52847425  1
  H+  H242  1  0.58078715  0.14903959  0.07711374  1
  H+  H243  1  0.77654654  0.39315201  0.00751396  1
  H+  H244  1  0.85029011  0.87189018  0.81929993  1
  H+  H245  1  0.72840417  0.10881896  0.99132522  1
  H+  H246  1  1.01772564  0.63468291  0.67065263  1
  H+  H247  1  0.14467716  0.03671647  0.32273096  1
  H+  H248  1  0.14340701  0.40852027  0.33983310  1
  H+  H249  1  0.28145319  0.13667363  0.15883953  1
  H+  H250  1  0.52063989  0.86906076  0.33540426  1
  H+  H251  1  0.16319882  0.09267240  0.90611023  1
  H+  H252  1  0.40449522  0.29517652  0.66903008  1
  H+  H253  1  0.38857148  0.26535869  0.16784654  1
  H+  H254  1  0.39591746  0.87346415  0.50464047  1
  H+  H255  1  0.89354210  0.24483598  0.82309972  1
  H+  H256  1  0.12775590  0.00028370  0.89025245  1
  H+  H257  1  0.78914432  -0.06719327  0.48728648  1
  H+  H258  1  0.32392433  0.66661163  0.42503314  1
  H+  H259  1  0.39707000  0.52625160  0.17051266  1
  H+  H260  1  0.62947549  0.24076811  0.49270574  1
  H+  H261  1  0.11637898  0.23152490  0.16365438  1
  H+  H262  1  0.65864729  0.07317154  0.21894956  1
  H+  H263  1  0.64298586  0.37263954  0.16686733  1
  H+  H264  1  0.37061259  0.59688354  0.34122177  1
  H+  H265  1  0.37098121  0.49637055  0.48689114  1
  H+  H266  1  0.11559357  0.49373865  0.82171904  1
  H+  H267  1  0.23129886  0.61497088  0.98791470  1
  H+  H268  1  0.57100278  0.40272498  -0.03780837  1
  H+  H269  1  0.50291089  0.12670180  0.51009996  1
  H+  H270  1  0.88148965  0.01795420  0.32147423  1
  H+  H271  1  0.86701512  0.38501765  0.82813694  1
  H+  H272  1  0.37657235  0.83016270  0.31125464  1
  H+  H273  1  0.40035671  0.11461716  0.66669275  1
  H+  H274  1  0.38339906  0.61683528  0.99527696  1
  H+  H275  1  0.78005088  0.13972330  0.49519750  1
  H+  H276  1  0.13098162  0.85754394  0.83366204  1
  H+  H277  1  0.89063468  0.76943249  0.98468624  1
  H+  H278  1  0.84316365  0.60577124  0.67092653  1
  H+  H279  1  0.37773135  0.52439300  0.99936786  1
  H+  H280  1  0.11433972  0.22222563  0.67561627  1
  H+  H281  1  0.38905795  0.02149972  0.83347592  1
  H+  H282  1  0.06671583  0.16309881  0.42002081  1
  H+  H283  1  0.84666780  0.67799461  0.39926129  1
  H+  H284  1  0.12951283  0.13091737  0.99840330  1
  H+  H285  1  0.97325899  0.86581018  0.31854507  1
  H+  H286  1  0.76813822  0.38611505  0.16114969  1
  H+  H287  1  0.26510807  0.12293845  0.83461226  1
  H+  H288  1  0.83276292  0.65409456  0.09768255  1
  H+  H289  1  0.16862226  0.58834847  0.92871807  1
  H+  H290  1  0.41736081  0.81700757  0.22426466  1
  H+  H291  1  0.63589139  0.52130797  0.16502663  1
  H+  H292  1  0.60625862  0.14390617  0.33580577  1
  H+  H293  1  0.97867381  0.68689677  0.95077788  1
  H+  H294  1  0.59953083  0.42107974  0.39400884  1
  H+  H295  1  0.33876724  0.95162903  0.41438677  1
  H+  H296  1  0.64621140  0.36009765  0.85152494  1
  H+  H297  1  0.64666986  0.28474696  1.00210486  1
  H+  H298  1  0.57853259  0.90659071  0.05692868  1
  H+  H299  1  0.07745816  0.63606630  0.42178265  1
  H+  H300  1  0.84568636  0.17056147  0.39434920  1
  H+  H301  1  0.65833014  0.57595990  0.26483228  1
  H+  H302  1  0.16312561  0.83488451  0.89492232  1
  H+  H303  1  0.83173369  0.90802740  0.39341317  1
  H+  H304  1  0.17275070  0.09659942  0.22988087  1
  H+  H305  1  0.07271301  0.91304068  0.38439463  1
  H+  H306  1  0.11978622  0.90136959  0.96947931  1
  H+  H307  1  0.87963843  0.51429477  0.17629372  1
  H+  H308  1  0.16442763  0.82732997  0.59675197  1
  H+  H309  1  0.44575240  0.09662401  0.57116155  1
  H+  H310  1  0.66016405  0.82679518  0.89873492  1
  H+  H311  1  0.66974688  0.07854197  0.93110841  1
  H+  H312  1  0.38970404  0.57148922  0.90913625  1
  H+  H313  1  0.07712088  0.43552647  0.06744495  1
  H+  H314  1  0.07830650  0.63416047  0.10840313  1
  H+  H315  1  0.17342928  0.35585141  0.94469348  1
  H+  H316  1  0.92222536  0.33377523  0.56099489  1
  H+  H317  1  0.34472467  0.41980882  0.73574112  1
  H+  H318  1  0.91230288  0.58059473  0.26549441  1
  H+  H319  1  0.86604320  0.13689856  0.15914992  1
  H+  H320  1  0.57330265  0.39239332  0.76489668  1
  H+  H321  1  0.13494278  0.62093224  0.83514674  1
  H+  H322  1  0.37929586  0.94028205  0.35523160  1
  H+  H323  1  0.84937501  0.91710754  0.11512592  1
  H+  H324  1  0.57780054  0.67479762  0.73768889  1
  H+  H325  1  0.28425574  0.63500516  0.15800251  1
  H+  H326  1  0.88087762  0.61066304  0.50906017  1
  H+  H327  1  0.07751646  0.66426753  0.72940640  1
  H+  H328  1  0.07866416  0.15013962  0.72797111  1
  H+  H329  1  0.91056282  0.07633255  0.93938184  1
  H+  H330  1  0.90216269  0.32292916  0.26037284  1
  H+  H331  1  0.11202109  0.05558406  0.57853982  1
  H+  H332  1  -0.02339579  0.36617776  -0.00570033  1
  H+  H333  1  0.90388646  0.81646114  0.92010087  1
  H+  H334  1  0.10510570  0.23724038  0.00967246  1
  H+  H335  1  0.18458969  0.34110660  0.60817543  1
  H+  H336  1  0.67721983  0.58672426  0.89699580  1
  H+  H337  1  0.08345240  0.17478370  0.10308646  1
  H+  H338  1  0.43257300  0.35666169  0.55972493  1
  H+  H339  1  0.13095576  0.76758444  0.65574433  1
  H+  H340  1  0.41175283  0.33653128  0.90627003  1
  H+  H341  1  0.72396833  0.61005411  0.62385458  1
  H+  H342  1  0.91803457  0.09197515  0.56827776  1
  H+  H343  1  0.89459914  0.57352251  0.60393622  1
  H+  H344  1  0.58272554  0.91197560  0.72637518  1
  H+  H345  1  0.41968209  0.83544181  0.59508697  1
  H+  H346  1  0.33085272  0.67194397  0.72811014  1
  H+  H347  1  0.20798618  0.59689361  0.24786141  1
  H+  H348  1  0.83550838  0.41162904  0.73321066  1
  H+  H349  1  0.90050662  0.83743935  0.60131299  1
  H+  H350  1  0.83402226  0.41566626  0.10337378  1
  H+  H351  1  0.07162426  0.89689385  0.75147626  1
  H+  H352  1  0.82823448  0.91319605  0.73174622  1
  H+  H353  1  0.83691719  0.17096034  0.72391522  1
  H+  H354  1  0.20316896  0.28026567  0.53380415  1
  H+  H355  1  0.91862127  0.58282508  0.89005944  1
  H+  H356  1  0.42792000  0.07292803  0.93142810  1
  H+  H357  1  0.33029126  0.66583331  0.06061876  1
  H+  H358  1  0.65471195  0.63105031  0.51453621  1
  H+  H359  1  0.42354795  0.60129955  0.55726210  1
  H+  H360  1  1.02605204  0.88998459  0.96025077  1
  H+  H361  1  0.57608498  0.41097726  0.08952204  1
  H+  H362  1  0.13244982  0.04329490  0.98735813  1
  H+  H363  1  0.87973557  0.13118286  0.50382432  1
  H+  H364  1  0.12484316  0.66857848  0.42093937  1
  H+  H365  1  0.12560453  -0.00498476  0.16147944  1
  H+  H366  1  0.43095243  0.09842438  0.22639532  1
  H+  H367  1  0.63526191  0.85542455  0.98487803  1
  H+  H368  1  0.58136247  0.91727404  0.39319082  1
  H+  H369  1  0.36839279  0.47581562  0.82658036  1
  H+  H370  1  0.58904109  0.66650132  0.41016261  1
  H+  H371  1  0.16511126  0.58444962  0.59663259  1
  H+  H372  1  0.34170001  0.91481845  0.06771646  1
  H+  H373  1  0.67053896  0.34348289  0.22782373  1
  H+  H374  1  0.11593081  0.43380545  0.40089154  1
  H+  H375  1  0.88327862  0.60553198  0.17154502  1
  H+  H376  1  0.17134937  0.33504412  0.23917346  1
  H+  H377  1  0.33652742  0.16669609  0.09693141  1
  H+  H378  1  0.83955974  0.41658578  0.39581294  1
  H+  H379  1  0.67740532  0.09178003  0.56034255  1
  H+  H380  1  0.59768252  0.18156461  0.43259116  1
  H+  H381  1  0.13145803  0.27287278  0.32569982  1
  H+  H382  1  0.59530186  0.17004836  0.73783314  1
  H+  H383  1  0.61030638  0.96911970  0.82164544  1
  O2-  O384  1  0.08588168  0.17137031  0.14828172  1
  O2-  O385  1  0.06873653  0.16666000  0.46740930  1
  O2-  O386  1  0.06334137  0.11929453  0.81012060  1
  O2-  O387  1  0.05995152  0.45473915  0.14339137  1
  O2-  O388  1  0.09358235  0.40769905  0.48524313  1
  O2-  O389  1  0.08735832  0.43173949  0.80823125  1
  O2-  O390  1  0.06701684  0.60971119  0.15008726  1
  O2-  O391  1  0.07158403  0.65893144  0.54708718  1
  O2-  O392  1  0.07804453  0.66483273  0.80725103  1
  O2-  O393  1  0.09892364  0.93315041  0.14806378  1
  O2-  O394  1  0.05849517  0.89406288  0.46943760  1
  O2-  O395  1  0.07285461  0.89812686  0.79703130  1
  O2-  O396  1  0.34127968  0.16304511  0.14300730  1
  O2-  O397  1  0.35206826  0.22105405  0.46077600  1
  O2-  O398  1  0.32501659  0.16042243  0.82087938  1
  O2-  O399  1  0.33978490  0.41308463  0.14823939  1
  O2-  O400  1  0.34112462  0.43314802  0.47816728  1
  O2-  O401  1  0.34392972  0.41787616  0.80708413  1
  O2-  O402  1  0.33854587  0.66501050  0.13410331  1
  O2-  O403  1  0.33212188  0.67310337  0.47106310  1
  O2-  O404  1  0.33132915  0.67667554  0.80589877  1
  O2-  O405  1  0.34624310  0.91950860  0.14444040  1
  O2-  O406  1  0.35229605  0.94178177  0.48797938  1
  O2-  O407  1  0.33374395  0.91659322  0.80776766  1
  O2-  O408  1  0.57950199  0.14519245  0.12842182  1
  O2-  O409  1  0.60377201  0.18016763  0.47780626  1
  O2-  O410  1  0.58955153  0.16837475  0.81834232  1
  O2-  O411  1  0.57997753  0.41549334  0.13415988  1
  O2-  O412  1  0.60698225  0.44208604  0.47838374  1
  O2-  O413  1  0.55698958  0.36136754  0.80487621  1
  O2-  O414  1  0.59188799  0.66704280  0.14909180  1
  O2-  O415  1  0.59475210  0.67352371  0.49261795  1
  O2-  O416  1  0.58322642  0.67006136  0.80932012  1
  O2-  O417  1  0.58047096  0.90952878  0.13204822  1
  O2-  O418  1  0.58945961  0.92691883  0.46678174  1
  O2-  O419  1  0.57881950  0.90944379  0.80562054  1
  O2-  O420  1  0.83248850  0.16391372  0.14196647  1
  O2-  O421  1  0.84394100  0.16779081  0.48191797  1
  O2-  O422  1  0.88607745  0.19309488  0.79913658  1
  O2-  O423  1  0.83224119  0.41308055  0.14844115  1
  O2-  O424  1  0.83749847  0.41767156  0.47476403  1
  O2-  O425  1  0.83515165  0.41328993  0.81199234  1
  O2-  O426  1  0.83330131  0.65151103  0.14280918  1
  O2-  O427  1  0.83731262  0.67007857  0.47715900  1
  O2-  O428  1  0.81828303  0.64498244  0.80010024  1
  O2-  O429  1  0.82908157  0.94688550  0.14157105  1
  O2-  O430  1  0.79512199  0.88302157  0.47800176  1
  O2-  O431  1  0.82068366  0.90360087  0.80540927  1
  O2-  O432  1  0.17521562  0.09517390  0.18469433  1
  O2-  O433  1  0.17338193  0.11150065  0.51059320  1
  O2-  O434  1  0.15193635  0.05635023  0.86802033  1
  O2-  O435  1  0.17348890  0.33569253  0.19262770  1
  O2-  O436  1  0.19632412  0.33066063  0.52974741  1
  O2-  O437  1  0.18949249  0.37002078  0.85932929  1
  O2-  O438  1  0.19378674  0.58498837  0.20365349  1
  O2-  O439  1  0.17344738  0.58215390  0.50639715  1
  O2-  O440  1  0.16748167  0.59240864  0.84987072  1
  O2-  O441  1  0.18613112  0.85226601  0.18112399  1
  O2-  O442  1  0.16118884  0.83087784  0.50827192  1
  O2-  O443  1  0.16348989  0.83042573  0.85066098  1
  O2-  O444  1  0.42922277  0.08918216  0.18168611  1
  O2-  O445  1  0.44307676  0.09444759  0.52631275  1
  O2-  O446  1  0.42140212  0.08120958  0.85019041  1
  O2-  O447  1  0.41621747  0.32425253  0.18644274  1
  O2-  O448  1  0.43817086  0.36803055  0.51589473  1
  O2-  O449  1  0.40621548  0.32801937  0.86070766  1
  O2-  O450  1  0.42881587  0.58806415  0.18054193  1
  O2-  O451  1  0.42627168  0.60166879  0.51250954  1
  O2-  O452  1  0.36728091  0.55961030  0.86507984  1
  O2-  O453  1  0.41973675  0.82563079  0.17922760  1
  O2-  O454  1  0.42251512  0.83911041  0.51788665  1
  O2-  O455  1  0.41586169  0.83430062  0.85077840  1
  O2-  O456  1  0.66575499  0.07638004  0.17393903  1
  O2-  O457  1  0.68527139  0.09784497  0.51541468  1
  O2-  O458  1  0.66456932  0.07663223  0.84970805  1
  O2-  O459  1  0.67623128  0.34636445  0.18272661  1
  O2-  O460  1  0.67409662  0.34294120  0.52150196  1
  O2-  O461  1  0.67797846  0.33220557  0.86648167  1
  O2-  O462  1  0.67058938  0.58003698  0.18216946  1
  O2-  O463  1  0.68854862  0.60199774  0.52715131  1
  O2-  O464  1  0.67614572  0.58772864  0.85113964  1
  O2-  O465  1  0.67596884  0.83947150  0.17951293  1
  O2-  O466  1  0.63648658  0.76595797  0.50896440  1
  O2-  O467  1  0.65513106  0.82387883  0.85100696  1
  O2-  O468  1  0.91690227  0.09164201  0.18937478  1
  O2-  O469  1  0.91532314  0.09391727  0.52206603  1
  O2-  O470  1  0.90129861  0.06222276  0.85765655  1
  O2-  O471  1  0.90591003  0.32856481  0.18979893  1
  O2-  O472  1  0.92233196  0.33037296  0.51545836  1
  O2-  O473  1  0.92426406  0.33847713  0.85465676  1
  O2-  O474  1  0.91281239  0.57551725  0.19061382  1
  O2-  O475  1  0.90207106  0.57467347  0.52891597  1
  O2-  O476  1  0.91113488  0.57784046  0.84526629  1
  O2-  O477  1  0.91079682  0.83230599  0.14334409  1
  O2-  O478  1  0.92318352  0.88309660  0.53622271  1
  O2-  O479  1  0.90191247  0.81646115  0.83833649  1
  O2-  O480  1  0.16738050  0.09689974  0.30927146  1
  O2-  O481  1  0.06637554  0.02520085  0.60934993  1
  O2-  O482  1  0.16414213  0.10593823  0.98056125  1
  O2-  O483  1  0.16780016  0.33264732  0.31093640  1
  O2-  O484  1  0.18252405  0.34086541  0.65364068  1
  O2-  O485  1  0.16602747  0.34617629  0.98889778  1
  O2-  O486  1  0.22017395  0.61407715  0.32708042  1
  O2-  O487  1  0.16411687  0.58361041  0.64132873  1
  O2-  O488  1  0.16924824  0.58427367  0.97403188  1
  O2-  O489  1  0.17798386  0.85383978  0.31012509  1
  O2-  O490  1  0.16008690  0.82898885  0.64121027  1
  O2-  O491  1  0.16747872  0.83727003  1.00587310  1
  O2-  O492  1  0.42533039  0.11789833  0.30772743  1
  O2-  O493  1  0.43022746  0.08413794  0.65341403  1
  O2-  O494  1  0.43570624  0.07408464  0.97599074  1
  O2-  O495  1  0.37312509  0.28891446  0.30606553  1
  O2-  O496  1  0.42638261  0.35461856  0.65156510  1
  O2-  O497  1  0.41568552  0.34593997  0.98258678  1
  O2-  O498  1  0.41315575  0.57738514  0.34278785  1
  O2-  O499  1  0.42228866  0.59694437  0.64481037  1
  O2-  O500  1  0.40992275  0.58243376  0.97940672  1
  O2-  O501  1  0.40890734  0.80159515  0.30175496  1
  O2-  O502  1  0.41889657  0.83677069  0.64084295  1
  O2-  O503  1  0.41301861  0.82915559  0.97580339  1
  O2-  O504  1  0.60915611  0.05512041  0.29132738  1
  O2-  O505  1  0.67049887  0.08294122  0.64197650  1
  O2-  O506  1  0.66752217  0.07844438  0.97620510  1
  O2-  O507  1  0.66857985  0.33392768  0.30759975  1
  O2-  O508  1  0.66713326  0.33614484  0.64903011  1
  O2-  O509  1  0.67826840  0.34404574  0.98647261  1
  O2-  O510  1  0.65589747  0.56995912  0.30957466  1
  O2-  O511  1  0.71968133  0.59406185  0.66768306  1
  O2-  O512  1  0.68191526  0.58146398  0.97266882  1
  O2-  O513  1  0.67618924  0.82887767  0.32742009  1
  O2-  O514  1  0.65878125  0.82230825  0.64556563  1
  O2-  O515  1  0.66482778  0.82692292  0.96625367  1
  O2-  O516  1  0.91245696  0.07955787  0.30868522  1
  O2-  O517  1  0.91208178  0.08116070  0.64213891  1
  O2-  O518  1  0.91619253  0.08225436  0.98416051  1
  O2-  O519  1  0.90198528  0.32101640  0.30726207  1
  O2-  O520  1  0.92010776  0.33529526  0.63966222  1
  O2-  O521  1  0.91733948  0.33378750  0.97683102  1
  O2-  O522  1  0.91852377  0.58392742  0.31140018  1
  O2-  O523  1  0.89642472  0.57513173  0.65001761  1
  O2-  O524  1  0.95654485  0.62798666  0.96466829  1
  O2-  O525  1  0.90990504  0.82826663  0.31172704  1
  O2-  O526  1  0.89796003  0.82589210  0.64713289  1
  O2-  O527  1  0.91943094  0.82668866  0.96379940  1
  O2-  O528  1  0.07764857  0.17686085  0.02443909  1
  O2-  O529  1  0.07140983  0.16260618  0.35140008  1
  O2-  O530  1  0.07640609  0.16007898  0.68391690  1
  O2-  O531  1  0.08044388  0.42604273  0.02306685  1
  O2-  O532  1  0.12944039  0.45076817  0.35804990  1
  O2-  O533  1  0.08959996  0.41726927  0.68390422  1
  O2-  O534  1  0.09279895  0.65957891  0.02794246  1
  O2-  O535  1  0.10777920  0.67848687  0.30383828  1
  O2-  O536  1  0.07848894  0.66461230  0.68382323  1
  O2-  O537  1  0.08937143  0.92987534  -0.04682109  1
  O2-  O538  1  0.07891494  0.92144182  0.34002649  1
  O2-  O539  1  0.05819618  0.89289697  0.67409486  1
  O2-  O540  1  0.32919504  0.17623154  0.02625447  1
  O2-  O541  1  0.33695751  0.20348404  0.33540234  1
  O2-  O542  1  0.39139693  0.20745488  0.70687015  1
  O2-  O543  1  0.33271907  0.42410263  0.02849012  1
  O2-  O544  1  0.32317019  0.39258004  0.35198430  1
  O2-  O545  1  0.34290856  0.41824493  0.68888764  1
  O2-  O546  1  0.32989800  0.66502105  0.01449160  1
  O2-  O547  1  0.31093004  0.65418286  0.35025993  1
  O2-  O548  1  0.33196871  0.66925759  0.68260609  1
  O2-  O549  1  0.33350176  0.91047621  0.02228773  1
  O2-  O550  1  0.33561568  0.95365026  0.36847270  1
  O2-  O551  1  0.33344578  0.91517137  0.68365335  1
  O2-  O552  1  0.58698934  0.15919007  0.01819736  1
  O2-  O553  1  0.58514047  0.17978751  0.35462020  1
  O2-  O554  1  0.59542042  0.17002530  0.69245999  1
  O2-  O555  1  0.59463054  0.41972440  0.00305768  1
  O2-  O556  1  0.59491361  0.41249916  0.34961884  1
  O2-  O557  1  0.58908707  0.42130164  0.68834479  1
  O2-  O558  1  0.55843893  0.60527098  0.02887793  1
  O2-  O559  1  0.58459286  0.66383015  0.36496868  1
  O2-  O560  1  0.57698739  0.67713987  0.69103284  1
  O2-  O561  1  0.57704881  0.90625952  0.01107568  1
  O2-  O562  1  0.57975428  0.91270413  0.34712860  1
  O2-  O563  1  0.58561417  0.91354902  0.68084126  1
  O2-  O564  1  0.83052857  0.16416901  0.01919702  1
  O2-  O565  1  0.84477984  0.17365825  0.34972657  1
  O2-  O566  1  0.83351929  0.16701992  0.67896756  1
  O2-  O567  1  0.83919323  0.42040065  0.02099017  1
  O2-  O568  1  0.84121525  0.41473453  0.35034799  1
  O2-  O569  1  0.83430057  0.41410303  0.68775536  1
  O2-  O570  1  0.83989698  0.66811569  0.01743474  1
  O2-  O571  1  0.85594102  0.68615188  0.35441013  1
  O2-  O572  1  0.80957377  0.63819341  0.68924943  1
  O2-  O573  1  0.82620387  0.90178567  0.01215631  1
  O2-  O574  1  0.83415228  0.91036646  0.34868690  1
  O2-  O575  1  0.83136612  0.91255815  0.68554120  1
