# generated using pymatgen
data_H2O
_symmetry_space_group_name_H-M   'P 1'
_cell_length_a   17.99820983
_cell_length_b   17.98996030
_cell_length_c   22.01238213
_cell_angle_alpha   89.98136678
_cell_angle_beta   89.98265599
_cell_angle_gamma   119.99265345
_symmetry_Int_Tables_number   1
_chemical_formula_structural   H2O
_chemical_formula_sum   'H384 O192'
_cell_volume   6172.90012877
_cell_formula_units_Z   192
loop_
 _symmetry_equiv_pos_site_id
 _symmetry_equiv_pos_as_xyz
  1  'x, y, z'
loop_
 _atom_type_symbol
 _atom_type_oxidation_number
  H+  1.0
  O2-  -2.0
loop_
 _atom_site_type_symbol
 _atom_site_label
 _atom_site_symmetry_multiplicity
 _atom_site_fract_x
 _atom_site_fract_y
 _atom_site_fract_z
 _atom_site_occupancy
  H+  H0  1  0.72454656  0.87883412  0.83980984  1
  H+  H1  1  0.04188661  -0.11355367  0.49302236  1
  H+  H2  1  0.60970410  0.89658950  0.82222554  1
  H+  H3  1  1.03401070  0.65409496  0.49375865  1
  H+  H4  1  0.35606284  0.88167034  0.82277863  1
  H+  H5  1  0.02246001  0.13675295  0.69372332  1
  H+  H6  1  0.47414251  0.35812710  0.65263654  1
  H+  H7  1  0.13577901  0.16530526  0.48269933  1
  H+  H8  1  0.22347744  0.86658571  0.83208714  1
  H+  H9  1  0.61599372  0.35239546  0.83937769  1
  H+  H10  1  0.12176921  0.64610056  0.33942216  1
  H+  H11  1  0.13574199  0.77431723  0.82935473  1
  H+  H12  1  0.28196823  0.89176750  0.99251777  1
  H+  H13  1  0.13190396  0.28429260  0.17863404  1
  H+  H14  1  0.22931053  0.61099433  0.65915822  1
  H+  H15  1  0.47148312  0.35635951  0.32736155  1
  H+  H16  1  0.88020233  0.75590376  0.49214855  1
  H+  H17  1  0.03187179  0.15260814  0.84168393  1
  H+  H18  1  0.83983649  0.85055645  0.48856042  1
  H+  H19  1  0.37701659  0.34930513  0.17423695  1
  H+  H20  1  0.63322798  0.86370193  0.66464190  1
  H+  H21  1  0.62213262  0.87543201  0.99492089  1
  H+  H22  1  0.11663712  0.11237384  0.32619004  1
  H+  H23  1  0.64867053  0.14901921  0.35157242  1
  H+  H24  1  0.37187618  0.75751083  0.50725949  1
  H+  H25  1  0.85476557  0.63713549  0.32279723  1
  H+  H26  1  0.63090083  0.61228340  0.99757843  1
  H+  H27  1  0.60290702  0.62321861  0.15926362  1
  H+  H28  1  -0.03095987  0.62897199  0.20555343  1
  H+  H29  1  0.31133182  0.88329318  0.08817083  1
  H+  H30  1  0.71540816  0.11415435  0.83754414  1
  H+  H31  1  0.36838759  0.38348064  0.01721579  1
  H+  H32  1  0.76399864  0.88421943  0.66623117  1
  H+  H33  1  0.59689260  0.99647389  0.00464012  1
  H+  H34  1  0.37093218  0.09844388  0.50280864  1
  H+  H35  1  0.51377551  0.37688093  0.16386438  1
  H+  H36  1  1.09506388  0.16561636  0.38500059  1
  H+  H37  1  0.85236872  0.94188890  0.48121330  1
  H+  H38  1  0.88892320  0.76316756  0.98851859  1
  H+  H39  1  0.77312474  0.38231602  0.66644585  1
  H+  H40  1  0.64642739  0.76234402  0.17490111  1
  H+  H41  1  0.14474318  0.61297918  0.98850282  1
  H+  H42  1  0.13821178  0.90719459  0.48717380  1
  H+  H43  1  0.84905735  0.63112360  0.17845570  1
  H+  H44  1  0.46687637  0.85862630  0.83128863  1
  H+  H45  1  0.86135929  0.39770578  0.32145121  1
  H+  H46  1  0.89324788  0.86521201  0.17510013  1
  H+  H47  1  0.11355839  0.23809373  0.47650569  1
  H+  H48  1  0.37030455  0.72588694  0.00172781  1
  H+  H49  1  0.47654281  0.87032469  0.98650436  1
  H+  H50  1  0.95500137  0.70969022  0.95244032  1
  H+  H51  1  0.39021550  0.39398840  0.83820387  1
  H+  H52  1  0.63358016  0.61057484  0.33174541  1
  H+  H53  1  0.08130873  0.13544984  0.14951003  1
  H+  H54  1  0.84731084  0.13880394  0.69339594  1
  H+  H55  1  0.64180714  0.74530229  0.68972850  1
  H+  H56  1  0.35812382  0.62862297  0.66878786  1
  H+  H57  1  0.02488398  0.38402827  0.67017193  1
  H+  H58  1  0.64334007  0.02844239  0.50743427  1
  H+  H59  1  0.90207601  0.73297714  0.68691216  1
  H+  H60  1  0.03441853  0.37588497  0.35494724  1
  H+  H61  1  0.28267842  0.39516497  0.33540520  1
  H+  H62  1  0.09278002  0.76233098  0.17033015  1
  H+  H63  1  0.82413401  0.65345958  0.42157138  1
  H+  H64  1  0.01716076  0.39231238  0.49503535  1
  H+  H65  1  0.61727845  0.46992067  0.01594974  1
  H+  H66  1  0.38697116  0.85631663  0.66070235  1
  H+  H67  1  0.47439145  0.60407246  0.84324202  1
  H+  H68  1  0.27012898  0.88301429  0.34439271  1
  H+  H69  1  0.63560028  0.79253408  0.84650260  1
  H+  H70  1  0.71508640  0.09186118  0.18057231  1
  H+  H71  1  0.87267580  0.36620326  0.84029834  1
  H+  H72  1  0.86124384  0.48947553  0.48161712  1
  H+  H73  1  0.49320555  0.10429192  0.99020218  1
  H+  H74  1  0.65207010  0.57374082  0.23615208  1
  H+  H75  1  0.12815877  0.73966833  0.49151200  1
  H+  H76  1  0.16224240  0.32576256  0.60281955  1
  H+  H77  1  0.39163694  0.77452042  0.33904108  1
  H+  H78  1  0.26893055  0.13071225  0.67160458  1
  H+  H79  1  0.87425507  0.14052943  0.49768017  1
  H+  H80  1  0.12894733  0.52557490  0.83478558  1
  H+  H81  1  0.34685621  0.15916215  0.10912603  1
  H+  H82  1  0.37124067  0.22299097  0.48593659  1
  H+  H83  1  0.61637541  0.72119725  0.34643362  1
  H+  H84  1  0.05735229  0.18651551  0.10735480  1
  H+  H85  1  0.70378816  0.96987305  0.46053890  1
  H+  H86  1  0.94553670  0.28127631  0.60872716  1
  H+  H87  1  0.24671320  0.07499937  0.17519465  1
  H+  H88  1  0.60292780  0.72844509  0.00654078  1
  H+  H89  1  0.85040114  0.12062407  0.52671203  1
  H+  H90  1  0.17169070  0.91471647  0.18900696  1
  H+  H91  1  0.26737640  0.37189371  0.67639888  1
  H+  H92  1  0.13326090  0.26749733  0.66404664  1
  H+  H93  1  0.59674859  0.15712971  0.10519449  1
  H+  H94  1  0.38857281  0.86137676  0.34755040  1
  H+  H95  1  0.13081358  0.01867390  0.64856819  1
  H+  H96  1  0.51297305  0.62039982  0.49808973  1
  H+  H97  1  0.65154156  0.24057861  0.35487218  1
  H+  H98  1  0.72465213  0.37120657  0.32282465  1
  H+  H99  1  0.61704124  0.22009254  0.16265688  1
  H+  H100  1  0.11610136  0.14189164  0.84177847  1
  H+  H101  1  0.49798716  0.38201134  0.86543621  1
  H+  H102  1  0.84960300  0.12022259  0.16705765  1
  H+  H103  1  0.17928383  0.08087348  0.90428550  1
  H+  H104  1  0.91615555  0.11054510  0.91636245  1
  H+  H105  1  0.15231916  0.77665885  0.64302881  1
  H+  H106  1  0.86506246  1.01488054  -0.00627750  1
  H+  H107  1  0.38850488  0.51291916  0.83862266  1
  H+  H108  1  0.86413845  0.97128049  0.15973891  1
  H+  H109  1  0.38151224  0.26102385  0.17602526  1
  H+  H110  1  0.37447256  0.60728779  0.32157539  1
  H+  H111  1  0.35267654  0.22123776  0.33512948  1
  H+  H112  1  0.63139195  0.85601534  0.32874262  1
  H+  H113  1  1.01816292  0.11569358  0.33305607  1
  H+  H114  1  0.37096818  0.39102259  0.33611615  1
  H+  H115  1  0.88668779  0.84059116  0.65856744  1
  H+  H116  1  0.42500113  0.08218979  0.89870883  1
  H+  H117  1  0.76710837  0.62519833  0.48351462  1
  H+  H118  1  0.36844112  0.88769110  0.99656738  1
  H+  H119  1  0.11965918  0.64746088  0.81831898  1
  H+  H120  1  0.78574693  0.55319672  0.86667237  1
  H+  H121  1  0.28079684  0.63773526  -0.00024455  1
  H+  H122  1  0.18127414  0.12353024  0.57483557  1
  H+  H123  1  0.76386374  0.63214344  0.33131023  1
  H+  H124  1  0.68489710  0.58295316  0.82994459  1
  H+  H125  1  0.15798178  0.38147183  0.33208709  1
  H+  H126  1  0.11584513  0.60828648  0.17834813  1
  H+  H127  1  0.96387178  0.84269302  0.83124839  1
  H+  H128  1  0.73040113  0.10274167  0.32163937  1
  H+  H129  1  0.62906930  0.09483095  0.18037637  1
  H+  H130  1  0.47537646  0.60275976  0.17435187  1
  H+  H131  1  0.12822312  1.02254184  0.84955059  1
  H+  H132  1  0.89380704  0.10752586  0.33362127  1
  H+  H133  1  0.90724680  0.61459041  0.66636056  1
  H+  H134  1  0.88099634  0.38384011  0.49287965  1
  H+  H135  1  0.14005585  0.77482788  0.32776320  1
  H+  H136  1  0.77191625  0.39834979  0.47894731  1
  H+  H137  1  0.50935146  0.86763976  0.14213278  1
  H+  H138  1  0.27257528  0.12760211  0.82737105  1
  H+  H139  1  0.12830627  0.47860339  0.00993556  1
  H+  H140  1  0.13854644  0.52331772  0.65935293  1
  H+  H141  1  0.27190990  0.63032769  0.33169226  1
  H+  H142  1  0.10993506  0.88007728  0.83365827  1
  H+  H143  1  0.85253182  0.50519117  0.01617483  1
  H+  H144  1  0.87549504  0.84255740  0.82995705  1
  H+  H145  1  0.72016838  0.85605470  0.32693001  1
  H+  H146  1  0.32835055  0.95816920  0.50511648  1
  H+  H147  1  0.85871287  0.72171078  0.78511024  1
  H+  H148  1  0.85326902  0.60535548  0.81776392  1
  H+  H149  1  0.62494291  0.48446842  0.66255919  1
  H+  H150  1  0.75844202  0.33465567  0.03475083  1
  H+  H151  1  0.20691700  0.38017383  0.84768900  1
  H+  H152  1  0.88460174  0.77334929  0.32461014  1
  H+  H153  1  0.07500275  0.11624500  0.04471720  1
  H+  H154  1  0.35903213  0.21835480  0.67005554  1
  H+  H155  1  0.11320443  0.38482392  0.67449643  1
  H+  H156  1  0.88850181  0.61681597  0.49803537  1
  H+  H157  1  1.03439760  0.88144518  0.99695614  1
  H+  H158  1  0.51470515  0.12834896  0.82487351  1
  H+  H159  1  0.23424997  0.33075445  0.99381514  1
  H+  H160  1  0.12391129  0.03739247  0.13848369  1
  H+  H161  1  0.88555618  0.77422585  0.18099076  1
  H+  H162  1  0.36257769  -0.02605634  0.82563669  1
  H+  H163  1  0.72709268  0.34677525  0.84333884  1
  H+  H164  1  0.01394105  0.37791222  0.14905020  1
  H+  H165  1  0.87111124  0.22621043  0.32276690  1
  H+  H166  1  0.09643761  0.68004623  0.75774601  1
  H+  H167  1  0.20616378  0.85265409  0.55576540  1
  H+  H168  1  0.25581598  0.85983913  0.14907266  1
  H+  H169  1  0.62985903  0.26725179  0.50196730  1
  H+  H170  1  0.13348116  0.28115176  0.84275646  1
  H+  H171  1  0.38092448  0.76654694  0.83280894  1
  H+  H172  1  0.62268350  0.01561079  0.82718541  1
  H+  H173  1  0.13326513  0.36572533  0.51001659  1
  H+  H174  1  0.87576261  0.02874277  0.68375455  1
  H+  H175  1  0.63065140  0.51897917  0.32871904  1
  H+  H176  1  0.89366493  0.52191439  0.65425224  1
  H+  H177  1  0.37392165  0.50602080  0.49669763  1
  H+  H178  1  0.51837110  0.63519490  0.00478126  1
  H+  H179  1  0.71512531  0.11178946  0.66579454  1
  H+  H180  1  0.38376928  0.35431162  0.65704305  1
  H+  H181  1  0.12472899  0.64342029  0.66272600  1
  H+  H182  1  0.13562798  0.37430902  0.17410475  1
  H+  H183  1  0.39890048  0.02259264  0.98943517  1
  H+  H184  1  0.03686290  0.64377306  0.65964488  1
  H+  H185  1  0.88648276  0.53229958  0.30027698  1
  H+  H186  1  0.62128877  0.35125290  0.17946913  1
  H+  H187  1  -0.03407138  0.11640891  0.17964172  1
  H+  H188  1  0.66987446  0.63107390  0.67227821  1
  H+  H189  1  0.13757881  0.61756738  0.50638112  1
  H+  H190  1  0.82177549  0.25412998  0.46826788  1
  H+  H191  1  0.76403011  0.63039281  0.01827637  1
  H+  H192  1  0.62882225  0.20585263  1.00670669  1
  H+  H193  1  0.91694455  0.09718491  0.63214967  1
  H+  H194  1  0.09085020  0.38553742  0.82931839  1
  H+  H195  1  0.16042058  0.00049572  0.98949442  1
  H+  H196  1  0.83561928  0.47341918  0.82442558  1
  H+  H197  1  0.85014214  0.15010144  0.84037212  1
  H+  H198  1  0.78222193  0.87701045  0.16060887  1
  H+  H199  1  0.11923239  0.87855564  1.00401508  1
  H+  H200  1  0.58227921  0.16240412  0.44112765  1
  H+  H201  1  0.14988208  0.77454484  -0.01441666  1
  H+  H202  1  0.39676482  0.27157712  1.00537341  1
  H+  H203  1  0.61159645  0.47197064  0.49713286  1
  H+  H204  1  0.39084711  0.14219145  1.01239791  1
  H+  H205  1  1.03541585  0.40064699  1.00954114  1
  H+  H206  1  0.38641328  0.10727309  0.84003390  1
  H+  H207  1  0.60632648  -0.02753343  0.66856552  1
  H+  H208  1  0.35831998  0.62347558  0.15705998  1
  H+  H209  1  0.22339430  0.60878687  0.83355317  1
  H+  H210  1  0.70867644  0.12783575  0.50207584  1
  H+  H211  1  0.17013427  0.83129626  0.92486468  1
  H+  H212  1  0.10636628  0.20466913  1.00849598  1
  H+  H213  1  0.85946111  0.87862900  0.33549443  1
  H+  H214  1  0.66243135  0.57317339  0.94400510  1
  H+  H215  1  0.96925454  0.38266274  0.27564934  1
  H+  H216  1  0.62485699  0.66608966  0.86051429  1
  H+  H217  1  0.63542336  0.48690977  0.84988366  1
  H+  H218  1  0.22064915  0.36184142  0.50407510  1
  H+  H219  1  0.88466589  0.01273943  0.33413338  1
  H+  H220  1  0.38632303  0.02066896  0.33286114  1
  H+  H221  1  0.89318443  0.37089055  0.00560340  1
  H+  H222  1  0.87060760  0.97000739  0.82277001  1
  H+  H223  1  0.85640209  0.63838276  0.01467826  1
  H+  H224  1  0.85571361  0.92950191  0.63471703  1
  H+  H225  1  0.71326437  0.60353109  0.17828389  1
  H+  H226  1  0.37849367  0.13227081  0.16987450  1
  H+  H227  1  0.71355024  0.84028911  0.51443163  1
  H+  H228  1  0.82735140  0.12008235  0.01365905  1
  H+  H229  1  0.32931599  0.40851573  0.42763853  1
  H+  H230  1  0.35287499  0.62218526  0.48674779  1
  H+  H231  1  0.89582345  0.51981275  1.02996710  1
  H+  H232  1  0.47516060  0.35985674  0.50180741  1
  H+  H233  1  0.86249184  0.38491714  0.67155116  1
  H+  H234  1  0.64206375  0.36242554  0.65108513  1
  H+  H235  1  0.23694390  0.21772318  0.55096250  1
  H+  H236  1  0.85368455  0.39443820  0.17815029  1
  H+  H237  1  0.45554679  0.09213944  0.50292327  1
  H+  H238  1  0.88010104  0.26067012  0.66123553  1
  H+  H239  1  0.36735654  0.97582991  0.66971065  1
  H+  H240  1  0.27909887  0.14603399  0.49301844  1
  H+  H241  1  1.00036862  0.08525597  0.46605514  1
  H+  H242  1  0.38549805  0.51100798  0.17575484  1
  H+  H243  1  0.51836361  0.88014443  0.66804306  1
  H+  H244  1  0.38433223  0.51715532  0.32393398  1
  H+  H245  1  0.35580784  0.37517487  0.48721705  1
  H+  H246  1  0.45444722  0.58346710  0.64201220  1
  H+  H247  1  0.86710975  0.32088885  0.11803985  1
  H+  H248  1  0.96500345  0.20369310  0.88916985  1
  H+  H249  1  0.60685667  0.38074608  0.34222347  1
  H+  H250  1  0.64012018  0.34731593  1.00353579  1
  H+  H251  1  0.61860911  0.10974715  0.82863191  1
  H+  H252  1  0.64006589  0.25419027  0.84614728  1
  H+  H253  1  0.97686286  0.84969928  0.64006560  1
  H+  H254  1  0.95231749  0.10622725  1.00196667  1
  H+  H255  1  0.57089522  0.92274916  1.05754665  1
  H+  H256  1  0.13746753  0.52706054  0.33121470  1
  H+  H257  1  0.71386913  0.36115258  0.18585978  1
  H+  H258  1  0.38260606  0.10788793  0.65744956  1
  H+  H259  1  0.02024473  0.88492499  0.33994367  1
  H+  H260  1  0.24085542  0.86719877  0.65137430  1
  H+  H261  1  0.48482303  0.36112714  0.00958519  1
  H+  H262  1  0.63640400  0.27086282  0.65592737  1
  H+  H263  1  0.75707669  0.89074732  1.00894111  1
  H+  H264  1  0.12810435  0.10453470  0.66821518  1
  H+  H265  1  0.60312553  0.46689509  0.16684777  1
  H+  H266  1  0.03046910  0.99314619  0.11061132  1
  H+  H267  1  0.16653933  0.31106910  0.94159614  1
  H+  H268  1  0.09353736  0.51092217  0.17789462  1
  H+  H269  1  0.38418096  0.60743190  0.99423394  1
  H+  H270  1  0.12355399  0.88019247  0.63848672  1
  H+  H271  1  0.52210374  0.88358601  0.35302445  1
  H+  H272  1  0.29165070  0.34290039  0.82418884  1
  H+  H273  1  0.48260799  0.10870976  0.17861770  1
  H+  H274  1  0.03362999  0.65375153  -0.00670726  1
  H+  H275  1  0.26947320  0.38570822  0.16446457  1
  H+  H276  1  0.59940649  0.71128492  0.50524755  1
  H+  H277  1  0.36054242  0.62809607  0.82505860  1
  H+  H278  1  0.56502293  0.65344916  0.70340769  1
  H+  H279  1  0.29855140  0.13043103  0.01139107  1
  H+  H280  1  0.74450822  0.13323584  0.02110632  1
  H+  H281  1  0.60552684  0.13497490  0.67133988  1
  H+  H282  1  0.81501618  0.17559991  0.74596773  1
  H+  H283  1  0.63290221  0.60608281  0.51184373  1
  H+  H284  1  0.98718542  0.99437022  0.45387243  1
  H+  H285  1  0.74703431  0.61443600  0.67430823  1
  H+  H286  1  0.13148817  0.01304098  0.32658852  1
  H+  H287  1  0.40865110  0.82053746  0.60039493  1
  H+  H288  1  0.58802816  0.40952964  0.07466583  1
  H+  H289  1  0.36430519  0.72149186  0.67091334  1
  H+  H290  1  0.10845155  0.48049854  0.50000145  1
  H+  H291  1  0.91923800  0.83594649  0.26641047  1
  H+  H292  1  0.61413548  0.92838871  0.42756011  1
  H+  H293  1  0.57442081  0.16179997  0.76313909  1
  H+  H294  1  0.01224065  0.71885691  0.12843690  1
  H+  H295  1  0.91308730  0.80057980  0.92059878  1
  H+  H296  1  0.82587290  0.91681883  0.06208939  1
  H+  H297  1  0.08640644  0.92846178  0.78304821  1
  H+  H298  1  0.85786060  0.48413058  0.18934063  1
  H+  H299  1  0.33298426  0.65545495  0.09809633  1
  H+  H300  1  0.32994060  0.15334018  0.76791047  1
  H+  H301  1  0.33389384  0.91647905  0.72955067  1
  H+  H302  1  0.84224646  0.23417860  0.83614751  1
  H+  H303  1  0.51814583  0.13764842  0.66881802  1
  H+  H304  1  0.22164152  0.10643024  0.32462311  1
  H+  H305  1  0.42423642  0.08164613  0.23854986  1
  H+  H306  1  0.57577250  0.65815797  0.10062922  1
  H+  H307  1  0.41382907  0.82961596  0.92859525  1
  H+  H308  1  0.81924187  0.89489246  0.39533785  1
  H+  H309  1  0.33388155  0.40094944  0.73317498  1
  H+  H310  1  0.38217349  0.10568406  0.32673398  1
  H+  H311  1  0.61065881  0.38226845  0.49351058  1
  H+  H312  1  0.13774376  0.86344682  0.32988444  1
  H+  H313  1  0.67853008  0.58610782  0.56679903  1
  H+  H314  1  0.66176527  0.08333537  0.60282451  1
  H+  H315  1  0.08597342  0.42208736  0.09820111  1
  H+  H316  1  0.32910305  0.40972341  0.10513410  1
  H+  H317  1  0.81048084  0.14279220  0.10661443  1
  H+  H318  1  0.82438080  0.41673823  0.76460967  1
  H+  H319  1  0.17696199  0.04312789  0.22772853  1
  H+  H320  1  0.59123274  0.12527457  0.50308067  1
  H+  H321  1  0.97046975  0.12030556  0.56212286  1
  H+  H322  1  0.43738284  0.36611650  0.92275316  1
  H+  H323  1  0.61277234  0.97186547  0.34161407  1
  H+  H324  1  0.31612419  0.90611476  0.40826475  1
  H+  H325  1  0.91871031  0.61945698  0.92000110  1
  H+  H326  1  0.09413580  0.67763020  0.39773509  1
  H+  H327  1  0.17175475  0.58355177  0.92866402  1
  H+  H328  1  0.35887151  0.46717252  0.01121745  1
  H+  H329  1  0.57726395  0.91904011  0.75966091  1
  H+  H330  1  0.91868248  0.58753161  0.55808744  1
  H+  H331  1  0.90844474  0.07257217  0.23852489  1
  H+  H332  1  0.17975737  0.35302824  0.26899562  1
  H+  H333  1  0.89490988  0.33852600  0.55142462  1
  H+  H334  1  0.17406616  0.85204182  0.23903824  1
  H+  H335  1  0.63546924  0.85537466  0.51228906  1
  H+  H336  1  0.09110943  0.16923844  0.74633044  1
  H+  H337  1  0.41018509  0.57515914  0.25660803  1
  H+  H338  1  0.37838104  0.84059875  0.15722530  1
  H+  H339  1  0.32796503  0.65158653  0.39299694  1
  H+  H340  1  0.39233029  0.55993059  0.55758309  1
  H+  H341  1  0.65305491  0.32256546  0.27254863  1
  H+  H342  1  0.67424592  0.81909519  0.23489779  1
  H+  H343  1  0.33328071  0.65826720  0.76456457  1
  H+  H344  1  0.86518288  0.24763028  0.15768238  1
  H+  H345  1  0.59346363  0.42375640  0.71893383  1
  H+  H346  1  0.92065222  0.35919913  0.93895788  1
  H+  H347  1  0.32399145  0.16087312  0.39403576  1
  H+  H348  1  0.36771933  0.49994265  0.65884405  1
  H+  H349  1  0.41346277  0.32619705  0.55972756  1
  H+  H350  1  0.09064441  0.42231005  0.41192314  1
  H+  H351  1  0.82516492  0.65746558  0.11410818  1
  H+  H352  1  0.81515585  0.39413239  0.08805744  1
  H+  H353  1  0.65920718  0.82640806  0.60606629  1
  H+  H354  1  0.24384624  0.02621496  0.95150484  1
  H+  H355  1  0.41251187  0.32705288  0.26718008  1
  H+  H356  1  0.65539975  0.84700455  0.93833418  1
  H+  H357  1  0.83976698  0.43359708  0.38204912  1
  H+  H358  1  0.83571946  0.91706104  0.76230949  1
  H+  H359  1  0.66100886  0.07154385  0.26817696  1
  H+  H360  1  0.08133480  0.66924781  0.05691131  1
  H+  H361  1  0.60305705  0.94823298  0.14954842  1
  H+  H362  1  0.08046128  0.88678060  0.69689696  1
  H+  H363  1  0.26589210  0.62612703  0.48748951  1
  H+  H364  1  0.35804561  0.83728793  0.51444355  1
  H+  H365  1  0.59020792  0.66188880  0.40603729  1
  H+  H366  1  0.89069982  0.32353683  0.23717356  1
  H+  H367  1  0.40952109  0.07652288  0.59732806  1
  H+  H368  1  0.57662296  0.41165590  0.40048755  1
  H+  H369  1  1.01442824  0.13384959  0.57477744  1
  H+  H370  1  0.95906072  0.36233828  0.83803377  1
  H+  H371  1  0.16687445  0.58484009  0.56509464  1
  H+  H372  1  0.67031493  0.32955707  0.55839084  1
  H+  H373  1  0.38738202  0.76004835  0.16565300  1
  H+  H374  1  0.53953887  0.33431924  0.79428240  1
  H+  H375  1  0.61349755  0.68344720  0.79066125  1
  H+  H376  1  0.67318081  0.31860949  0.94530282  1
  H+  H377  1  0.06893368  0.41505433  0.76686123  1
  H+  H378  1  0.41045106  0.57106469  0.93694745  1
  H+  H379  1  0.14666045  0.57682084  0.26934092  1
  H+  H380  1  0.08462674  0.91907666  0.39831326  1
  H+  H381  1  0.73696193  0.21088110  0.42407916  1
  H+  H382  1  0.82964176  0.18340871  0.38615737  1
  H+  H383  1  0.90366837  0.80876051  0.55378039  1
  O2-  O384  1  0.06496408  0.18087106  0.15192024  1
  O2-  O385  1  0.09977664  0.18185522  0.45808157  1
  O2-  O386  1  0.09012026  0.17526087  0.82375575  1
  O2-  O387  1  0.07627733  0.41736544  0.14454397  1
  O2-  O388  1  0.07955762  0.41866233  0.48602877  1
  O2-  O389  1  0.06272931  0.41637015  0.81178605  1
  O2-  O390  1  0.04741287  0.70454830  0.15408414  1
  O2-  O391  1  0.09491889  0.67817103  0.48085713  1
  O2-  O392  1  0.09390354  0.68141782  0.80262758  1
  O2-  O393  1  0.08341688  1.04827396  0.11315251  1
  O2-  O394  1  0.09812103  0.92726947  0.47555879  1
  O2-  O395  1  0.07437480  0.90978898  0.82514527  1
  O2-  O396  1  0.34159293  0.15772884  0.15415379  1
  O2-  O397  1  0.33460133  0.16165403  0.47323425  1
  O2-  O398  1  0.33232488  0.15231321  0.81286547  1
  O2-  O399  1  0.33046508  0.40967627  0.15081886  1
  O2-  O400  1  0.32304067  0.40338497  0.47323884  1
  O2-  O401  1  0.34260188  0.39654218  0.81272621  1
  O2-  O402  1  0.32639984  0.65144975  0.14284462  1
  O2-  O403  1  0.32557100  0.65489131  0.47099150  1
  O2-  O404  1  0.33179102  0.65947389  0.80997550  1
  O2-  O405  1  0.29336769  0.84630882  0.12449710  1
  O2-  O406  1  0.29788621  0.89508660  0.49291316  1
  O2-  O407  1  0.32882138  0.91510630  0.80774411  1
  O2-  O408  1  0.59182513  0.15905989  0.14985159  1
  O2-  O409  1  0.56293229  0.15541792  0.48449590  1
  O2-  O410  1  0.57635862  0.15784725  0.80873036  1
  O2-  O411  1  0.57545245  0.40662564  0.15066501  1
  O2-  O412  1  0.57904064  0.41226502  0.48073996  1
  O2-  O413  1  0.58284039  0.37922953  0.81989324  1
  O2-  O414  1  0.57263217  0.65430229  0.14573826  1
  O2-  O415  1  0.57589194  0.65188649  0.48939754  1
  O2-  O416  1  0.59299386  0.68250113  0.83299384  1
  O2-  O417  1  0.56949119  0.89812118  0.12344991  1
  O2-  O418  1  0.64283350  0.94275220  0.47030459  1
  O2-  O419  1  0.57726894  0.92411444  0.80533620  1
  O2-  O420  1  0.81670039  0.14842393  0.15302846  1
  O2-  O421  1  0.77887216  0.20052645  0.44760437  1
  O2-  O422  1  0.81283710  0.17117528  0.82256923  1
  O2-  O423  1  0.82277784  0.42588259  0.17151432  1
  O2-  O424  1  0.83163299  0.43055690  0.46284603  1
  O2-  O425  1  0.82043620  0.41483895  0.80976196  1
  O2-  O426  1  0.82076352  0.66014260  0.15922307  1
  O2-  O427  1  0.82687602  0.65428513  0.46731323  1
  O2-  O428  1  0.83402788  0.66880405  0.75838354  1
  O2-  O429  1  0.84145615  0.91308954  0.14207685  1
  O2-  O430  1  0.80715136  0.88055561  0.47751688  1
  O2-  O431  1  0.83184824  0.91258370  0.80693527  1
  O2-  O432  1  0.18768990  0.02721808  0.18712459  1
  O2-  O433  1  0.20259566  0.15874277  0.53658467  1
  O2-  O434  1  0.16273907  0.08385585  0.86116319  1
  O2-  O435  1  0.16704912  0.34575222  0.19077149  1
  O2-  O436  1  0.16150193  0.33208146  0.52206435  1
  O2-  O437  1  0.14761062  0.33930801  0.85835054  1
  O2-  O438  1  0.09452788  0.55731179  0.20369383  1
  O2-  O439  1  0.16343606  0.58210892  0.51963608  1
  O2-  O440  1  0.16399766  0.58575219  0.84946108  1
  O2-  O441  1  0.16912567  0.85879794  0.19407185  1
  O2-  O442  1  0.20651339  0.85866358  0.50962279  1
  O2-  O443  1  0.16285336  0.83525276  0.84730113  1
  O2-  O444  1  0.42297394  0.08459671  0.19314144  1
  O2-  O445  1  0.39563596  0.06350583  0.51957998  1
  O2-  O446  1  0.42037814  0.07899238  0.85304134  1
  O2-  O447  1  0.41047556  0.32265976  0.18991389  1
  O2-  O448  1  0.41306482  0.32662361  0.51443841  1
  O2-  O449  1  0.45530320  0.39535184  0.88204604  1
  O2-  O450  1  0.41526302  0.57156523  0.19184462  1
  O2-  O451  1  0.40253370  0.56628859  0.51317076  1
  O2-  O452  1  0.41272160  0.57226762  0.85369881  1
  O2-  O453  1  0.41893873  0.82301181  0.17347878  1
  O2-  O454  1  0.39437895  0.81390257  0.52792612  1
  O2-  O455  1  0.40717056  0.82745133  0.84682366  1
  O2-  O456  1  0.65494386  0.06103299  0.19649437  1
  O2-  O457  1  0.65814123  0.08492133  0.52614266  1
  O2-  O458  1  0.65029324  0.07790476  0.84417856  1
  O2-  O459  1  0.65225359  0.32196015  0.19572866  1
  O2-  O460  1  0.66621851  0.32918391  0.51322808  1
  O2-  O461  1  0.66997783  0.31302581  0.86417335  1
  O2-  O462  1  0.65146987  0.57067627  0.19041140  1
  O2-  O463  1  0.66777743  0.57821791  0.52274242  1
  O2-  O464  1  0.67486538  0.54571224  0.86482904  1
  O2-  O465  1  0.69018620  0.81791355  0.19197568  1
  O2-  O466  1  0.65456884  0.81784845  0.53234875  1
  O2-  O467  1  0.66491477  0.85535091  0.85429343  1
  O2-  O468  1  0.90591550  0.07532352  0.19353452  1
  O2-  O469  1  0.95577919  0.02382946  0.46388746  1
  O2-  O470  1  0.93582114  0.14409713  0.87529539  1
  O2-  O471  1  0.89151899  0.31342758  0.15641818  1
  O2-  O472  1  0.90393362  0.34560089  0.50729297  1
  O2-  O473  1  0.89920540  0.33212396  0.85477340  1
  O2-  O474  1  0.90876031  0.58693612  0.21932695  1
  O2-  O475  1  0.92200555  0.58947026  0.51289352  1
  O2-  O476  1  0.84349631  0.56694223  0.85285455  1
  O2-  O477  1  0.92097878  0.83457640  0.19421599  1
  O2-  O478  1  0.90852929  0.81589058  0.50922529  1
  O2-  O479  1  0.90050879  0.80528058  0.83708861  1
  O2-  O480  1  0.16037681  0.07341283  0.30840427  1
  O2-  O481  1  0.16074114  0.08217572  0.64523237  1
  O2-  O482  1  0.21163207  0.05185828  0.96833213  1
  O2-  O483  1  0.18807658  0.35374052  0.31386460  1
  O2-  O484  1  0.16402168  0.32759444  0.64836543  1
  O2-  O485  1  0.18560812  0.28347474  0.97126715  1
  O2-  O486  1  0.16743134  0.58490571  0.31271785  1
  O2-  O487  1  0.16938560  0.58263936  0.64256707  1
  O2-  O488  1  0.17708505  0.58527888  0.97387680  1
  O2-  O489  1  0.17121273  0.83740105  0.31395786  1
  O2-  O490  1  0.18472694  0.83809849  0.62818491  1
  O2-  O491  1  0.17611659  0.83455567  0.97016392  1
  O2-  O492  1  0.41727735  0.07959873  0.31594821  1
  O2-  O493  1  0.41569274  0.08028376  0.64269825  1
  O2-  O494  1  0.43376835  0.08472659  0.97573214  1
  O2-  O495  1  0.41060742  0.32787905  0.31281670  1
  O2-  O496  1  0.41332515  0.32435471  0.63994402  1
  O2-  O497  1  0.42411555  0.33403727  0.99476652  1
  O2-  O498  1  0.40671913  0.57675900  0.30484913  1
  O2-  O499  1  0.39257801  0.55830363  0.63883306  1
  O2-  O500  1  0.41287573  0.57339690  0.98188821  1
  O2-  O501  1  0.42650723  0.83749102  0.33829853  1
  O2-  O502  1  0.41602368  0.82453526  0.64645646  1
  O2-  O503  1  0.41466906  0.83073384  0.97366076  1
  O2-  O504  1  0.66817542  0.07709330  0.31438791  1
  O2-  O505  1  0.65628817  0.07907929  0.64836806  1
  O2-  O506  1  0.64398934  0.10551952  0.99444144  1
  O2-  O507  1  0.66215681  0.33031685  0.31778406  1
  O2-  O508  1  0.67163636  0.33055304  0.63910478  1
  O2-  O509  1  0.66826687  0.31438047  0.99024627  1
  O2-  O510  1  0.66125677  0.57852541  0.31217293  1
  O2-  O511  1  0.69250657  0.59614833  0.65347800  1
  O2-  O512  1  0.66114848  0.57925803  0.98844647  1
  O2-  O513  1  0.65888398  0.82271866  0.31446187  1
  O2-  O514  1  0.66623184  0.83408472  0.65195875  1
  O2-  O515  1  0.64834711  0.83955488  0.98276024  1
  O2-  O516  1  0.92053058  0.07372092  0.31918292  1
  O2-  O517  1  0.90892967  0.09171012  0.67644388  1
  O2-  O518  1  0.89532837  0.07866821  0.98136487  1
  O2-  O519  1  0.90864656  0.33970108  0.28020246  1
  O2-  O520  1  0.92148805  0.30898374  0.63380784  1
  O2-  O521  1  0.94288722  0.38556057  0.97883203  1
  O2-  O522  1  0.91217654  0.59345495  0.28593095  1
  O2-  O523  1  0.92460781  0.58201529  0.63903101  1
  O2-  O524  1  0.94679790  0.65098232  0.95763397  1
  O2-  O525  1  0.91757340  0.83521372  0.31299881  1
  O2-  O526  1  0.91298516  0.81095577  0.63804621  1
  O2-  O527  1  0.93701421  0.79775474  0.96042435  1
  O2-  O528  1  0.05665151  0.15678898  0.03137939  1
  O2-  O529  1  0.08343100  0.14718902  0.34087083  1
  O2-  O530  1  0.08501595  0.16435915  0.70088510  1
  O2-  O531  1  0.09354186  0.42037349  0.02732136  1
  O2-  O532  1  0.09184617  0.42082555  0.36597442  1
  O2-  O533  1  0.08328000  0.41626996  0.68768062  1
  O2-  O534  1  0.08975661  0.66929386  0.01296888  1
  O2-  O535  1  0.09381336  0.67893066  0.35290126  1
  O2-  O536  1  0.09745631  0.67854714  0.67330257  1
  O2-  O537  1  0.09137151  0.91217284  0.01645415  1
  O2-  O538  1  0.08217857  0.91760437  0.35280996  1
  O2-  O539  1  0.08508578  0.90267444  0.65416329  1
  O2-  O540  1  0.35672927  0.16788416  0.02868074  1
  O2-  O541  1  0.31905044  0.15997937  0.34890639  1
  O2-  O542  1  0.32953773  0.15824918  0.68553036  1
  O2-  O543  1  0.33098029  0.40788887  0.02842341  1
  O2-  O544  1  0.34434652  0.42493357  0.35193845  1
  O2-  O545  1  0.32963590  0.40289382  0.68798737  1
  O2-  O546  1  0.34110531  0.66455866  0.01506665  1
  O2-  O547  1  0.33193643  0.65342673  0.34747656  1
  O2-  O548  1  0.33161260  0.66059965  0.68641081  1
  O2-  O549  1  0.34152685  0.92279841  0.00894862  1
  O2-  O550  1  0.32809231  0.91167286  0.36432038  1
  O2-  O551  1  0.33635173  0.91475081  0.68406338  1
  O2-  O552  1  0.59749202  0.14512345  0.02195352  1
  O2-  O553  1  0.65150764  0.19410638  0.37990736  1
  O2-  O554  1  0.57808844  0.16839832  0.68588692  1
  O2-  O555  1  0.59096186  0.40900386  0.02897890  1
  O2-  O556  1  0.57539550  0.41090449  0.35519774  1
  O2-  O557  1  0.59068298  0.42263179  0.67452865  1
  O2-  O558  1  0.57969506  0.66723144  0.01852083  1
  O2-  O559  1  0.59296183  0.66122913  0.36129829  1
  O2-  O560  1  0.62631553  0.68934218  0.71114151  1
  O2-  O561  1  0.57277797  0.93295338  0.01102799  1
  O2-  O562  1  0.58720936  0.91400420  0.36098318  1
  O2-  O563  1  0.57929551  0.91197110  0.68409303  1
  O2-  O564  1  0.80323007  0.15014964  0.03682132  1
  O2-  O565  1  0.84706875  0.17196075  0.34556880  1
  O2-  O566  1  0.81719611  0.17176077  0.70044853  1
  O2-  O567  1  0.81124217  0.35109711  0.05878609  1
  O2-  O568  1  0.83698404  0.43276972  0.33671292  1
  O2-  O569  1  0.83271637  0.41522536  0.68414900  1
  O2-  O570  1  0.82352475  0.66152147  0.03534115  1
  O2-  O571  1  0.82573957  0.66336709  0.34526399  1
  O2-  O572  1  0.90593375  0.69176625  0.71583349  1
  O2-  O573  1  0.81969997  0.92043310  0.01734822  1
  O2-  O574  1  0.82750203  0.90771798  0.35118616  1
  O2-  O575  1  0.82911336  0.91422332  0.67500728  1
