# generated using pymatgen
data_H2O
_symmetry_space_group_name_H-M   'P 1'
_cell_length_a   17.99319068
_cell_length_b   17.99665273
_cell_length_c   22.00831859
_cell_angle_alpha   89.99406829
_cell_angle_beta   90.03023281
_cell_angle_gamma   119.98309421
_symmetry_Int_Tables_number   1
_chemical_formula_structural   H2O
_chemical_formula_sum   'H384 O192'
_cell_volume   6172.92933261
_cell_formula_units_Z   192
loop_
 _symmetry_equiv_pos_site_id
 _symmetry_equiv_pos_as_xyz
  1  'x, y, z'
loop_
 _atom_type_symbol
 _atom_type_oxidation_number
  H+  1.0
  O2-  -2.0
loop_
 _atom_site_type_symbol
 _atom_site_label
 _atom_site_symmetry_multiplicity
 _atom_site_fract_x
 _atom_site_fract_y
 _atom_site_fract_z
 _atom_site_occupancy
  H+  H0  1  0.84350141  0.46543455  0.34061094  1
  H+  H1  1  0.14138076  0.02735244  0.17295335  1
  H+  H2  1  0.37599298  1.01703413  0.82510031  1
  H+  H3  1  0.62962412  0.90499667  0.67899364  1
  H+  H4  1  0.47947925  0.86468742  0.52388167  1
  H+  H5  1  0.76136410  0.62539030  0.34429116  1
  H+  H6  1  -0.02351291  0.36155103  0.64515567  1
  H+  H7  1  0.05875310  0.72672423  0.36583246  1
  H+  H8  1  0.12879561  0.77766894  0.16889686  1
  H+  H9  1  0.77019377  0.63455360  0.16110197  1
  H+  H10  1  0.61064551  0.09973241  0.33183793  1
  H+  H11  1  0.67362383  0.09193051  0.94194777  1
  H+  H12  1  0.87447132  0.52038450  0.17364310  1
  H+  H13  1  0.17763278  0.43947877  0.30082509  1
  H+  H14  1  0.88708919  0.88255126  0.48901232  1
  H+  H15  1  0.56835668  0.17057403  0.90208245  1
  H+  H16  1  0.47660629  0.60888535  0.18020272  1
  H+  H17  1  0.88091349  0.36522886  0.81507161  1
  H+  H18  1  0.73746838  0.12671246  0.18659348  1
  H+  H19  1  0.62123514  0.15405174  0.00132798  1
  H+  H20  1  0.77934998  0.39122740  0.66441944  1
  H+  H21  1  0.85702611  0.95215840  0.14936941  1
  H+  H22  1  0.52070220  0.13345613  0.16212250  1
  H+  H23  1  -0.00500865  0.86423189  0.65333666  1
  H+  H24  1  0.85307812  0.20777666  0.50114109  1
  H+  H25  1  0.38387897  0.65354690  0.16288904  1
  H+  H26  1  0.67569431  0.34975532  0.89195481  1
  H+  H27  1  0.12231690  0.23478862  0.16577248  1
  H+  H28  1  0.86724374  0.63565023  0.48945221  1
  H+  H29  1  0.65073138  0.55596171  0.49332400  1
  H+  H30  1  0.23036743  0.35844549  0.49983755  1
  H+  H31  1  0.11841862  0.49234002  0.00573285  1
  H+  H32  1  0.37317884  0.14185026  0.48885455  1
  H+  H33  1  0.04583685  0.03075474  0.39558142  1
  H+  H34  1  0.51398102  0.38168358  0.33650018  1
  H+  H35  1  0.13513582  0.28310014  0.99010185  1
  H+  H36  1  0.77191976  0.14013963  0.01788360  1
  H+  H37  1  0.28481388  0.64062443  0.67759259  1
  H+  H38  1  0.90710203  0.77267927  0.65134890  1
  H+  H39  1  0.87723058  0.15614372  0.17597475  1
  H+  H40  1  0.60391472  0.96988772  0.85126544  1
  H+  H41  1  0.69779459  0.85452724  0.84559537  1
  H+  H42  1  0.92476085  0.34705207  1.08242435  1
  H+  H43  1  0.62876352  0.51526729  0.32691295  1
  H+  H44  1  0.14709286  0.62398201  0.66254363  1
  H+  H45  1  0.10691059  0.71979222  0.65271545  1
  H+  H46  1  0.72066746  0.11065119  0.84273008  1
  H+  H47  1  0.40616835  0.06557997  0.65671667  1
  H+  H48  1  0.36355812  0.38370270  0.67579537  1
  H+  H49  1  0.34751663  0.88034229  0.81467463  1
  H+  H50  1  0.92412765  0.33924491  0.86709882  1
  H+  H51  1  0.72512711  0.12143013  0.65286613  1
  H+  H52  1  0.01298736  0.63728369  0.16186742  1
  H+  H53  1  0.36153551  0.64099601  0.00758120  1
  H+  H54  1  0.64550228  0.12019702  0.18066194  1
  H+  H55  1  0.86783463  0.40286300  0.01416874  1
  H+  H56  1  0.28050140  0.15300540  1.00913614  1
  H+  H57  1  0.35745991  0.68729696  0.10394047  1
  H+  H58  1  0.08524870  0.67766105  0.76182217  1
  H+  H59  1  0.86148050  0.14055993  0.01391008  1
  H+  H60  1  0.89342065  0.76523562  0.17610216  1
  H+  H61  1  -0.02254779  0.61695885  0.83215435  1
  H+  H62  1  0.35327074  0.96550911  0.50144967  1
  H+  H63  1  0.89524848  0.38122663  0.32874492  1
  H+  H64  1  0.59881353  0.12450292  0.49017671  1
  H+  H65  1  0.64348020  0.78863570  0.66646376  1
  H+  H66  1  0.66557331  0.32972774  0.59309756  1
  H+  H67  1  0.61140318  0.63296799  0.82615857  1
  H+  H68  1  1.00017121  0.88290769  0.32408858  1
  H+  H69  1  1.02827732  0.89621410  1.00553113  1
  H+  H70  1  0.45381364  0.11263554  0.24404329  1
  H+  H71  1  0.87891577  0.89135700  0.33702382  1
  H+  H72  1  0.35903966  0.48358938  0.48864759  1
  H+  H73  1  0.63474445  0.52330292  0.17351611  1
  H+  H74  1  0.84660653  0.22009263  0.81313026  1
  H+  H75  1  0.86536280  0.02832305  0.83588650  1
  H+  H76  1  0.38506925  0.52165864  0.84267964  1
  H+  H77  1  0.53741986  0.14530902  0.65556744  1
  H+  H78  1  0.02324063  0.19532032  0.67468327  1
  H+  H79  1  0.89232235  0.86113452  0.83852734  1
  H+  H80  1  0.65337895  0.83040829  0.52707442  1
  H+  H81  1  0.23051294  0.36849400  0.16924368  1
  H+  H82  1  0.03011790  0.40153252  0.01507126  1
  H+  H83  1  0.38130243  0.36019506  0.32453754  1
  H+  H84  1  0.84386006  0.12176553  0.35533110  1
  H+  H85  1  0.84839228  0.62301024  0.34247356  1
  H+  H86  1  0.51751762  0.89544678  0.00933526  1
  H+  H87  1  0.86550508  0.48035186  0.81899941  1
  H+  H88  1  0.13969989  0.03398373  0.99753162  1
  H+  H89  1  0.89667255  0.77247267  0.49821529  1
  H+  H90  1  0.10788155  0.73498006  0.82270200  1
  H+  H91  1  0.62197980  0.64699829  0.67148778  1
  H+  H92  1  0.11830052  0.49267807  0.83665019  1
  H+  H93  1  0.12909568  0.34966034  0.82509888  1
  H+  H94  1  0.77614916  0.64788218  0.01310041  1
  H+  H95  1  0.39162482  0.86099037  0.67408934  1
  H+  H96  1  0.02305658  0.63234663  0.66485955  1
  H+  H97  1  0.52511674  0.63007832  0.34341469  1
  H+  H98  1  0.71123128  0.34937273  0.17482725  1
  H+  H99  1  0.48886402  0.87804239  0.18495519  1
  H+  H100  1  0.63801921  0.03422083  0.66113303  1
  H+  H101  1  0.35092180  0.12555516  0.81333098  1
  H+  H102  1  0.14777421  0.53684483  0.64770774  1
  H+  H103  1  0.94445414  0.07505146  0.64804370  1
  H+  H104  1  0.54910740  0.37267958  0.42792573  1
  H+  H105  1  0.68272981  0.86317944  0.61527331  1
  H+  H106  1  0.03725134  0.87436793  0.48833672  1
  H+  H107  1  0.12234801  0.39141444  0.15649450  1
  H+  H108  1  0.37506474  0.72710719  0.68058401  1
  H+  H109  1  0.54162825  0.90399633  0.68552229  1
  H+  H110  1  0.85146797  0.46319088  0.49182844  1
  H+  H111  1  -0.02815620  0.09283845  0.35533790  1
  H+  H112  1  0.88946076  0.87018281  0.98665061  1
  H+  H113  1  0.83474625  0.66475374  0.42942424  1
  H+  H114  1  0.10762733  0.88571357  0.82923515  1
  H+  H115  1  0.58013389  0.34179920  0.48757854  1
  H+  H116  1  0.61055834  0.97197749  0.35263817  1
  H+  H117  1  0.61332643  0.63345791  0.16460707  1
  H+  H118  1  0.27453183  0.64498809  0.01412483  1
  H+  H119  1  0.38663831  0.27597304  0.17169185  1
  H+  H120  1  0.61581630  0.40262912  0.00366138  1
  H+  H121  1  0.54624529  0.48073142  0.70181450  1
  H+  H122  1  0.86640971  0.63761532  0.81949785  1
  H+  H123  1  0.60478448  0.38514524  0.16116875  1
  H+  H124  1  0.46764940  0.11014000  0.98148165  1
  H+  H125  1  0.78943542  0.64683419  0.66553369  1
  H+  H126  1  0.48559235  0.45995929  0.54541143  1
  H+  H127  1  0.52533720  0.17133157  0.67597179  1
  H+  H128  1  0.36378568  0.87925264  0.35149458  1
  H+  H129  1  0.63465205  0.03420529  1.00118364  1
  H+  H130  1  0.54062528  0.66613736  0.51014584  1
  H+  H131  1  0.64540001  0.29417846  -0.01505101  1
  H+  H132  1  0.36781456  0.40185699  0.49174996  1
  H+  H133  1  0.99988687  0.14104996  0.18914219  1
  H+  H134  1  0.39530494  0.62098080  0.33403436  1
  H+  H135  1  0.62079262  0.26598405  0.17375359  1
  H+  H136  1  0.87114823  0.97116242  0.48962622  1
  H+  H137  1  0.36704389  0.47977853  0.33788980  1
  H+  H138  1  0.38616686  0.77716732  0.99707574  1
  H+  H139  1  0.35923522  -0.02895483  1.00920586  1
  H+  H140  1  0.90311275  0.28870757  0.17331220  1
  H+  H141  1  0.39096234  0.91193899  0.16980625  1
  H+  H142  1  0.17260321  0.35334759  0.22893078  1
  H+  H143  1  0.39418347  0.61366480  0.66151840  1
  H+  H144  1  0.88674875  0.87677810  0.67365211  1
  H+  H145  1  0.73424587  0.85908984  0.33688271  1
  H+  H146  1  0.37674968  0.73792163  0.34683605  1
  H+  H147  1  0.11864611  0.89287065  0.15708254  1
  H+  H148  1  0.38230958  0.52565470  -0.00279279  1
  H+  H149  1  0.03007598  0.43686325  0.36954399  1
  H+  H150  1  0.71171739  0.35134190  0.32948698  1
  H+  H151  1  0.97008824  0.59864273  0.50152753  1
  H+  H152  1  0.39258391  0.52399125  0.66096481  1
  H+  H153  1  0.40352918  0.78798251  0.18068928  1
  H+  H154  1  0.37813493  0.77784943  0.84283575  1
  H+  H155  1  0.36650334  0.63987304  0.83291039  1
  H+  H156  1  0.20481491  0.11701779  0.65388401  1
  H+  H157  1  0.12677919  0.50752625  0.37684878  1
  H+  H158  1  0.47538270  0.60921529  0.84271892  1
  H+  H159  1  0.63848752  0.52510743  0.83025049  1
  H+  H160  1  0.86419197  0.97255884  0.34470239  1
  H+  H161  1  0.26327350  0.56536006  0.27539393  1
  H+  H162  1  0.88582057  0.03141787  0.99243275  1
  H+  H163  1  0.08282322  0.42741511  0.58392909  1
  H+  H164  1  0.14022456  0.87219598  -0.00463254  1
  H+  H165  1  0.42705628  0.83924568  0.27693518  1
  H+  H166  1  0.71620799  0.10685581  0.50940377  1
  H+  H167  1  0.15121760  0.23769535  0.34286039  1
  H+  H168  1  0.02920780  0.89137039  0.15865154  1
  H+  H169  1  0.12025655  0.12507025  0.66362902  1
  H+  H170  1  0.61798406  0.88672493  0.35341531  1
  H+  H171  1  0.37458488  0.73457163  0.50576113  1
  H+  H172  1  0.72414408  0.94611010  0.77058438  1
  H+  H173  1  0.61133480  0.97205454  0.50802013  1
  H+  H174  1  0.96045706  0.60262049  0.33214292  1
  H+  H175  1  0.13324666  0.88369269  0.33469645  1
  H+  H176  1  0.64469425  0.54032104  1.00501121  1
  H+  H177  1  0.47336412  0.35865140  0.66411789  1
  H+  H178  1  0.63038532  0.87302912  0.00135403  1
  H+  H179  1  0.11796597  0.09611445  0.56848775  1
  H+  H180  1  0.13805384  0.12201182  -0.00520996  1
  H+  H181  1  0.88450610  0.27715062  1.03108369  1
  H+  H182  1  0.88905489  0.84996153  0.16982430  1
  H+  H183  1  0.13296534  0.84864674  0.51315711  1
  H+  H184  1  0.84923207  0.37257586  0.49173180  1
  H+  H185  1  0.52883464  0.63784909  0.67138621  1
  H+  H186  1  0.61581426  0.38254055  0.82060786  1
  H+  H187  1  0.65558783  0.08739835  0.56731031  1
  H+  H188  1  -0.03952294  0.11375073  0.83608972  1
  H+  H189  1  0.13610162  0.62443118  0.00544632  1
  H+  H190  1  0.28983892  0.96964789  0.66045492  1
  H+  H191  1  0.84851524  0.12175416  0.66792190  1
  H+  H192  1  0.88932431  0.27109155  0.66004432  1
  H+  H193  1  0.46452896  0.10627572  0.83733770  1
  H+  H194  1  0.98422626  0.86650954  0.83754211  1
  H+  H195  1  0.11103037  0.97735542  0.83354094  1
  H+  H196  1  0.86797032  0.73560717  1.01011024  1
  H+  H197  1  0.42189264  0.83606563  0.61351657  1
  H+  H198  1  0.13822507  0.37342494  0.98793524  1
  H+  H199  1  0.25947510  0.11737242  0.32696194  1
  H+  H200  1  0.86186889  0.98960884  0.65876015  1
  H+  H201  1  0.60121784  0.37786303  0.33917351  1
  H+  H202  1  0.24144876  0.85857227  0.32801397  1
  H+  H203  1  0.89016660  0.52186603  0.65440647  1
  H+  H204  1  0.48555413  0.38168335  0.51046232  1
  H+  H205  1  0.38834062  0.86255934  0.52249258  1
  H+  H206  1  0.16150262  0.33838866  0.89223124  1
  H+  H207  1  0.88941792  0.62921479  0.98892538  1
  H+  H208  1  0.24393290  0.65181890  0.85223749  1
  H+  H209  1  0.18874371  0.85348283  0.62196842  1
  H+  H210  1  0.11378793  0.62937993  0.49539942  1
  H+  H211  1  0.36266370  0.38897339  0.15828421  1
  H+  H212  1  0.52211373  0.37578322  0.81487913  1
  H+  H213  1  0.40972615  0.32649846  0.75711844  1
  H+  H214  1  0.27119537  0.87206483  0.50932828  1
  H+  H215  1  0.24006729  0.37695854  0.65668602  1
  H+  H216  1  0.63328666  0.11121403  0.85643362  1
  H+  H217  1  0.89315069  0.61300434  0.65420960  1
  H+  H218  1  0.34190764  0.20653126  0.66315854  1
  H+  H219  1  0.72612500  0.61400780  0.82569068  1
  H+  H220  1  0.62758690  -0.00966369  0.16747045  1
  H+  H221  1  0.87223416  0.09397342  0.50370393  1
  H+  H222  1  0.63308888  0.76536273  0.14799053  1
  H+  H223  1  0.87445277  0.60885342  0.17340722  1
  H+  H224  1  0.12669204  0.52470863  0.17240927  1
  H+  H225  1  0.36338373  0.39413317  0.00709316  1
  H+  H226  1  0.67000729  0.26057538  0.70050919  1
  H+  H227  1  0.64267325  0.36838083  0.65043536  1
  H+  H228  1  0.17558525  0.84372926  0.22203977  1
  H+  H229  1  0.37415896  0.14634976  0.16912430  1
  H+  H230  1  0.47349147  0.37915325  0.99565992  1
  H+  H231  1  0.72854948  0.36595479  0.82964084  1
  H+  H232  1  0.86595579  0.38679759  0.66895136  1
  H+  H233  1  0.07904987  0.43340733  0.46995536  1
  H+  H234  1  0.46354407  0.86827584  0.84878808  1
  H+  H235  1  0.71282159  0.34788587  0.50066578  1
  H+  H236  1  0.11337341  0.47532403  0.86825716  1
  H+  H237  1  0.75522357  0.12219761  0.35430596  1
  H+  H238  1  0.08254437  0.17620725  0.06744413  1
  H+  H239  1  0.41100554  0.04543471  0.18621770  1
  H+  H240  1  0.93388120  0.10318324  0.29266579  1
  H+  H241  1  0.11358976  0.73793665  1.01040091  1
  H+  H242  1  0.34008491  0.66818739  0.77146914  1
  H+  H243  1  0.89521563  0.31839744  0.56512604  1
  H+  H244  1  0.23139528  0.39498791  0.31851877  1
  H+  H245  1  0.00539504  0.35047642  0.78742606  1
  H+  H246  1  0.12173723  0.25576238  0.66953975  1
  H+  H247  1  0.65465311  0.54007594  0.65372725  1
  H+  H248  1  0.73347317  0.38385925  -0.01461953  1
  H+  H249  1  0.13307532  0.21736540  0.31267783  1
  H+  H250  1  0.62156618  0.75842385  0.85295256  1
  H+  H251  1  0.35586929  0.38053414  0.81793704  1
  H+  H252  1  0.17584936  0.61068469  0.94510540  1
  H+  H253  1  0.85685868  0.37573772  0.15582446  1
  H+  H254  1  0.59952266  0.72803991  0.01510173  1
  H+  H255  1  0.12095683  0.61077301  0.17967298  1
  H+  H256  1  0.32590878  0.10759878  0.65709632  1
  H+  H257  1  0.39287958  0.61804935  0.50778581  1
  H+  H258  1  0.76829261  0.86680733  0.13939677  1
  H+  H259  1  0.14408514  -0.02328307  0.34023843  1
  H+  H260  1  0.21934614  0.10155640  0.83895666  1
  H+  H261  1  0.38908362  0.27353895  0.32478681  1
  H+  H262  1  0.95975489  0.34420862  0.51078844  1
  H+  H263  1  0.58269547  0.43076573  0.73782934  1
  H+  H264  1  0.10834270  -0.01213569  0.67714699  1
  H+  H265  1  0.02190800  0.14672634  0.00873865  1
  H+  H266  1  0.35602335  0.93922953  0.11153458  1
  H+  H267  1  0.58368504  0.21939202  0.33324486  1
  H+  H268  1  0.51802273  0.38875953  0.15973498  1
  H+  H269  1  0.15379860  0.65008150  0.84888602  1
  H+  H270  1  -0.00584769  0.37894133  0.16413687  1
  H+  H271  1  0.16715744  0.10862787  0.33554212  1
  H+  H272  1  0.09418857  0.22009235  0.82940446  1
  H+  H273  1  0.65693564  0.82689313  0.09174468  1
  H+  H274  1  0.59175933  0.87550788  0.85565386  1
  H+  H275  1  0.63309179  0.67794520  0.51097233  1
  H+  H276  1  0.63018219  0.60526636  0.32755622  1
  H+  H277  1  0.86795000  0.72706614  0.82072407  1
  H+  H278  1  0.78142601  0.90775076  0.75282871  1
  H+  H279  1  0.27291358  0.39361579  1.00522144  1
  H+  H280  1  0.91832090  0.59028923  0.89194798  1
  H+  H281  1  0.22700154  0.86785636  0.99919417  1
  H+  H282  1  0.40051854  0.15482497  0.34071051  1
  H+  H283  1  0.23732966  0.62931424  0.50740329  1
  H+  H284  1  0.15729866  0.77002345  0.31111283  1
  H+  H285  1  0.42594502  0.24086617  0.47369901  1
  H+  H286  1  0.21933914  0.86398413  0.83997501  1
  H+  H287  1  0.10222913  0.36918131  0.50462647  1
  H+  H288  1  0.35512988  0.88295818  1.01646633  1
  H+  H289  1  0.40774718  0.83789608  0.93860273  1
  H+  H290  1  0.08241619  0.40184169  0.74242323  1
  H+  H291  1  0.74705033  0.63219955  0.50074852  1
  H+  H292  1  0.83855719  0.91501940  0.05538676  1
  H+  H293  1  0.08683506  0.92511589  0.06569367  1
  H+  H294  1  0.61500354  0.71499559  0.35006108  1
  H+  H295  1  0.82523467  0.15817773  0.72715033  1
  H+  H296  1  0.41856055  0.58088880  0.56462404  1
  H+  H297  1  0.82916836  0.43789804  0.06056200  1
  H+  H298  1  0.93130284  0.83359185  0.55763225  1
  H+  H299  1  0.48382874  0.86389689  0.33858333  1
  H+  H300  1  0.95057136  0.38161106  0.27351082  1
  H+  H301  1  0.55735775  0.14936329  0.43386587  1
  H+  H302  1  0.34887645  0.68105831  0.44279334  1
  H+  H303  1  0.98164512  0.46226415  0.92536966  1
  H+  H304  1  0.18398595  0.33986060  0.59444805  1
  H+  H305  1  0.33065809  0.41729382  0.39465724  1
  H+  H306  1  0.85058788  0.13406381  0.82403156  1
  H+  H307  1  0.14703449  0.26406539  0.51066706  1
  H+  H308  1  0.62205374  0.89926893  0.15391656  1
  H+  H309  1  0.78017340  0.32526620  0.11205047  1
  H+  H310  1  0.62480034  0.25594873  0.50370832  1
  H+  H311  1  0.68360990  0.59907169  0.59399901  1
  H+  H312  1  0.33295777  0.41753086  0.73401674  1
  H+  H313  1  0.91046193  0.05936907  0.20610959  1
  H+  H314  1  0.91893622  0.94257506  0.72717901  1
  H+  H315  1  0.30019788  0.90268310  0.75864147  1
  H+  H316  1  0.58423808  0.90851861  0.45218176  1
  H+  H317  1  0.16740985  0.07897137  0.90191377  1
  H+  H318  1  0.26810095  0.38361968  0.82490589  1
  H+  H319  1  0.07152382  0.11636641  0.42905052  1
  H+  H320  1  0.12325345  0.40061358  0.63686508  1
  H+  H321  1  0.41433840  0.58414067  0.93718066  1
  H+  H322  1  0.83792851  0.16952136  0.11357275  1
  H+  H323  1  0.83304964  0.66692517  0.10201413  1
  H+  H324  1  0.29134996  0.64478229  0.34636505  1
  H+  H325  1  0.41973546  0.34373833  0.60514212  1
  H+  H326  1  0.54782039  0.08521429  0.11648884  1
  H+  H327  1  0.83360687  0.42301065  0.75755343  1
  H+  H328  1  0.77195642  0.89370729  0.00199462  1
  H+  H329  1  0.57366875  0.65555949  0.10544554  1
  H+  H330  1  0.65284595  0.32500660  0.26940618  1
  H+  H331  1  0.88666464  0.04996245  0.56201931  1
  H+  H332  1  0.57812334  0.92895336  0.06916919  1
  H+  H333  1  0.18211531  0.57145830  0.25929764  1
  H+  H334  1  0.91110078  0.09204521  0.93485945  1
  H+  H335  1  0.66913387  0.82909311  0.28190494  1
  H+  H336  1  0.35870419  0.17705739  0.39824397  1
  H+  H337  1  0.94463170  0.41771436  0.93056279  1
  H+  H338  1  0.89180040  0.54212285  0.98720097  1
  H+  H339  1  0.32308581  0.89790300  0.40976413  1
  H+  H340  1  0.28099573  0.13847128  0.16458185  1
  H+  H341  1  0.02347263  0.65094096  0.00507441  1
  H+  H342  1  0.37516211  0.25628126  0.80670650  1
  H+  H343  1  0.91104450  0.57424776  0.55989894  1
  H+  H344  1  0.41436452  0.33625002  0.23045098  1
  H+  H345  1  0.38515591  0.52292376  0.17686937  1
  H+  H346  1  0.07397931  0.66923990  0.10326172  1
  H+  H347  1  0.81844612  0.14826366  0.44204514  1
  H+  H348  1  0.11882426  0.14292499  0.16651428  1
  H+  H349  1  0.01046074  0.11487636  0.51477382  1
  H+  H350  1  0.41768284  0.58669534  0.27199963  1
  H+  H351  1  0.58001838  0.66746609  0.77073506  1
  H+  H352  1  0.84701919  0.67245404  0.72585513  1
  H+  H353  1  0.84969050  0.91100297  0.42401849  1
  H+  H354  1  0.18259423  0.60758534  0.56754707  1
  H+  H355  1  0.61058784  0.22560961  0.84436016  1
  H+  H356  1  0.16437016  0.83563810  0.90206143  1
  H+  H357  1  0.90485271  0.57364832  0.27074056  1
  H+  H358  1  0.10405705  0.90114646  0.43338439  1
  H+  H359  1  0.51285387  0.63663715  1.01101222  1
  H+  H360  1  0.08430982  0.92746078  0.73648892  1
  H+  H361  1  0.81535499  0.40360847  0.39874934  1
  H+  H362  1  0.06846390  0.66168614  0.40669378  1
  H+  H363  1  0.09772693  0.42670069  0.09632159  1
  H+  H364  1  0.58133250  0.18463612  0.05245995  1
  H+  H365  1  0.65648110  0.82983133  0.94753991  1
  H+  H366  1  0.17863830  0.08496687  0.23316057  1
  H+  H367  1  0.38669150  0.28937157  0.99784579  1
  H+  H368  1  0.40823342  0.06598485  0.92348568  1
  H+  H369  1  0.06223055  0.17446246  0.76665006  1
  H+  H370  1  0.64176408  0.62695245  0.00815555  1
  H+  H371  1  0.66442606  0.57991548  0.23451028  1
  H+  H372  1  0.45600792  0.09474584  0.51396410  1
  H+  H373  1  0.93701723  0.85042376  0.26612564  1
  H+  H374  1  0.19542952  0.92074804  0.69195707  1
  H+  H375  1  0.58431666  0.42420882  0.06591684  1
  H+  H376  1  0.31033500  0.14552352  0.75388574  1
  H+  H377  1  0.33285479  0.42152815  0.09959603  1
  H+  H378  1  0.66247787  0.17217510  0.70449692  1
  H+  H379  1  0.92215444  0.83519047  0.93248586  1
  H+  H380  1  0.65602156  0.07960717  0.27787713  1
  H+  H381  1  0.10234514  0.71074476  0.50147471  1
  H+  H382  1  0.34065026  0.18005994  0.06694681  1
  H+  H383  1  0.38103253  0.06271610  0.56705037  1
  O2-  O384  1  0.08684931  0.17261887  0.15336110  1
  O2-  O385  1  0.07443505  0.14551325  0.50583544  1
  O2-  O386  1  0.05387469  0.16383350  0.81071843  1
  O2-  O387  1  0.09087502  0.42114489  0.14155211  1
  O2-  O388  1  0.06777560  0.39799435  0.50780124  1
  O2-  O389  1  0.05877733  0.35445698  0.77115750  1
  O2-  O390  1  0.07383281  0.66790519  0.14873345  1
  O2-  O391  1  0.07541529  0.65333607  0.48171357  1
  O2-  O392  1  0.08014844  0.67475026  0.80684936  1
  O2-  O393  1  0.08887585  0.92592673  0.14304042  1
  O2-  O394  1  0.09798840  0.89368158  0.47832036  1
  O2-  O395  1  0.07725555  0.91628843  0.81469927  1
  O2-  O396  1  0.34189107  0.17256058  0.15092871  1
  O2-  O397  1  0.36860670  0.18976333  0.46947206  1
  O2-  O398  1  0.31879879  0.15460388  0.79905021  1
  O2-  O399  1  0.33294226  0.42092448  0.14539661  1
  O2-  O400  1  0.33062054  0.42226211  0.47362770  1
  O2-  O401  1  0.32919725  0.41639571  0.80981022  1
  O2-  O402  1  0.36933368  0.69662084  0.14813308  1
  O2-  O403  1  0.34556449  0.67540291  0.48795163  1
  O2-  O404  1  0.33929174  0.67239492  0.81675738  1
  O2-  O405  1  0.38292603  0.95821036  0.15211312  1
  O2-  O406  1  0.32921653  0.90263306  0.49115157  1
  O2-  O407  1  0.31648098  0.91141081  0.80200322  1
  O2-  O408  1  0.57237154  0.14211663  0.13508009  1
  O2-  O409  1  0.56553573  0.15367403  0.47841061  1
  O2-  O410  1  0.57447759  0.16487439  0.85851322  1
  O2-  O411  1  0.57954075  0.41939136  0.14557047  1
  O2-  O412  1  0.53222471  0.34818312  0.47014081  1
  O2-  O413  1  0.58441404  0.41274233  0.80606869  1
  O2-  O414  1  0.58030273  0.66214545  0.15086887  1
  O2-  O415  1  0.60197524  0.70980428  0.51149819  1
  O2-  O416  1  0.57751103  0.66281751  0.81596926  1
  O2-  O417  1  0.59239898  0.93257188  0.14831555  1
  O2-  O418  1  0.57930401  0.90972809  0.49709427  1
  O2-  O419  1  0.56546452  0.90879668  0.84075366  1
  O2-  O420  1  0.84155878  0.17917545  0.15861159  1
  O2-  O421  1  0.82328450  0.14625332  0.48822819  1
  O2-  O422  1  0.81597546  0.15732472  0.80441315  1
  O2-  O423  1  0.80607242  0.37731676  0.13688464  1
  O2-  O424  1  0.81822268  0.40249934  0.47707209  1
  O2-  O425  1  0.83382208  0.41998860  0.80325844  1
  O2-  O426  1  0.83167483  0.66280455  0.14776033  1
  O2-  O427  1  0.84150389  0.67117071  0.47608969  1
  O2-  O428  1  0.83811186  0.66885753  0.80214415  1
  O2-  O429  1  0.83271565  0.89443250  0.13323338  1
  O2-  O430  1  0.85416593  0.91200607  0.47132750  1
  O2-  O431  1  0.76489333  0.93078074  0.78778951  1
  O2-  O432  1  0.17268722  0.08818545  0.18834499  1
  O2-  O433  1  0.10179775  0.08438202  0.52404400  1
  O2-  O434  1  0.16158082  0.06790471  0.85737494  1
  O2-  O435  1  0.16933921  0.33872436  0.18391984  1
  O2-  O436  1  0.17267654  0.32557955  0.52013623  1
  O2-  O437  1  0.16546246  0.33140247  0.84749396  1
  O2-  O438  1  0.14835786  0.57861126  0.19568777  1
  O2-  O439  1  0.17733724  0.60175176  0.52275339  1
  O2-  O440  1  0.19556428  0.64750459  0.87665859  1
  O2-  O441  1  0.16175795  0.84002011  0.17827980  1
  O2-  O442  1  0.16091331  0.81508248  0.53414614  1
  O2-  O443  1  0.15965010  0.83453825  0.85658697  1
  O2-  O444  1  0.44085513  0.10844478  0.19880686  1
  O2-  O445  1  0.39334721  0.06589419  0.52094219  1
  O2-  O446  1  0.40117523  0.07606276  0.84243430  1
  O2-  O447  1  0.41569928  0.33783713  0.18488663  1
  O2-  O448  1  0.44953918  0.39884828  0.53708787  1
  O2-  O449  1  0.40990271  0.32144038  0.80125482  1
  O2-  O450  1  0.41621761  0.58188150  0.19504018  1
  O2-  O451  1  0.41899217  0.58193657  0.51929717  1
  O2-  O452  1  0.41518347  0.58119076  0.85903720  1
  O2-  O453  1  0.42937310  0.84653164  0.20075793  1
  O2-  O454  1  0.41901579  0.83375403  0.54006623  1
  O2-  O455  1  0.39926590  0.83808286  0.85634369  1
  O2-  O456  1  0.67580402  0.09228586  0.19896516  1
  O2-  O457  1  0.65473292  0.08157999  0.52162581  1
  O2-  O458  1  0.66646881  0.08231615  0.86723679  1
  O2-  O459  1  0.65124004  0.32454651  0.18978891  1
  O2-  O460  1  0.65320949  0.31730795  0.51791775  1
  O2-  O461  1  0.66936241  0.33863659  0.84714209  1
  O2-  O462  1  0.66650754  0.58389322  0.18861257  1
  O2-  O463  1  0.68597092  0.60694362  0.51750632  1
  O2-  O464  1  0.66593105  0.58676850  0.83986412  1
  O2-  O465  1  0.66584840  0.82868131  0.13583293  1
  O2-  O466  1  0.68825147  0.88962922  0.54328654  1
  O2-  O467  1  0.64926948  0.81678020  0.87255720  1
  O2-  O468  1  0.94200444  0.12135282  0.21046766  1
  O2-  O469  1  0.90199018  0.06112814  0.51800338  1
  O2-  O470  1  0.90020768  0.08480768  0.85511488  1
  O2-  O471  1  0.93031631  0.35254197  0.17304907  1
  O2-  O472  1  0.89660251  0.31570630  0.51986144  1
  O2-  O473  1  0.90921711  0.32949239  0.82414351  1
  O2-  O474  1  0.90500401  0.57841676  0.18993694  1
  O2-  O475  1  0.90832465  0.57114468  0.51442462  1
  O2-  O476  1  0.91624524  0.58438424  0.84666269  1
  O2-  O477  1  0.92388841  0.82718946  0.18812044  1
  O2-  O478  1  0.92905681  0.83444963  0.51201561  1
  O2-  O479  1  0.92155894  0.83128425  0.85287104  1
  O2-  O480  1  0.19719011  0.08416960  0.31328619  1
  O2-  O481  1  0.14174844  0.09102070  0.64277890  1
  O2-  O482  1  0.17020597  0.09364563  0.98096111  1
  O2-  O483  1  0.17769705  0.38492423  0.29811318  1
  O2-  O484  1  0.18033982  0.34757880  0.63951024  1
  O2-  O485  1  0.16620583  0.34161120  0.97177976  1
  O2-  O486  1  0.21277866  0.56119184  0.29510902  1
  O2-  O487  1  0.18427491  0.60055542  0.64863559  1
  O2-  O488  1  0.16732116  0.59530267  0.98991167  1
  O2-  O489  1  0.18420761  0.83194183  0.30416522  1
  O2-  O490  1  0.13631937  0.80834460  0.59836517  1
  O2-  O491  1  0.16765961  0.83880659  0.98091301  1
  O2-  O492  1  0.46683547  0.11978157  0.31894872  1
  O2-  O493  1  0.35396982  0.05180521  0.63464611  1
  O2-  O494  1  0.42086687  0.05617607  0.96562718  1
  O2-  O495  1  0.41432190  0.33348783  0.30798931  1
  O2-  O496  1  0.41319610  0.32679664  0.64905117  1
  O2-  O497  1  0.41260088  0.35007454  0.98290846  1
  O2-  O498  1  0.41838158  0.58464886  0.31754941  1
  O2-  O499  1  0.42363391  0.58341808  0.64432666  1
  O2-  O500  1  0.41367602  0.58700762  0.98263309  1
  O2-  O501  1  0.42365820  0.83435522  0.32249520  1
  O2-  O502  1  0.42298754  0.83339383  0.65969091  1
  O2-  O503  1  0.41495668  0.83878789  0.98366289  1
  O2-  O504  1  0.64705827  0.07416301  0.32259758  1
  O2-  O505  1  0.66312804  0.09414201  0.64338891  1
  O2-  O506  1  0.67023792  0.09537787  0.98771035  1
  O2-  O507  1  0.65037212  0.32280437  0.31448028  1
  O2-  O508  1  0.67629878  0.34235964  0.63793100  1
  O2-  O509  1  0.67358206  0.35450649  0.96968598  1
  O2-  O510  1  0.66033003  0.57463326  0.31023860  1
  O2-  O511  1  0.68548394  0.60016395  0.63958883  1
  O2-  O512  1  0.67891397  0.60312812  0.99713380  1
  O2-  O513  1  0.67172261  0.83122079  0.32605938  1
  O2-  O514  1  0.67884279  0.85112108  0.66071340  1
  O2-  O515  1  0.66048296  0.83967247  0.99300073  1
  O2-  O516  1  0.91748148  0.08028335  0.33439667  1
  O2-  O517  1  0.88304168  0.04745285  0.63983283  1
  O2-  O518  1  0.91415302  0.09312017  0.98024971  1
  O2-  O519  1  0.94670612  0.37733322  0.31771326  1
  O2-  O520  1  0.91257393  0.33049675  0.64372504  1
  O2-  O521  1  0.91486246  0.34088788  1.03817696  1
  O2-  O522  1  0.90075331  0.56898140  0.31574621  1
  O2-  O523  1  0.92168964  0.58167582  0.63758016  1
  O2-  O524  1  0.92115370  0.60149812  0.97094333  1
  O2-  O525  1  0.94270648  0.86914799  0.30916760  1
  O2-  O526  1  0.93559999  0.83311903  0.63542326  1
  O2-  O527  1  0.92142063  0.83950629  0.97765363  1
  O2-  O528  1  0.08289145  0.17822982  0.02242088  1
  O2-  O529  1  0.05996378  0.08969539  0.38784302  1
  O2-  O530  1  0.07653211  0.19639613  0.68453617  1
  O2-  O531  1  0.09318131  0.43050272  0.01928985  1
  O2-  O532  1  0.07469977  0.47253798  0.40013018  1
  O2-  O533  1  0.08726179  0.42784819  0.62944464  1
  O2-  O534  1  0.08065906  0.67704794  0.02546079  1
  O2-  O535  1  0.06077368  0.67374117  0.36292670  1
  O2-  O536  1  0.08407232  0.66849669  0.67913971  1
  O2-  O537  1  0.08885457  0.92697175  0.02002798  1
  O2-  O538  1  0.10719898  0.91601353  0.35369885  1
  O2-  O539  1  0.09086888  0.92882994  0.69126447  1
  O2-  O540  1  0.34114142  0.18678996  0.02239257  1
  O2-  O541  1  0.35835801  0.17449359  0.35175354  1
  O2-  O542  1  0.30244390  0.14730711  0.67640917  1
  O2-  O543  1  0.33150900  0.42458722  0.02309574  1
  O2-  O544  1  0.33262936  0.41750635  0.34929579  1
  O2-  O545  1  0.33745680  0.41891954  0.68821351  1
  O2-  O546  1  0.33697824  0.67563684  0.02454059  1
  O2-  O547  1  0.34940330  0.67756941  0.36433486  1
  O2-  O548  1  0.34499424  0.66541306  0.69316584  1
  O2-  O549  1  0.32640500  0.91483108  0.03103349  1
  O2-  O550  1  0.32455587  0.90003082  0.36468831  1
  O2-  O551  1  0.24276229  0.91070602  0.68011893  1
  O2-  O552  1  0.59156061  0.18825057  0.00820617  1
  O2-  O553  1  0.55177118  0.15766982  0.34741839  1
  O2-  O554  1  0.67578849  0.22266810  0.72973080  1
  O2-  O555  1  0.58541518  0.43099196  0.02093060  1
  O2-  O556  1  0.57226191  0.40846909  0.35621918  1
  O2-  O557  1  0.57112582  0.44418614  0.69429193  1
  O2-  O558  1  0.57194161  0.66799122  0.02981913  1
  O2-  O559  1  0.58515586  0.65270722  0.35739173  1
  O2-  O560  1  0.58696452  0.66908830  0.69045913  1
  O2-  O561  1  0.57899525  0.92751180  0.02383855  1
  O2-  O562  1  0.58429688  0.91247542  0.36918515  1
  O2-  O563  1  0.60363259  0.94055418  0.69237758  1
  O2-  O564  1  0.83169245  0.16792199  0.03493438  1
  O2-  O565  1  0.81411735  0.15117900  0.37104969  1
  O2-  O566  1  0.83386533  0.16500209  0.68201466  1
  O2-  O567  1  0.83766821  0.43658599  0.01645164  1
  O2-  O568  1  0.81278524  0.40364274  0.35327917  1
  O2-  O569  1  0.83863002  0.42109774  0.68182753  1
  O2-  O570  1  0.83953153  0.67543980  0.02543049  1
  O2-  O571  1  0.82122740  0.65435794  0.36029928  1
  O2-  O572  1  0.84999600  0.67248069  0.68015621  1
  O2-  O573  1  0.83487367  0.92313534  0.01101918  1
  O2-  O574  1  0.83935683  0.91083211  0.35683289  1
  O2-  O575  1  0.86955526  0.91137145  0.70058963  1
