# generated using pymatgen
data_H2O
_symmetry_space_group_name_H-M   'P 1'
_cell_length_a   17.99144864
_cell_length_b   17.98320156
_cell_length_c   21.99331181
_cell_angle_alpha   90.00214226
_cell_angle_beta   90.00805518
_cell_angle_gamma   120.01261696
_symmetry_Int_Tables_number   1
_chemical_formula_structural   H2O
_chemical_formula_sum   'H384 O192'
_cell_volume   6161.68045637
_cell_formula_units_Z   192
loop_
 _symmetry_equiv_pos_site_id
 _symmetry_equiv_pos_as_xyz
  1  'x, y, z'
loop_
 _atom_type_symbol
 _atom_type_oxidation_number
  H+  1.0
  O2-  -2.0
loop_
 _atom_site_type_symbol
 _atom_site_label
 _atom_site_symmetry_multiplicity
 _atom_site_fract_x
 _atom_site_fract_y
 _atom_site_fract_z
 _atom_site_occupancy
  H+  H0  1  0.15060219  0.02670547  1.00709929  1
  H+  H1  1  0.53239132  0.37539164  0.84208901  1
  H+  H2  1  0.52190931  0.88176864  0.67148634  1
  H+  H3  1  0.13853568  0.60948324  0.66013119  1
  H+  H4  1  0.63709527  0.76406584  0.32313239  1
  H+  H5  1  0.52161355  0.87782520  0.82581711  1
  H+  H6  1  0.39423740  0.11382768  0.32293186  1
  H+  H7  1  0.33847930  0.92405666  0.10131331  1
  H+  H8  1  0.81441515  0.17661169  0.26653492  1
  H+  H9  1  0.25085293  0.11666379  0.34387940  1
  H+  H10  1  0.36512780  0.63926361  0.67007486  1
  H+  H11  1  0.38095270  0.11685699  0.66920939  1
  H+  H12  1  0.85513139  0.97896189  0.34359994  1
  H+  H13  1  0.61466150  0.23317111  0.48169269  1
  H+  H14  1  0.51614248  0.36176944  -0.01826736  1
  H+  H15  1  0.51739020  0.15178845  0.00805069  1
  H+  H16  1  0.38243988  0.77573883  0.18160064  1
  H+  H17  1  -0.01365126  0.88630888  0.16302705  1
  H+  H18  1  1.02217543  0.13357684  0.83191885  1
  H+  H19  1  0.14205225  0.77352465  0.99428455  1
  H+  H20  1  0.60446036  0.38938476  0.67351650  1
  H+  H21  1  0.40633231  0.12990834  0.84578790  1
  H+  H22  1  0.79141296  0.38740682  0.84752720  1
  H+  H23  1  0.63043704  0.52379571  0.67066758  1
  H+  H24  1  0.34704578  0.17035506  0.09766708  1
  H+  H25  1  0.73982503  0.35073202  0.30091564  1
  H+  H26  1  0.83092105  0.66175172  0.09175823  1
  H+  H27  1  0.21190920  0.35373194  0.49204111  1
  H+  H28  1  0.38604386  0.77595114  0.66273879  1
  H+  H29  1  0.13532120  0.52389830  0.17205634  1
  H+  H30  1  0.86046661  0.96565569  0.00607993  1
  H+  H31  1  0.33361904  0.66388665  0.73068847  1
  H+  H32  1  0.02878174  0.88632075  0.49355175  1
  H+  H33  1  0.11816757  0.89981218  0.33899085  1
  H+  H34  1  -0.10269613  0.53686863  0.17548988  1
  H+  H35  1  0.38101475  0.36473307  0.16450545  1
  H+  H36  1  0.38893867  0.11548959  0.51072223  1
  H+  H37  1  0.12271952  0.63946581  1.00529438  1
  H+  H38  1  0.02175770  0.38446600  0.00929933  1
  H+  H39  1  0.34481943  0.92923221  0.77285669  1
  H+  H40  1  0.11946441  0.74930374  0.34068061  1
  H+  H41  1  0.97635001  0.10831347  1.00192540  1
  H+  H42  1  0.76997914  0.13880136  0.00923160  1
  H+  H43  1  0.83222269  0.66097174  0.74017182  1
  H+  H44  1  0.39068739  0.03385942  0.84840361  1
  H+  H45  1  0.38759771  0.52143707  0.32659336  1
  H+  H46  1  0.85665928  0.88120007  0.82057924  1
  H+  H47  1  0.90922060  0.38502485  0.31619634  1
  H+  H48  1  0.51437050  0.14479973  0.68057783  1
  H+  H49  1  0.87706334  0.25551065  0.85257849  1
  H+  H50  1  0.38433427  0.61452003  0.17419531  1
  H+  H51  1  0.85626144  0.72200019  0.68112890  1
  H+  H52  1  0.14923912  0.31565019  0.54668908  1
  H+  H53  1  0.88631373  0.34909223  0.85705669  1
  H+  H54  1  0.88220603  0.73722593  0.48343260  1
  H+  H55  1  0.77284261  0.38907909  0.16426513  1
  H+  H56  1  0.35450618  0.25496565  0.31692182  1
  H+  H57  1  0.36294732  0.48059201  0.51372338  1
  H+  H58  1  0.13521941  0.28275947  0.33988933  1
  H+  H59  1  0.36273224  0.38871669  0.66455940  1
  H+  H60  1  0.60833130  0.87265514  0.34195688  1
  H+  H61  1  0.72565475  0.62194155  0.31888094  1
  H+  H62  1  0.72997107  0.87181450  0.65671555  1
  H+  H63  1  0.38856212  0.61288374  0.50992332  1
  H+  H64  1  0.25924356  0.17335270  0.82340025  1
  H+  H65  1  0.64612267  0.01736525  0.65240169  1
  H+  H66  1  0.86249792  0.97850343  0.49062983  1
  H+  H67  1  1.02686322  0.38194456  0.66854600  1
  H+  H68  1  0.14582269  0.77480872  0.50508447  1
  H+  H69  1  0.11307977  0.22811474  0.01447104  1
  H+  H70  1  0.51844526  0.88348147  0.15958090  1
  H+  H71  1  0.92742937  0.58556657  0.93661019  1
  H+  H72  1  0.13573608  0.27494161  0.18326414  1
  H+  H73  1  0.41056652  0.25579302  0.96781256  1
  H+  H74  1  0.36694280  0.98189509  0.16096528  1
  H+  H75  1  0.63682933  0.86592726  0.65750573  1
  H+  H76  1  0.63973128  0.37795099  0.49521525  1
  H+  H77  1  0.60652552  0.97265745  0.15737613  1
  H+  H78  1  1.02486950  0.63231716  0.68064779  1
  H+  H79  1  0.38811875  0.86735612  0.17431643  1
  H+  H80  1  0.14725039  1.02920776  0.51323902  1
  H+  H81  1  0.36324827  0.72724494  0.33132108  1
  H+  H82  1  0.15859347  0.99636677  0.65074884  1
  H+  H83  1  0.96214868  0.84206070  0.66902100  1
  H+  H84  1  0.14402336  0.52999899  0.32216319  1
  H+  H85  1  0.48166222  0.87131672  0.51066405  1
  H+  H86  1  0.13396753  0.35795748  0.64032663  1
  H+  H87  1  0.11494250  0.72036071  0.67494606  1
  H+  H88  1  0.89611809  0.88436575  0.32334645  1
  H+  H89  1  0.38319278  0.26755826  0.50809513  1
  H+  H90  1  0.95919112  0.84557959  0.81397084  1
  H+  H91  1  0.11864167  0.14308304  0.02596852  1
  H+  H92  1  0.35790157  0.47694854  0.15956022  1
  H+  H93  1  0.60258560  0.46850106  0.14452278  1
  H+  H94  1  0.28261242  0.64051991  0.50075600  1
  H+  H95  1  0.99202448  0.10231422  0.18013977  1
  H+  H96  1  0.10999095  0.38708232  0.49016085  1
  H+  H97  1  0.61502027  0.27862980  0.65953198  1
  H+  H98  1  0.97162267  0.10606150  0.65021344  1
  H+  H99  1  0.60944284  0.62329660  0.33129306  1
  H+  H100  1  0.83617232  0.48172904  0.70212903  1
  H+  H101  1  0.98110440  0.36525776  0.16882923  1
  H+  H102  1  0.70902320  0.11272171  0.19082349  1
  H+  H103  1  0.47803907  0.11642446  0.51122163  1
  H+  H104  1  0.63068159  0.36149505  0.16245911  1
  H+  H105  1  0.14095553  0.53013784  0.50388441  1
  H+  H106  1  0.14294179  0.77581420  0.17546113  1
  H+  H107  1  0.88561562  0.10397791  0.99997334  1
  H+  H108  1  0.25292220  0.16621034  0.65438194  1
  H+  H109  1  0.37972313  0.35627388  0.51468062  1
  H+  H110  1  0.62781532  0.85709817  0.16966988  1
  H+  H111  1  0.92157692  0.08969145  0.55149239  1
  H+  H112  1  0.61951224  1.00420982  0.32747737  1
  H+  H113  1  0.27842943  0.89037379  0.49676910  1
  H+  H114  1  0.35961712  0.47677144  0.66541543  1
  H+  H115  1  0.15616434  0.87450407  0.84129125  1
  H+  H116  1  0.88603566  0.79441055  0.32787453  1
  H+  H117  1  0.88857796  0.24967053  0.33519522  1
  H+  H118  1  0.58046957  0.16325111  0.43040180  1
  H+  H119  1  0.86406475  0.14611424  0.48158758  1
  H+  H120  1  0.72315313  0.85580694  0.83682558  1
  H+  H121  1  0.37266772  0.81972536  1.00630164  1
  H+  H122  1  0.37761562  0.70784081  -0.00568618  1
  H+  H123  1  0.89084115  0.37289435  0.50591375  1
  H+  H124  1  0.51689518  0.13775662  0.15792688  1
  H+  H125  1  0.48570266  0.11656482  0.32401088  1
  H+  H126  1  0.64982234  0.57303212  0.93716430  1
  H+  H127  1  0.33949319  0.92538177  0.40254969  1
  H+  H128  1  0.02474013  0.39439208  0.49350033  1
  H+  H129  1  0.71599908  0.85596989  0.16771073  1
  H+  H130  1  0.58561312  0.39201940  0.36765314  1
  H+  H131  1  0.63626917  0.62126310  0.83206727  1
  H+  H132  1  0.66072804  0.35611740  0.32202776  1
  H+  H133  1  0.47417697  0.85470089  0.99840179  1
  H+  H134  1  0.40103338  0.10828842  0.94383453  1
  H+  H135  1  0.51331916  0.38058876  0.15002748  1
  H+  H136  1  0.38540210  0.59490304  0.82959461  1
  H+  H137  1  0.73255473  0.37089474  1.00587975  1
  H+  H138  1  0.77396200  0.12453633  0.82041962  1
  H+  H139  1  0.22055681  0.35649711  0.63996033  1
  H+  H140  1  0.77965620  0.13038095  0.66550466  1
  H+  H141  1  0.61019702  0.87632575  0.82646110  1
  H+  H142  1  0.97247027  0.11324037  0.48712311  1
  H+  H143  1  0.39128870  0.86593012  0.84043645  1
  H+  H144  1  0.39249806  0.26709335  0.84504191  1
  H+  H145  1  0.89769180  0.08068566  0.16669482  1
  H+  H146  1  0.14876769  0.90961638  0.15791339  1
  H+  H147  1  0.13999508  0.37444018  0.33658566  1
  H+  H148  1  0.61641549  0.73154745  0.66816839  1
  H+  H149  1  0.84010830  0.42526156  0.07292306  1
  H+  H150  1  0.89518570  0.86491338  0.98765760  1
  H+  H151  1  0.83877223  0.83272044  0.51485848  1
  H+  H152  1  0.14138725  0.86130029  0.50870465  1
  H+  H153  1  0.42094222  0.84330989  0.27058636  1
  H+  H154  1  0.12329502  0.14257283  0.17004868  1
  H+  H155  1  0.61746978  0.38124621  0.00173493  1
  H+  H156  1  0.58458568  0.66932113  0.76060164  1
  H+  H157  1  0.47595145  0.60607972  0.50400978  1
  H+  H158  1  0.76860968  0.88619078  0.33796485  1
  H+  H159  1  0.97616030  0.11457423  0.33911098  1
  H+  H160  1  0.10664660  0.22452021  0.45712818  1
  H+  H161  1  0.97773709  0.85038210  0.14155478  1
  H+  H162  1  0.82600994  0.85003958  0.16179504  1
  H+  H163  1  0.36530213  0.71711001  0.82612909  1
  H+  H164  1  0.16786094  0.59034541  0.56249371  1
  H+  H165  1  0.73227289  0.84553970  0.98940358  1
  H+  H166  1  0.87571622  0.64208187  1.00556185  1
  H+  H167  1  0.27365074  0.13456286  0.49790425  1
  H+  H168  1  0.53568994  0.14303474  0.83864738  1
  H+  H169  1  0.09065469  0.84296307  0.68620553  1
  H+  H170  1  0.11220117  0.38566242  0.16177557  1
  H+  H171  1  0.86271038  0.98207529  0.66547759  1
  H+  H172  1  0.48138805  0.37476076  0.66205341  1
  H+  H173  1  0.07476168  0.93817147  0.85108195  1
  H+  H174  1  0.61764374  0.13406371  0.82536593  1
  H+  H175  1  0.11625360  0.47032613  0.66465949  1
  H+  H176  1  0.72262491  0.61155976  0.67323347  1
  H+  H177  1  0.57221698  0.41801811  0.73544208  1
  H+  H178  1  0.11765583  0.14592164  0.82641393  1
  H+  H179  1  0.65485611  0.54736837  0.52266033  1
  H+  H180  1  0.03387936  0.89664610  0.00147899  1
  H+  H181  1  0.87589052  0.73017023  1.00448879  1
  H+  H182  1  0.89729786  0.52366899  0.84812876  1
  H+  H183  1  0.16395007  0.16478112  0.64996708  1
  H+  H184  1  0.39052283  0.86891289  0.33167142  1
  H+  H185  1  0.61942895  -0.01391147  0.48901168  1
  H+  H186  1  0.28287432  0.05987063  0.37374737  1
  H+  H187  1  0.11575869  0.63745826  0.16189304  1
  H+  H188  1  0.73183838  0.38437256  0.48297139  1
  H+  H189  1  0.15808207  0.04032696  0.17691221  1
  H+  H190  1  0.28700406  0.89724115  0.83241173  1
  H+  H191  1  1.03235920  0.65935354  0.33923793  1
  H+  H192  1  0.88024599  0.49544357  0.48682482  1
  H+  H193  1  0.86120972  0.89183864  0.67368675  1
  H+  H194  1  0.12449956  0.02906300  0.33193443  1
  H+  H195  1  0.27516845  0.63031092  0.82718059  1
  H+  H196  1  0.89403028  0.27259402  0.65751701  1
  H+  H197  1  0.23416398  0.86261062  0.17549090  1
  H+  H198  1  0.51556999  0.38977098  0.51154367  1
  H+  H199  1  0.23404033  0.87883552  0.32913708  1
  H+  H200  1  0.12183903  -0.02505562  0.62879413  1
  H+  H201  1  0.76671106  0.72784373  0.37891141  1
  H+  H202  1  0.68001361  0.33716650  0.90663680  1
  H+  H203  1  0.36254779  0.63825490  0.32971292  1
  H+  H204  1  0.22220404  0.35661820  0.99507197  1
  H+  H205  1  0.57260179  0.91659404  0.06723561  1
  H+  H206  1  0.67321065  0.85332867  0.57094636  1
  H+  H207  1  0.23124975  0.61874548  0.31407436  1
  H+  H208  1  0.65629669  0.27770650  0.84771505  1
  H+  H209  1  0.47718346  0.61630773  0.65948441  1
  H+  H210  1  0.64186529  0.14279431  0.98762748  1
  H+  H211  1  0.47287708  0.61334636  0.16725134  1
  H+  H212  1  1.00387937  0.62835601  0.48654800  1
  H+  H213  1  0.52405492  0.62917216  0.33502941  1
  H+  H214  1  0.16339672  0.58116944  0.23602102  1
  H+  H215  1  0.59861406  0.47572985  0.83256764  1
  H+  H216  1  0.37222378  -0.01716352  0.34118918  1
  H+  H217  1  0.63927056  0.11860982  0.49996913  1
  H+  H218  1  0.50376463  0.34867723  0.30807658  1
  H+  H219  1  0.39237784  0.87022025  0.50917452  1
  H+  H220  1  0.15276431  1.00940545  0.81580620  1
  H+  H221  1  0.90712863  0.66678605  0.46304513  1
  H+  H222  1  0.73424644  0.88428283  0.50565689  1
  H+  H223  1  0.12773995  0.64435303  0.48617752  1
  H+  H224  1  0.13315869  0.27569791  0.83986674  1
  H+  H225  1  0.30456849  0.40209055  0.55583896  1
  H+  H226  1  0.11184091  0.47263111  0.00431749  1
  H+  H227  1  1.02625577  0.89558800  0.33906719  1
  H+  H228  1  0.61933407  0.21514211  0.33343485  1
  H+  H229  1  0.84991134  0.43495160  0.25081839  1
  H+  H230  1  0.61506250  0.64136882  0.67358926  1
  H+  H231  1  0.63275121  0.00992519  0.83307995  1
  H+  H232  1  0.98242481  0.61691276  0.84269965  1
  H+  H233  1  0.26644697  0.38851649  0.34680480  1
  H+  H234  1  0.59447475  -0.02683174  1.00671011  1
  H+  H235  1  0.60829941  0.72207712  0.15439235  1
  H+  H236  1  0.88647694  0.11302654  0.64865909  1
  H+  H237  1  0.92743069  0.60811818  0.26165099  1
  H+  H238  1  0.86427900  0.38596377  1.01592108  1
  H+  H239  1  0.52164061  0.62765008  0.81804784  1
  H+  H240  1  0.35926822  0.97803172  0.67879493  1
  H+  H241  1  0.88695268  1.01733836  0.84317732  1
  H+  H242  1  0.60517155  0.11927258  0.33767798  1
  H+  H243  1  0.66236571  0.52280569  0.32171364  1
  H+  H244  1  0.60708821  0.63183090  0.15122275  1
  H+  H245  1  0.89743849  0.52739674  0.99681780  1
  H+  H246  1  0.62224310  0.10904643  0.16819933  1
  H+  H247  1  0.50385735  0.39015029  0.31407926  1
  H+  H248  1  0.16645936  0.57875186  0.93009230  1
  H+  H249  1  0.88165672  0.61332883  0.67319126  1
  H+  H250  1  0.37966267  0.93572541  0.99282216  1
  H+  H251  1  0.17394741  0.10398231  0.96177854  1
  H+  H252  1  0.72892563  0.12016117  0.49488178  1
  H+  H253  1  0.35109185  0.00036976  1.01117255  1
  H+  H254  1  0.36650170  -0.01896066  0.49841610  1
  H+  H255  1  0.86420746  0.12843132  0.82597533  1
  H+  H256  1  0.12354620  0.39796795  0.82337175  1
  H+  H257  1  0.64064609  0.28111645  0.00348079  1
  H+  H258  1  0.05273502  0.06737188  0.69843550  1
  H+  H259  1  0.63210689  0.74153982  0.99299667  1
  H+  H260  1  0.85954583  0.63353879  0.15364677  1
  H+  H261  1  0.14313514  0.61490113  0.84018934  1
  H+  H262  1  0.26776856  0.37704166  0.81880041  1
  H+  H263  1  0.88763419  0.28270993  0.49929918  1
  H+  H264  1  0.83073706  0.73570439  0.17930740  1
  H+  H265  1  0.89324612  0.63165042  0.32162548  1
  H+  H266  1  0.12037634  0.73016499  0.82859777  1
  H+  H267  1  0.86442845  0.62979467  0.83319277  1
  H+  H268  1  0.13284993  0.35667143  -0.00530488  1
  H+  H269  1  0.88715236  0.27235748  0.01160706  1
  H+  H270  1  0.21415523  0.10997338  0.87766694  1
  H+  H271  1  0.34361079  0.33670957  0.31823792  1
  H+  H272  1  0.53261852  0.62945199  -0.00574442  1
  H+  H273  1  0.16722610  0.33273588  0.89979505  1
  H+  H274  1  0.25970111  0.63266747  0.17225289  1
  H+  H275  1  0.40249577  0.59506168  0.97115575  1
  H+  H276  1  0.86471308  0.38956585  0.16680210  1
  H+  H277  1  0.51982028  0.87546939  0.34434570  1
  H+  H278  1  0.88947281  0.28129091  0.19025893  1
  H+  H279  1  0.36261725  0.45942877  0.99992573  1
  H+  H280  1  0.22791629  0.60175531  0.98717863  1
  H+  H281  1  0.70285655  0.36449552  0.65829694  1
  H+  H282  1  0.37891319  0.24384543  0.67671925  1
  H+  H283  1  0.65996729  0.57086419  0.21808613  1
  H+  H284  1  0.38770388  0.11712185  0.17158543  1
  H+  H285  1  0.22873165  0.61288054  0.65668410  1
  H+  H286  1  0.36470116  0.89111373  0.67876323  1
  H+  H287  1  0.10880955  0.14360422  0.36002423  1
  H+  H288  1  0.94238178  0.61901333  0.54144065  1
  H+  H289  1  0.78602951  0.73601450  0.53867544  1
  H+  H290  1  0.08568693  0.91772728  0.43408209  1
  H+  H291  1  0.66994814  0.81570688  0.92794528  1
  H+  H292  1  0.89437243  0.55304915  0.62530843  1
  H+  H293  1  0.57954426  0.65130095  0.43232153  1
  H+  H294  1  0.58262126  0.66542231  0.05995599  1
  H+  H295  1  0.63871214  0.88740150  0.50606640  1
  H+  H296  1  0.22663493  0.85844130  0.66549013  1
  H+  H297  1  0.60781691  0.22713835  0.15510837  1
  H+  H298  1  0.40922336  0.08543805  0.60921952  1
  H+  H299  1  0.18278729  0.10933101  0.56102606  1
  H+  H300  1  0.58647191  0.91440054  0.43441047  1
  H+  H301  1  0.82910661  0.90059879  0.06268838  1
  H+  H302  1  0.43438395  0.56251181  0.91656577  1
  H+  H303  1  0.77409534  0.63047961  0.83086190  1
  H+  H304  1  0.57392633  0.44624206  0.45846282  1
  H+  H305  1  0.66228333  0.40097557  0.40858045  1
  H+  H306  1  0.09463048  0.43119558  0.40441846  1
  H+  H307  1  0.09708756  0.42478391  0.76181278  1
  H+  H308  1  0.82519237  0.91433734  0.43372272  1
  H+  H309  1  0.83013395  0.92068463  0.76496080  1
  H+  H310  1  0.37168249  0.72778776  0.50574470  1
  H+  H311  1  0.32573504  0.41362981  0.06378848  1
  H+  H312  1  0.14306931  0.52491630  0.83506289  1
  H+  H313  1  0.16530744  0.33825398  0.24043312  1
  H+  H314  1  0.38576481  0.50528159  0.82381166  1
  H+  H315  1  0.87879020  0.76123009  0.83508021  1
  H+  H316  1  0.75243060  0.43548382  0.74188338  1
  H+  H317  1  0.39543015  0.32338741  0.22349709  1
  H+  H318  1  0.81497297  0.14450012  0.07232852  1
  H+  H319  1  0.86176087  0.95121755  0.15895240  1
  H+  H320  1  0.09150284  0.67075838  0.10130605  1
  H+  H321  1  0.17510373  0.84731125  0.26875781  1
  H+  H322  1  0.72001869  0.18948137  0.94385857  1
  H+  H323  1  0.66252660  0.82535408  0.26471331  1
  H+  H324  1  0.67593719  0.07777754  0.59375538  1
  H+  H325  1  0.92640771  0.83771662  0.92789688  1
  H+  H326  1  0.33986383  0.30515308  0.80700068  1
  H+  H327  1  0.37057170  0.23533363  0.15363328  1
  H+  H328  1  0.83521579  0.70024523  0.39763139  1
  H+  H329  1  0.10015457  0.68298413  0.42618626  1
  H+  H330  1  0.33354808  0.16222727  0.43895262  1
  H+  H331  1  0.34684545  0.20056714  0.73991688  1
  H+  H332  1  0.03922633  0.40247086  0.34279018  1
  H+  H333  1  0.07377686  0.88964808  0.74113205  1
  H+  H334  1  0.90646373  0.31972314  0.94721116  1
  H+  H335  1  0.41796907  0.57788772  0.26565263  1
  H+  H336  1  0.35837224  0.63506047  0.04331673  1
  H+  H337  1  0.41955130  0.08588737  0.23021227  1
  H+  H338  1  0.66006951  0.32924763  0.22237202  1
  H+  H339  1  0.86875235  0.80458860  0.23453198  1
  H+  H340  1  0.26883544  0.38812757  0.16338414  1
  H+  H341  1  0.03382062  0.63948666  0.00641990  1
  H+  H342  1  0.94570674  0.35364057  0.26550440  1
  H+  H343  1  0.12006311  0.89098080  0.00166248  1
  H+  H344  1  0.58324760  0.90929412  0.72985205  1
  H+  H345  1  0.85264466  0.43120267  0.43167217  1
  H+  H346  1  0.98690014  0.62578286  0.17034604  1
  H+  H347  1  0.15970189  0.09458341  0.27520095  1
  H+  H348  1  0.41986645  0.58647552  0.59907898  1
  H+  H349  1  0.92755944  0.08121758  0.27485785  1
  H+  H350  1  0.33300658  0.41419616  0.40168584  1
  H+  H351  1  0.41475352  0.82779813  0.89816662  1
  H+  H352  1  0.83928676  0.16024079  0.72554480  1
  H+  H353  1  0.08857483  0.66792981  0.77057460  1
  H+  H354  1  0.91713338  0.07599987  0.90357772  1
  H+  H355  1  0.84422870  0.41597236  0.78746040  1
  H+  H356  1  0.89668383  0.81794858  0.61059978  1
  H+  H357  1  0.31953554  0.40296526  0.75511904  1
  H+  H358  1  0.56387955  0.40078287  0.05529486  1
  H+  H359  1  0.83583362  0.17943524  0.42349036  1
  H+  H360  1  0.06829989  0.14709326  0.73698582  1
  H+  H361  1  0.12125326  0.94178120  0.09860160  1
  H+  H362  1  0.67176328  0.60073967  0.58161160  1
  H+  H363  1  0.87857990  0.15483794  0.33521652  1
  H+  H364  1  0.16950494  0.82810025  0.60443209  1
  H+  H365  1  0.42050393  0.33433671  0.60235588  1
  H+  H366  1  0.71656248  0.59951079  0.15809953  1
  H+  H367  1  0.84171815  0.13831994  0.21412447  1
  H+  H368  1  0.57970532  0.18194869  0.73597953  1
  H+  H369  1  0.29828331  0.12365744  0.00256971  1
  H+  H370  1  0.41751634  0.83888088  0.60490220  1
  H+  H371  1  0.31650366  0.67942111  0.11518917  1
  H+  H372  1  0.23741778  0.13189121  0.18253472  1
  H+  H373  1  0.63228198  0.05671943  0.26578231  1
  H+  H374  1  0.66501788  0.07520360  0.88973072  1
  H+  H375  1  0.92245208  0.33547472  0.60145270  1
  H+  H376  1  0.08502208  0.41438408  0.09952515  1
  H+  H377  1  0.22839927  0.86648158  0.99333695  1
  H+  H378  1  0.61221670  0.63603629  0.49655569  1
  H+  H379  1  0.87224151  0.49389528  0.30790901  1
  H+  H380  1  0.63419968  0.76533120  0.83615891  1
  H+  H381  1  0.08636858  0.17058580  0.11225443  1
  H+  H382  1  0.57541713  0.16837061  0.06735627  1
  H+  H383  1  0.17559384  0.83597492  0.90050639  1
  O2-  O384  1  0.08651550  0.16820549  0.15778462  1
  O2-  O385  1  0.07331483  0.16400519  0.44062750  1
  O2-  O386  1  0.08016954  0.16837745  0.81251952  1
  O2-  O387  1  0.08090451  0.41415851  0.14511464  1
  O2-  O388  1  0.08599068  0.42501265  0.47933306  1
  O2-  O389  1  0.09989638  0.43295814  0.80667873  1
  O2-  O390  1  0.08820627  0.67092990  0.14665153  1
  O2-  O391  1  0.09766440  0.67644504  0.47279260  1
  O2-  O392  1  0.08758500  0.66880347  0.81613956  1
  O2-  O393  1  0.14767948  0.95923917  0.13914656  1
  O2-  O394  1  0.08810603  0.91457932  0.47972446  1
  O2-  O395  1  0.11429869  0.94568521  0.81818255  1
  O2-  O396  1  0.34216437  0.17258781  0.14214348  1
  O2-  O397  1  0.33720059  0.16680200  0.48374433  1
  O2-  O398  1  0.34385022  0.25215442  0.81240123  1
  O2-  O399  1  0.32736821  0.41623021  0.14490906  1
  O2-  O400  1  0.32561456  0.41415702  0.51387474  1
  O2-  O401  1  0.32569757  0.39858268  0.79995004  1
  O2-  O402  1  0.32313702  0.66804674  0.15748286  1
  O2-  O403  1  0.34515585  0.66696229  0.49339016  1
  O2-  O404  1  0.33559817  0.65713141  0.81101719  1
  O2-  O405  1  0.33912586  0.92076197  0.14611127  1
  O2-  O406  1  0.33844866  0.92176130  0.48055552  1
  O2-  O407  1  0.34810684  0.93162218  0.81863993  1
  O2-  O408  1  0.57701303  0.16602786  0.14076413  1
  O2-  O409  1  0.58363277  0.17017339  0.47576308  1
  O2-  O410  1  0.59276290  0.17214208  0.81933381  1
  O2-  O411  1  0.57132482  0.40699501  0.13014893  1
  O2-  O412  1  0.57789700  0.42953916  0.49996954  1
  O2-  O413  1  0.56179139  0.42175849  0.81115960  1
  O2-  O414  1  0.57708171  0.66268388  0.13665250  1
  O2-  O415  1  0.57331849  0.65300918  0.47687826  1
  O2-  O416  1  0.58377214  0.66448834  0.80641269  1
  O2-  O417  1  0.57779745  0.91218061  0.14180449  1
  O2-  O418  1  0.58993863  0.92214016  0.48018366  1
  O2-  O419  1  0.58177758  0.90765527  0.80992629  1
  O2-  O420  1  0.81552369  0.17378261  0.22069104  1
  O2-  O421  1  0.83455923  0.17796079  0.46884081  1
  O2-  O422  1  0.83541844  0.15844139  0.80838525  1
  O2-  O423  1  0.83682827  0.42527665  0.15988615  1
  O2-  O424  1  0.84469646  0.43297666  0.47536133  1
  O2-  O425  1  0.85322992  0.41906827  0.83204880  1
  O2-  O426  1  0.82048044  0.65287397  0.13751574  1
  O2-  O427  1  0.89824225  0.71384163  0.44800082  1
  O2-  O428  1  0.83459816  0.65998922  0.81596407  1
  O2-  O429  1  0.81993203  0.89705294  0.13922571  1
  O2-  O430  1  0.82566430  0.91593401  0.47956852  1
  O2-  O431  1  0.82830219  0.91505637  0.81035246  1
  O2-  O432  1  0.17711256  0.09834200  0.19670168  1
  O2-  O433  1  0.17990805  0.09203978  0.51733931  1
  O2-  O434  1  0.20188536  0.11795476  0.83587325  1
  O2-  O435  1  0.16477523  0.33681171  0.19504145  1
  O2-  O436  1  0.14961514  0.31801982  0.50021696  1
  O2-  O437  1  0.16895454  0.33576982  0.85443494  1
  O2-  O438  1  0.16403777  0.58402530  0.18723008  1
  O2-  O439  1  0.17046553  0.59157796  0.51695308  1
  O2-  O440  1  0.17349007  0.58475652  0.85494162  1
  O2-  O441  1  0.17450936  0.83582544  0.19160364  1
  O2-  O442  1  0.17313510  0.83324703  0.52460270  1
  O2-  O443  1  0.18072407  0.83893952  0.85494788  1
  O2-  O444  1  0.41737414  0.08498696  0.18458047  1
  O2-  O445  1  0.41821960  0.08462388  0.52707900  1
  O2-  O446  1  0.41978773  0.09181350  0.86894577  1
  O2-  O447  1  0.41183484  0.33448328  0.17943417  1
  O2-  O448  1  0.41387439  0.32803752  0.52470937  1
  O2-  O449  1  0.46474233  0.28647055  0.88788770  1
  O2-  O450  1  0.41395664  0.58244327  0.18536059  1
  O2-  O451  1  0.41679149  0.57810141  0.52313131  1
  O2-  O452  1  0.41856550  0.56566519  0.83988833  1
  O2-  O453  1  0.41859542  0.83806594  0.19116371  1
  O2-  O454  1  0.42247770  0.84151289  0.52731812  1
  O2-  O455  1  0.41710150  0.83032266  0.85325862  1
  O2-  O456  1  0.64668590  0.07375974  0.18446228  1
  O2-  O457  1  0.66905739  0.08610423  0.51081795  1
  O2-  O458  1  0.66502868  0.07239122  0.84508758  1
  O2-  O459  1  0.66324216  0.33313818  0.17681327  1
  O2-  O460  1  0.67006703  0.35378710  0.47164053  1
  O2-  O461  1  0.69188398  0.33749734  0.86285057  1
  O2-  O462  1  0.65539225  0.57058298  0.17305731  1
  O2-  O463  1  0.68081198  0.60751909  0.53644671  1
  O2-  O464  1  0.66818793  0.59275872  0.85086569  1
  O2-  O465  1  0.65639682  0.82509391  0.18459125  1
  O2-  O466  1  0.67365593  0.85860571  0.52374657  1
  O2-  O467  1  0.66393897  0.82451164  0.85445151  1
  O2-  O468  1  0.92962668  0.06461787  0.19428495  1
  O2-  O469  1  0.91475098  0.08528681  0.50604852  1
  O2-  O470  1  0.91933908  0.07783350  0.85828874  1
  O2-  O471  1  0.92337519  0.34475533  0.18903056  1
  O2-  O472  1  0.92085631  0.34138848  0.51731949  1
  O2-  O473  1  0.89809976  0.30734726  0.87849866  1
  O2-  O474  1  0.92669323  0.59833660  0.18745954  1
  O2-  O475  1  0.93914954  0.60065165  0.49944933  1
  O2-  O476  1  0.92241037  0.58633426  0.85905693  1
  O2-  O477  1  0.82426818  0.77989045  0.20265142  1
  O2-  O478  1  0.84432836  0.78573514  0.53461297  1
  O2-  O479  1  0.91137740  0.82565606  0.84240327  1
  O2-  O480  1  0.15438432  0.09180188  0.32064728  1
  O2-  O481  1  0.21046940  0.16616906  0.62565625  1
  O2-  O482  1  0.18829960  0.09187792  1.00184523  1
  O2-  O483  1  0.16763820  0.34032282  0.32114462  1
  O2-  O484  1  0.16412641  0.33125161  0.61930873  1
  O2-  O485  1  0.16023694  0.32323892  0.98053607  1
  O2-  O486  1  0.16944575  0.58519648  0.29982839  1
  O2-  O487  1  0.16885277  0.58228652  0.64032636  1
  O2-  O488  1  0.16708615  0.57868099  0.97624793  1
  O2-  O489  1  0.17383488  0.85400830  0.31393129  1
  O2-  O490  1  0.16657135  0.82353476  0.64979372  1
  O2-  O491  1  0.16896104  0.83372481  0.97742977  1
  O2-  O492  1  0.42504458  0.08534836  0.30704135  1
  O2-  O493  1  0.40556805  0.08110657  0.65435570  1
  O2-  O494  1  0.39901890  0.10583285  0.99010793  1
  O2-  O495  1  0.34257500  0.29178732  0.29125961  1
  O2-  O496  1  0.41989368  0.34069727  0.64737935  1
  O2-  O497  1  0.44402480  0.31211949  0.94664708  1
  O2-  O498  1  0.42133490  0.58111344  0.31087094  1
  O2-  O499  1  0.41661032  0.58573720  0.64484099  1
  O2-  O500  1  0.43709692  0.56748073  0.96210435  1
  O2-  O501  1  0.42147252  0.83983655  0.31579156  1
  O2-  O502  1  0.41719983  0.83798413  0.65054151  1
  O2-  O503  1  0.41370885  0.81318680  0.98127704  1
  O2-  O504  1  0.64029991  0.06256504  0.31033859  1
  O2-  O505  1  0.68337398  0.07687668  0.63819831  1
  O2-  O506  1  0.68777480  0.13580159  0.96652699  1
  O2-  O507  1  0.67606142  0.31862001  0.29782669  1
  O2-  O508  1  0.64428562  0.33879699  0.64188967  1
  O2-  O509  1  0.67235892  0.34202940  0.98923877  1
  O2-  O510  1  0.67132425  0.57497299  0.30090093  1
  O2-  O511  1  0.66298473  0.58635599  0.65731966  1
  O2-  O512  1  0.68258431  0.62582418  0.91355958  1
  O2-  O513  1  0.66562400  0.82569479  0.31014998  1
  O2-  O514  1  0.67060788  0.84008314  0.63878257  1
  O2-  O515  1  0.67113161  0.81185949  0.97402515  1
  O2-  O516  1  0.91863054  0.08606300  0.31895899  1
  O2-  O517  1  0.91431427  0.08081684  0.63034896  1
  O2-  O518  1  0.91709302  0.07551941  0.98473608  1
  O2-  O519  1  0.94212740  0.35448106  0.31092333  1
  O2-  O520  1  0.92542307  0.33437477  0.64623543  1
  O2-  O521  1  0.91256606  0.33016891  0.99358138  1
  O2-  O522  1  0.92294170  0.60208640  0.30761324  1
  O2-  O523  1  0.91050061  0.57761632  0.66583267  1
  O2-  O524  1  0.93103910  0.58764806  0.98220119  1
  O2-  O525  1  0.92430381  0.85165448  0.30932384  1
  O2-  O526  1  0.90240184  0.82552308  0.65529249  1
  O2-  O527  1  0.93190330  0.84146189  0.97265972  1
  O2-  O528  1  0.08238073  0.16879951  0.03400989  1
  O2-  O529  1  0.07722373  0.17398084  0.37381347  1
  O2-  O530  1  0.06137713  0.12505478  0.69406433  1
  O2-  O531  1  0.08350051  0.41348524  0.02189044  1
  O2-  O532  1  0.09921464  0.43003262  0.35879699  1
  O2-  O533  1  0.08961836  0.41074061  0.68049490  1
  O2-  O534  1  0.09503635  0.67185584  0.02119860  1
  O2-  O535  1  0.09005798  0.68998003  0.35738097  1
  O2-  O536  1  0.08615015  0.66080879  0.69250377  1
  O2-  O537  1  0.09474405  0.92610354  0.01635056  1
  O2-  O538  1  0.08564737  0.92687792  0.35673891  1
  O2-  O539  1  0.04489382  0.84757934  0.70853365  1
  O2-  O540  1  0.36216712  0.15897267  0.01037813  1
  O2-  O541  1  0.30469395  0.11919434  0.36095322  1
  O2-  O542  1  0.34658935  0.18545509  0.69658497  1
  O2-  O543  1  0.32048337  0.40477431  0.01908827  1
  O2-  O544  1  0.32951057  0.41494394  0.35745510  1
  O2-  O545  1  0.32556553  0.41403971  0.67482653  1
  O2-  O546  1  0.34601894  0.64409480  0.00171193  1
  O2-  O547  1  0.32736422  0.66486756  0.33878114  1
  O2-  O548  1  0.33427633  0.66902144  0.68544909  1
  O2-  O549  1  0.33651257  0.93935130  0.01746014  1
  O2-  O550  1  0.33784668  0.92300359  0.35693438  1
  O2-  O551  1  0.33182430  0.91791464  0.69549369  1
  O2-  O552  1  0.57728904  0.17371901  0.02130072  1
  O2-  O553  1  0.58207131  0.15807931  0.35232751  1
  O2-  O554  1  0.57498722  0.18488845  0.69147131  1
  O2-  O555  1  0.57338345  0.40160939  0.00947484  1
  O2-  O556  1  0.64823218  0.42308361  0.37023606  1
  O2-  O557  1  0.57768925  0.42412527  0.69007648  1
  O2-  O558  1  0.58995106  0.66707350  0.01447016  1
  O2-  O559  1  0.58577603  0.65798783  0.34867945  1
  O2-  O560  1  0.58408758  0.67287805  0.68577533  1
  O2-  O561  1  0.56608179  0.91431926  0.02150090  1
  O2-  O562  1  0.58041761  0.90339057  0.36021716  1
  O2-  O563  1  0.58361207  0.90869910  0.68451351  1
  O2-  O564  1  0.82575108  0.15274962  0.02879947  1
  O2-  O565  1  0.84765320  0.18721211  0.34202821  1
  O2-  O566  1  0.84134923  0.16179428  0.68037513  1
  O2-  O567  1  0.83602716  0.42004158  0.02813989  1
  O2-  O568  1  0.84809670  0.43216483  0.29562366  1
  O2-  O569  1  0.79252634  0.42498904  0.71870813  1
  O2-  O570  1  0.84399598  0.67072752  0.02006146  1
  O2-  O571  1  0.80040728  0.70410964  0.36159619  1
  O2-  O572  1  0.83031841  0.66060202  0.69440384  1
  O2-  O573  1  0.83120437  0.90342640  0.01690708  1
  O2-  O574  1  0.82740634  0.91771687  0.35673313  1
  O2-  O575  1  0.83146528  0.92398323  0.68568585  1
