# generated using pymatgen
data_H2O
_symmetry_space_group_name_H-M   'P 1'
_cell_length_a   17.98856326
_cell_length_b   17.98822467
_cell_length_c   21.99357273
_cell_angle_alpha   90.00096673
_cell_angle_beta   89.98441981
_cell_angle_gamma   119.99181865
_symmetry_Int_Tables_number   1
_chemical_formula_structural   H2O
_chemical_formula_sum   'H384 O192'
_cell_volume   6163.77779205
_cell_formula_units_Z   192
loop_
 _symmetry_equiv_pos_site_id
 _symmetry_equiv_pos_as_xyz
  1  'x, y, z'
loop_
 _atom_type_symbol
 _atom_type_oxidation_number
  H+  1.0
  O2-  -2.0
loop_
 _atom_site_type_symbol
 _atom_site_label
 _atom_site_symmetry_multiplicity
 _atom_site_fract_x
 _atom_site_fract_y
 _atom_site_fract_z
 _atom_site_occupancy
  H+  H0  1  0.36267078  -0.02024016  0.67217540  1
  H+  H1  1  0.68204700  0.82481020  0.59012546  1
  H+  H2  1  0.21663175  0.10826530  0.50353585  1
  H+  H3  1  0.37281699  0.76420949  0.66827354  1
  H+  H4  1  0.10361866  0.67190707  0.40349615  1
  H+  H5  1  0.86356338  0.13394733  0.83120905  1
  H+  H6  1  0.08982966  0.41151531  0.40397346  1
  H+  H7  1  0.97514062  0.61539763  0.65078767  1
  H+  H8  1  0.35299910  0.90129233  0.81649985  1
  H+  H9  1  0.86883952  0.63978418  0.82154520  1
  H+  H10  1  0.34336296  0.18241273  0.61215191  1
  H+  H11  1  0.64692436  0.35935550  0.16121837  1
  H+  H12  1  0.85155847  0.26831051  0.50359236  1
  H+  H13  1  0.00727776  0.65630254  0.15227546  1
  H+  H14  1  0.62705075  0.22482912  0.49658968  1
  H+  H15  1  1.01862734  0.13928308  0.67172028  1
  H+  H16  1  0.67594893  0.17889128  0.67232756  1
  H+  H17  1  0.38389204  1.03594305  0.32672358  1
  H+  H18  1  0.38352290  0.51080883  0.65664866  1
  H+  H19  1  0.62567682  0.85707287  0.17572356  1
  H+  H20  1  0.66594782  0.83001062  0.26634337  1
  H+  H21  1  0.22370373  0.11528854  0.83708899  1
  H+  H22  1  0.13192442  0.01282985  0.50772737  1
  H+  H23  1  0.52815859  0.63845663  0.78280089  1
  H+  H24  1  0.24582436  0.58784093  0.19077645  1
  H+  H25  1  0.10766127  0.76975214  0.15250835  1
  H+  H26  1  0.86537376  0.64067633  0.66470439  1
  H+  H27  1  1.01875179  0.38765522  0.82036220  1
  H+  H28  1  0.23910567  0.38340432  0.99131875  1
  H+  H29  1  0.41488893  0.57141012  0.24146977  1
  H+  H30  1  0.37493644  0.63598494  -0.01163544  1
  H+  H31  1  0.73014127  0.61241514  0.83786462  1
  H+  H32  1  0.10878099  0.47432346  0.82295242  1
  H+  H33  1  0.70453383  0.75570912  0.61214551  1
  H+  H34  1  0.12261198  0.47675221  0.49079278  1
  H+  H35  1  -0.01413049  0.38029093  0.65095361  1
  H+  H36  1  0.64169364  0.26993718  0.14815728  1
  H+  H37  1  0.27610751  0.37012453  0.16903823  1
  H+  H38  1  0.59790769  0.96838670  0.16640014  1
  H+  H39  1  0.37706233  0.51042113  0.33795223  1
  H+  H40  1  0.85722814  0.98315108  0.34014078  1
  H+  H41  1  0.39188629  1.03871630  0.83937206  1
  H+  H42  1  0.61770190  0.14682522  0.83826082  1
  H+  H43  1  0.11052412  0.87363321  0.49931649  1
  H+  H44  1  0.02357892  0.38350869  0.16481095  1
  H+  H45  1  0.63889053  0.52970853  0.50804203  1
  H+  H46  1  0.07235088  0.18067531  -0.02943275  1
  H+  H47  1  0.01851534  0.13218069  0.49133159  1
  H+  H48  1  0.15283011  0.36617790  0.65278924  1
  H+  H49  1  0.75470232  0.38428440  0.37879100  1
  H+  H50  1  0.21739862  0.86402782  0.16490128  1
  H+  H51  1  0.42582260  0.44386744  0.87409920  1
  H+  H52  1  0.46745610  0.11087140  1.00611073  1
  H+  H53  1  0.39471523  0.81836919  0.36000932  1
  H+  H54  1  0.63490405  0.52859087  0.65953082  1
  H+  H55  1  1.01489797  0.13775003  0.34422340  1
  H+  H56  1  0.07397520  0.90880548  0.44613114  1
  H+  H57  1  0.86439759  0.88325078  0.82275977  1
  H+  H58  1  0.10389897  0.13347876  0.67012618  1
  H+  H59  1  0.59845849  0.12423974  0.03689835  1
  H+  H60  1  0.72170517  0.84267746  0.83905275  1
  H+  H61  1  0.36086525  0.61586075  0.34205336  1
  H+  H62  1  0.62264516  -0.00088755  0.65846191  1
  H+  H63  1  0.90051809  0.29350471  0.65642703  1
  H+  H64  1  0.28489018  0.36630162  0.65932996  1
  H+  H65  1  0.40049193  0.35327330  0.19445505  1
  H+  H66  1  0.76269248  0.86521090  -0.00392784  1
  H+  H67  1  0.15476453  0.29564914  1.00619529  1
  H+  H68  1  0.97541430  0.85572242  0.98866064  1
  H+  H69  1  0.64265334  0.12154669  0.32515082  1
  H+  H70  1  0.39725428  0.59247197  0.93134979  1
  H+  H71  1  0.71723324  0.94413570  0.54821685  1
  H+  H72  1  0.13217001  0.86526988  0.83242940  1
  H+  H73  1  0.11432406  0.46999709  0.34419439  1
  H+  H74  1  0.86233912  0.63388881  0.49643410  1
  H+  H75  1  0.88920126  0.76453176  -0.01405274  1
  H+  H76  1  0.38371971  0.11344980  0.16748174  1
  H+  H77  1  0.41849970  0.80843407  0.82075804  1
  H+  H78  1  0.37968695  0.02317432  0.16898134  1
  H+  H79  1  0.63969886  0.37066439  0.99737590  1
  H+  H80  1  0.89923038  0.37594616  0.33578718  1
  H+  H81  1  0.89196247  0.36467906  0.17475522  1
  H+  H82  1  0.46581397  0.60216260  0.66611627  1
  H+  H83  1  0.76734066  0.89203086  0.33938638  1
  H+  H84  1  0.35702373  0.14857233  0.48697758  1
  H+  H85  1  0.71825563  0.11064039  -0.00172943  1
  H+  H86  1  0.64264952  0.61851559  0.16388761  1
  H+  H87  1  0.89262682  0.52497390  0.17784593  1
  H+  H88  1  0.35627048  0.88969879  0.49868924  1
  H+  H89  1  0.13016091  0.35587907  0.33030119  1
  H+  H90  1  0.42027152  0.09586352  0.43770465  1
  H+  H91  1  0.86919634  0.86233640  0.17375189  1
  H+  H92  1  0.63043766  0.88602274  0.00757258  1
  H+  H93  1  0.67146276  0.34262606  0.59980793  1
  H+  H94  1  0.37621685  0.45856983  -0.04156413  1
  H+  H95  1  0.11129700  0.88578097  0.00409737  1
  H+  H96  1  0.14840381  0.49463748  0.18933523  1
  H+  H97  1  0.35516557  0.71205135  0.17092661  1
  H+  H98  1  0.26734263  0.88957886  0.49284981  1
  H+  H99  1  0.04315298  0.64030988  0.34134059  1
  H+  H100  1  0.11951347  0.73525596  0.99966605  1
  H+  H101  1  0.69676660  0.62492215  0.99994282  1
  H+  H102  1  0.59346869  -0.05035233  0.47125954  1
  H+  H103  1  0.13426174  0.77023034  0.65712039  1
  H+  H104  1  0.22147167  0.61284219  0.50751272  1
  H+  H105  1  0.57072163  0.66269803  0.10153574  1
  H+  H106  1  0.72698714  0.61651442  0.66108988  1
  H+  H107  1  0.78799797  0.90108474  0.49368059  1
  H+  H108  1  0.64390244  0.85882761  0.84347725  1
  H+  H109  1  0.39331288  0.28740508  0.84367775  1
  H+  H110  1  0.95472149  0.08212039  0.99530280  1
  H+  H111  1  0.63577909  0.40109798  0.35017085  1
  H+  H112  1  0.37193037  0.29146995  0.51723966  1
  H+  H113  1  0.99369034  0.39057887  0.99384210  1
  H+  H114  1  0.85423070  0.86875241  0.99314109  1
  H+  H115  1  0.92661749  0.58550937  0.23770390  1
  H+  H116  1  0.60311640  0.62963935  0.33463616  1
  H+  H117  1  0.10961234  0.98237586  0.81921562  1
  H+  H118  1  0.26646616  0.38505555  0.35022149  1
  H+  H119  1  0.39064619  0.51405534  0.18161822  1
  H+  H120  1  0.38171904  0.11472339  -0.00311754  1
  H+  H121  1  0.62836420  0.52359947  0.99874535  1
  H+  H122  1  0.55393677  0.90640263  0.85746812  1
  H+  H123  1  0.90000623  0.53477587  0.98709197  1
  H+  H124  1  0.89141704  0.86256982  0.50657185  1
  H+  H125  1  0.37084344  0.77261863  0.51295404  1
  H+  H126  1  0.13837033  0.76163598  0.49373704  1
  H+  H127  1  0.46309960  0.54473291  0.86986005  1
  H+  H128  1  1.00934115  0.89154616  0.35228253  1
  H+  H129  1  0.66453322  0.29846825  0.36835555  1
  H+  H130  1  0.88892012  0.52514926  0.83364515  1
  H+  H131  1  0.31588585  0.42718660  0.75605875  1
  H+  H132  1  0.35969849  0.22610655  1.00642099  1
  H+  H133  1  0.86973645  0.23892882  0.33741413  1
  H+  H134  1  1.01931498  0.89069662  0.81856738  1
  H+  H135  1  0.12240364  0.35814138  0.83941978  1
  H+  H136  1  0.61796910  0.98483590  0.32983909  1
  H+  H137  1  0.63128094  0.77103620  0.17124379  1
  H+  H138  1  0.89998944  0.31314829  1.00228590  1
  H+  H139  1  0.60210571  0.71836955  0.33794651  1
  H+  H140  1  0.54199544  0.39464805  0.17086302  1
  H+  H141  1  0.14476434  0.65359208  0.18867847  1
  H+  H142  1  0.59094067  0.42094256  0.07138219  1
  H+  H143  1  0.63179744  0.10657133  0.16360715  1
  H+  H144  1  0.10834963  0.63423444  0.66482971  1
  H+  H145  1  0.13431398  0.01770257  0.99085559  1
  H+  H146  1  0.52916804  0.14363193  0.49028529  1
  H+  H147  1  0.04359824  0.65082448  0.48152419  1
  H+  H148  1  0.13698794  0.62133495  0.99230821  1
  H+  H149  1  0.84550171  0.09704334  0.01019324  1
  H+  H150  1  1.00965956  0.88047695  0.16006731  1
  H+  H151  1  0.32668979  0.76215529  0.79476550  1
  H+  H152  1  0.14259028  0.27360523  0.65558730  1
  H+  H153  1  0.97798954  0.85621581  0.51204936  1
  H+  H154  1  0.41884097  0.09094559  0.26514717  1
  H+  H155  1  0.51458237  0.12758547  0.13403810  1
  H+  H156  1  0.33084380  0.93233902  0.40455254  1
  H+  H157  1  0.01414783  0.89347420  0.66890065  1
  H+  H158  1  0.22489961  0.59912943  0.83916328  1
  H+  H159  1  0.03015378  0.63826414  0.82134212  1
  H+  H160  1  0.90740580  0.62579131  -0.01444965  1
  H+  H161  1  0.90703599  0.61864973  0.32942242  1
  H+  H162  1  0.59418785  0.19133780  0.74125741  1
  H+  H163  1  0.52991228  0.38786335  0.01217432  1
  H+  H164  1  0.10557431  0.22388574  0.82832741  1
  H+  H165  1  0.57633579  0.39213951  0.48144737  1
  H+  H166  1  0.52273341  0.63192330  0.16560982  1
  H+  H167  1  0.36662698  0.14627318  0.82809182  1
  H+  H168  1  0.61675900  0.24910396  0.68018905  1
  H+  H169  1  0.11913817  0.40148141  1.00960754  1
  H+  H170  1  0.86826604  0.13458183  0.67526989  1
  H+  H171  1  0.89202589  0.77409446  0.83179527  1
  H+  H172  1  0.26379930  0.64361532  0.01300480  1
  H+  H173  1  0.77984781  0.87848617  0.66761135  1
  H+  H174  1  0.77679480  0.14119558  0.82945946  1
  H+  H175  1  0.64502633  1.03950823  0.84411582  1
  H+  H176  1  0.25130312  0.40110313  0.81219603  1
  H+  H177  1  0.62036104  0.48381835  0.82421486  1
  H+  H178  1  0.48814770  0.36897014  0.84259453  1
  H+  H179  1  0.60017497  0.99404255  0.62839665  1
  H+  H180  1  0.86041549  0.97590995  0.17106339  1
  H+  H181  1  0.21176103  0.02882521  0.30134091  1
  H+  H182  1  0.22790268  0.60631642  0.33487157  1
  H+  H183  1  0.07615787  0.91298315  0.06294589  1
  H+  H184  1  0.97070620  0.10862231  0.84100153  1
  H+  H185  1  0.26856755  0.13615478  1.00254901  1
  H+  H186  1  0.64958965  0.88303357  0.49937701  1
  H+  H187  1  0.58960758  0.86360668  0.69783647  1
  H+  H188  1  0.60181404  0.62601573  0.68430806  1
  H+  H189  1  0.90029335  0.53919024  0.48474876  1
  H+  H190  1  0.22477592  0.87536605  0.83372933  1
  H+  H191  1  0.13295910  0.62648682  0.16046274  1
  H+  H192  1  0.37988830  0.16090515  0.33397046  1
  H+  H193  1  0.77277184  0.39515228  0.67246483  1
  H+  H194  1  0.52540034  0.14809811  0.83859652  1
  H+  H195  1  0.56057703  0.69592944  0.84020679  1
  H+  H196  1  0.52387877  0.90191800  0.32906031  1
  H+  H197  1  0.51038385  0.40227219  0.67365225  1
  H+  H198  1  0.11896906  0.49075729  0.00934362  1
  H+  H199  1  0.88695885  0.27461578  0.84106335  1
  H+  H200  1  0.73307356  0.61881151  0.16444885  1
  H+  H201  1  0.26525243  0.90191639  0.34779638  1
  H+  H202  1  0.56558866  0.90605043  0.10982641  1
  H+  H203  1  0.63442787  0.52603229  0.31791545  1
  H+  H204  1  0.50464480  0.64242599  1.00456215  1
  H+  H205  1  0.32695290  0.18612506  0.43477125  1
  H+  H206  1  0.87455447  0.41101205  0.00250397  1
  H+  H207  1  0.11005081  0.12502396  0.99715311  1
  H+  H208  1  0.86678473  0.73032714  0.66979037  1
  H+  H209  1  0.34720412  0.88138158  0.16163157  1
  H+  H210  1  0.86042010  0.22536905  0.16466226  1
  H+  H211  1  0.37940847  0.85680343  0.67243525  1
  H+  H212  1  0.36812407  0.62874536  0.16820307  1
  H+  H213  1  0.72065420  0.10830649  0.17146606  1
  H+  H214  1  0.11171279  -0.01153596  0.66816828  1
  H+  H215  1  0.67774960  0.96057597  0.05389666  1
  H+  H216  1  0.85700056  0.38290849  0.82478230  1
  H+  H217  1  0.14332424  0.78183256  0.33995345  1
  H+  H218  1  0.73182878  0.36141094  0.84122603  1
  H+  H219  1  0.58408419  0.62552120  0.00482414  1
  H+  H220  1  0.86660175  -0.00963393  0.98837671  1
  H+  H221  1  0.38676030  0.63659489  0.81828480  1
  H+  H222  1  0.14388313  0.61521796  0.83524809  1
  H+  H223  1  0.10900070  0.22895720  0.34528055  1
  H+  H224  1  0.62714832  0.48423305  0.16028849  1
  H+  H225  1  0.75915146  0.32290934  0.52435953  1
  H+  H226  1  0.13256955  0.85785574  0.65507130  1
  H+  H227  1  0.21023661  0.10147222  0.16858365  1
  H+  H228  1  0.76903241  0.88892220  0.16660795  1
  H+  H229  1  0.70772486  0.35409981  0.48377365  1
  H+  H230  1  0.87801953  1.02401128  0.65930185  1
  H+  H231  1  0.78026473  0.14857623  0.33583717  1
  H+  H232  1  0.75859480  0.62870989  0.50510451  1
  H+  H233  1  0.79033297  0.16883602  0.67833656  1
  H+  H234  1  0.39796400  0.36604795  0.99680757  1
  H+  H235  1  0.42212327  0.27749205  0.19183571  1
  H+  H236  1  0.31449683  0.21937836  0.14915594  1
  H+  H237  1  0.61832473  0.39365351  0.82095833  1
  H+  H238  1  0.10383026  0.12293796  0.48779374  1
  H+  H239  1  0.88987997  1.02841146  0.50483835  1
  H+  H240  1  0.59908153  0.71061769  0.68213965  1
  H+  H241  1  0.63108110  0.25816316  0.84502869  1
  H+  H242  1  0.88931370  0.12338621  0.32912421  1
  H+  H243  1  0.89384046  0.87468293  0.66129160  1
  H+  H244  1  0.77241043  0.13108099  0.48189156  1
  H+  H245  1  0.38470636  0.78303555  1.03221953  1
  H+  H246  1  0.78227898  0.40370322  0.00645770  1
  H+  H247  1  0.86113305  0.72748451  0.50308983  1
  H+  H248  1  0.22510479  0.86703761  0.98937912  1
  H+  H249  1  0.14108360  0.35758081  0.17244819  1
  H+  H250  1  0.13696309  0.26738061  0.17090065  1
  H+  H251  1  0.35039043  0.62402233  0.66813587  1
  H+  H252  1  0.63332061  0.86259619  0.32134464  1
  H+  H253  1  0.39643483  0.12071982  0.66680752  1
  H+  H254  1  0.47150261  0.61890483  0.50742415  1
  H+  H255  1  0.62153048  0.76019966  -0.00610983  1
  H+  H256  1  0.53316834  0.14917960  0.33687888  1
  H+  H257  1  0.86101570  0.18893631  0.00511565  1
  H+  H258  1  0.46896525  0.60097525  0.33166908  1
  H+  H259  1  0.36199661  0.70340411  0.33238393  1
  H+  H260  1  0.21678791  0.60889498  0.65341822  1
  H+  H261  1  0.21635198  0.11466620  0.65084197  1
  H+  H262  1  0.63408329  1.02393771  -0.00656517  1
  H+  H263  1  0.85750633  0.96849437  0.82486350  1
  H+  H264  1  0.78959867  0.60291538  0.00893841  1
  H+  H265  1  0.88398714  0.40383426  0.45525319  1
  H+  H266  1  0.36082608  0.63869883  0.50154809  1
  H+  H267  1  -0.09454915  0.52848900  0.33460862  1
  H+  H268  1  1.10104214  0.97638389  0.35537677  1
  H+  H269  1  0.84388867  0.16815982  0.74412193  1
  H+  H270  1  -0.02537516  0.11475252  0.17457627  1
  H+  H271  1  0.87953322  0.87491784  0.33022444  1
  H+  H272  1  0.87577472  0.73409527  0.34024168  1
  H+  H273  1  0.98265597  0.36599287  0.33040384  1
  H+  H274  1  0.45651082  0.85266111  0.18032835  1
  H+  H275  1  0.47276664  0.86724074  1.01774169  1
  H+  H276  1  0.35628326  0.97833991  0.00779759  1
  H+  H277  1  0.11711411  0.72859773  0.82117708  1
  H+  H278  1  0.87129794  0.63365948  0.16174054  1
  H+  H279  1  0.78018879  0.38419389  0.15659918  1
  H+  H280  1  0.11659221  0.47758595  0.66306824  1
  H+  H281  1  0.36028616  0.89223625  0.02213005  1
  H+  H282  1  0.14410157  0.40072098  0.48681242  1
  H+  H283  1  0.13367849  0.11406660  0.83760774  1
  H+  H284  1  0.63131363  0.37512886  0.65270973  1
  H+  H285  1  0.40150907  0.83109391  0.57195314  1
  H+  H286  1  0.60546168  0.63445717  0.49111327  1
  H+  H287  1  0.63102692  0.10529648  0.48887271  1
  H+  H288  1  0.27119853  0.89105688  0.67043148  1
  H+  H289  1  0.16648778  0.83906126  0.92852135  1
  H+  H290  1  0.57513196  0.42287509  0.72912391  1
  H+  H291  1  0.83950213  0.67089645  0.39569731  1
  H+  H292  1  0.66900325  0.09036368  0.26500870  1
  H+  H293  1  0.41171335  0.79486958  0.91951011  1
  H+  H294  1  0.84282624  0.65675998  0.06691285  1
  H+  H295  1  0.83068515  0.15996535  0.10755158  1
  H+  H296  1  0.65596610  0.81609082  0.93171881  1
  H+  H297  1  0.39048789  0.35952526  0.60430495  1
  H+  H298  1  0.12969080  0.87296014  0.16718940  1
  H+  H299  1  0.92188163  0.83167469  0.89205170  1
  H+  H300  1  0.40922848  0.29167593  0.29516737  1
  H+  H301  1  0.92029538  0.09055532  0.27141104  1
  H+  H302  1  0.07846041  0.92677656  0.73500087  1
  H+  H303  1  0.16494697  0.82313115  0.55672251  1
  H+  H304  1  0.10451783  0.13038208  0.15593410  1
  H+  H305  1  0.64524898  0.04854012  0.53722316  1
  H+  H306  1  0.15836854  0.07472181  0.23060535  1
  H+  H307  1  0.32241553  0.91669725  0.10194402  1
  H+  H308  1  0.91990814  0.33608436  0.23553282  1
  H+  H309  1  0.66537558  0.58185826  0.89431884  1
  H+  H310  1  0.35145839  0.37088780  0.51485572  1
  H+  H311  1  0.64249191  0.28368686  1.00223971  1
  H+  H312  1  0.91401526  0.57979767  0.55317957  1
  H+  H313  1  0.03223688  0.64428191  -0.00272743  1
  H+  H314  1  0.58699693  0.89534890  0.41525947  1
  H+  H315  1  0.92551031  0.85874734  0.27341640  1
  H+  H316  1  0.92301613  0.84249034  0.60095064  1
  H+  H317  1  0.31816365  0.63981246  0.72988626  1
  H+  H318  1  0.16404708  0.07683785  0.93025514  1
  H+  H319  1  0.37727524  0.88818922  0.33356891  1
  H+  H320  1  0.08520345  0.42160218  0.10558838  1
  H+  H321  1  0.54692179  0.39594221  0.35672332  1
  H+  H322  1  0.38213437  0.81329128  0.92104468  1
  H+  H323  1  0.07636408  0.16122775  0.09630952  1
  H+  H324  1  0.33651144  0.17564900  0.76959122  1
  H+  H325  1  0.85063721  0.78124956  0.21486819  1
  H+  H326  1  0.83233113  0.91553574  0.73074056  1
  H+  H327  1  0.08689569  0.41706602  0.72193696  1
  H+  H328  1  0.84765405  0.42825413  0.10321618  1
  H+  H329  1  0.69273738  0.12780431  0.62085775  1
  H+  H330  1  0.90717742  0.08615035  0.59974520  1
  H+  H331  1  0.23569074  0.12016418  0.32186546  1
  H+  H332  1  0.67409071  0.58851402  0.56975396  1
  H+  H333  1  0.48314763  0.11968671  0.66914786  1
  H+  H334  1  0.06549682  0.68724794  0.08771925  1
  H+  H335  1  0.88552110  0.52838851  0.65406820  1
  H+  H336  1  0.38355669  0.02940247  0.48981794  1
  H+  H337  1  0.57870238  0.90851116  0.78740351  1
  H+  H338  1  0.86297122  0.39558756  0.67175625  1
  H+  H339  1  0.09503962  0.97269986  0.15983781  1
  H+  H340  1  0.13590802  0.61913545  0.50014031  1
  H+  H341  1  0.17931203  0.56076437  0.25828435  1
  H+  H342  1  0.82418114  0.41318649  0.76615281  1
  H+  H343  1  0.08179088  0.66504809  0.72529060  1
  H+  H344  1  0.67117222  0.33558045  0.90559722  1
  H+  H345  1  0.42861812  0.33496286  0.93940203  1
  H+  H346  1  0.07546421  0.16167276  0.41233782  1
  H+  H347  1  0.34320181  0.39666861  0.11500607  1
  H+  H348  1  0.42008241  0.09328450  0.90185036  1
  H+  H349  1  0.15302344  0.07561251  0.59411660  1
  H+  H350  1  0.39607310  0.82695991  0.23835930  1
  H+  H351  1  0.57289505  0.65918344  0.43243871  1
  H+  H352  1  0.49543135  0.85068299  0.70084225  1
  H+  H353  1  0.32932336  0.66389491  0.44124827  1
  H+  H354  1  0.50237595  0.40906316  0.50294741  1
  H+  H355  1  0.16652935  0.58735971  0.93387171  1
  H+  H356  1  0.91970035  0.34189139  0.89680424  1
  H+  H357  1  0.84065811  0.17481904  0.42905950  1
  H+  H358  1  0.66997393  0.09714532  0.90386867  1
  H+  H359  1  0.58743249  0.16736337  0.39788517  1
  H+  H360  1  0.34657570  0.24709665  0.65975370  1
  H+  H361  1  0.14158455  0.61662776  0.32963180  1
  H+  H362  1  0.32657370  0.93841580  0.76322400  1
  H+  H363  1  0.12726037  0.86122757  0.34721366  1
  H+  H364  1  0.84133028  0.92155372  0.43212184  1
  H+  H365  1  0.31250313  0.54606695  0.80021338  1
  H+  H366  1  0.15776029  0.58197888  0.59265024  1
  H+  H367  1  0.83620019  0.66832795  0.76327146  1
  H+  H368  1  0.07761110  0.16504304  0.76856976  1
  H+  H369  1  0.90703031  0.07134920  0.89911325  1
  H+  H370  1  0.20946836  0.34947495  0.55333062  1
  H+  H371  1  0.32045265  0.65714797  0.07364070  1
  H+  H372  1  0.41186886  0.58552416  0.56661927  1
  H+  H373  1  0.87290060  0.72340908  0.15056221  1
  H+  H374  1  0.92473942  0.58761811  0.89107255  1
  H+  H375  1  0.16053593  0.33599897  0.89832810  1
  H+  H376  1  0.31144223  0.41594853  0.41488083  1
  H+  H377  1  0.88669578  0.33728516  0.55747157  1
  H+  H378  1  0.88690946  0.11699797  0.50353983  1
  H+  H379  1  0.66262714  0.59055053  0.26307941  1
  H+  H380  1  0.16046321  0.32262448  0.27194123  1
  H+  H381  1  0.36712266  0.49322712  0.01932512  1
  H+  H382  1  0.31891441  0.16470183  0.09470079  1
  H+  H383  1  0.88574538  0.11454705  0.17928402  1
  O2-  O384  1  0.07776681  0.16423871  0.14101722  1
  O2-  O385  1  0.07562123  0.15454927  0.47147300  1
  O2-  O386  1  0.07655645  0.16263001  0.81398965  1
  O2-  O387  1  0.08516751  0.41306661  0.15043951  1
  O2-  O388  1  0.10202494  0.41790396  0.47444063  1
  O2-  O389  1  0.07940444  0.41464776  0.80646027  1
  O2-  O390  1  0.04973055  0.70577498  0.12656522  1
  O2-  O391  1  0.10422964  0.67887151  0.47015277  1
  O2-  O392  1  0.09092873  0.66812218  0.80674169  1
  O2-  O393  1  0.06851361  0.91257798  0.14356153  1
  O2-  O394  1  0.07803503  0.90641049  0.49154363  1
  O2-  O395  1  0.07926313  0.92339162  0.80021410  1
  O2-  O396  1  0.31519472  0.16634619  0.14093022  1
  O2-  O397  1  0.32244801  0.17695309  0.47935729  1
  O2-  O398  1  0.33299615  0.17369610  0.81393815  1
  O2-  O399  1  0.33915720  0.39623057  0.15926559  1
  O2-  O400  1  0.29852914  0.40239026  0.49132219  1
  O2-  O401  1  0.30128135  0.44945969  0.79210355  1
  O2-  O402  1  0.32964380  0.65171651  0.15553069  1
  O2-  O403  1  0.32737796  0.66729238  0.48582113  1
  O2-  O404  1  0.32580941  0.60726304  0.80650601  1
  O2-  O405  1  0.32012114  0.91515835  0.14770528  1
  O2-  O406  1  0.32990174  0.92343712  0.48084570  1
  O2-  O407  1  0.32947800  0.94013222  0.80931924  1
  O2-  O408  1  0.57537355  0.15370152  0.11869982  1
  O2-  O409  1  0.59026149  0.16650468  0.47828675  1
  O2-  O410  1  0.58886025  0.18107812  0.82581185  1
  O2-  O411  1  0.59587888  0.42229601  0.14695778  1
  O2-  O412  1  0.56200067  0.43726592  0.48619630  1
  O2-  O413  1  0.58699321  0.42226646  0.80738601  1
  O2-  O414  1  0.58062321  0.66512284  0.14636886  1
  O2-  O415  1  0.57485568  0.66366634  0.47767731  1
  O2-  O416  1  0.51000783  0.64430817  0.82409929  1
  O2-  O417  1  0.56365197  0.90636141  0.15464480  1
  O2-  O418  1  0.58465396  0.89278841  0.46044840  1
  O2-  O419  1  0.60262452  0.93305860  0.82965373  1
  O2-  O420  1  0.82866176  0.16323958  0.15242438  1
  O2-  O421  1  0.83501500  0.16875265  0.47464653  1
  O2-  O422  1  0.83699671  0.16756251  0.81358448  1
  O2-  O423  1  0.84405583  0.42079390  0.14789815  1
  O2-  O424  1  0.90036558  0.45864751  0.43425996  1
  O2-  O425  1  0.82226585  0.40995414  0.81208382  1
  O2-  O426  1  0.84279563  0.66191138  0.13911954  1
  O2-  O427  1  0.82777132  0.66570110  0.48783363  1
  O2-  O428  1  0.83839139  0.67085124  0.80856553  1
  O2-  O429  1  0.83097431  0.91588140  0.15591401  1
  O2-  O430  1  0.84734646  0.92277278  0.47762048  1
  O2-  O431  1  0.83001328  0.90941850  0.80762105  1
  O2-  O432  1  0.15093395  0.07469281  0.18555498  1
  O2-  O433  1  0.15686672  0.07482660  0.52006332  1
  O2-  O434  1  0.16283628  0.08154682  0.85099668  1
  O2-  O435  1  0.17071116  0.32694326  0.18749863  1
  O2-  O436  1  0.20845682  0.34701246  0.50844426  1
  O2-  O437  1  0.15313667  0.32767072  0.85387847  1
  O2-  O438  1  0.19589334  0.54100043  0.21536197  1
  O2-  O439  1  0.15935520  0.58253340  0.51941971  1
  O2-  O440  1  0.16605882  0.57941949  0.85431380  1
  O2-  O441  1  0.15460618  0.83506719  0.17704149  1
  O2-  O442  1  0.16394653  0.82713850  0.51199161  1
  O2-  O443  1  0.16430257  0.83807092  0.84847735  1
  O2-  O444  1  0.41650434  0.08545736  0.17958619  1
  O2-  O445  1  0.41708355  0.09372613  0.48204240  1
  O2-  O446  1  0.42518409  0.09887412  0.85650642  1
  O2-  O447  1  0.43756797  0.33183702  0.21168696  1
  O2-  O448  1  0.39422278  0.35019937  0.53316140  1
  O2-  O449  1  0.43132125  0.34285340  0.86378693  1
  O2-  O450  1  0.41740358  0.57437754  0.19533301  1
  O2-  O451  1  0.41145866  0.59393607  0.52239943  1
  O2-  O452  1  0.43427862  0.49437620  0.89721248  1
  O2-  O453  1  0.39511199  0.82035239  0.19370754  1
  O2-  O454  1  0.39522558  0.83288980  0.52756886  1
  O2-  O455  1  0.37597526  0.81897617  0.80159058  1
  O2-  O456  1  0.65888362  0.07729584  0.18421456  1
  O2-  O457  1  0.66003664  0.06999249  0.49575714  1
  O2-  O458  1  0.67262521  0.10088407  0.85816794  1
  O2-  O459  1  0.67704318  0.32643508  0.16718403  1
  O2-  O460  1  0.70410179  0.32458653  0.52249981  1
  O2-  O461  1  0.67004799  0.32973046  0.85945914  1
  O2-  O462  1  0.67271174  0.58788400  0.17864667  1
  O2-  O463  1  0.67984709  0.58991889  0.52384855  1
  O2-  O464  1  0.66882587  0.57806063  0.84983127  1
  O2-  O465  1  0.66095250  0.83095597  0.18758833  1
  O2-  O466  1  0.69659750  0.88807024  0.52944306  1
  O2-  O467  1  0.66205543  0.81707942  0.85498322  1
  O2-  O468  1  0.91720754  0.08560703  0.19449666  1
  O2-  O469  1  0.91566019  0.08730430  0.52297833  1
  O2-  O470  1  0.90887899  0.07794098  0.85375128  1
  O2-  O471  1  0.92025615  0.33215494  0.18992241  1
  O2-  O472  1  0.85362580  0.32150358  0.51907895  1
  O2-  O473  1  0.91367093  0.33658232  0.85183641  1
  O2-  O474  1  0.92165203  0.58610445  0.19174825  1
  O2-  O475  1  0.91291324  0.59101845  0.50888343  1
  O2-  O476  1  0.92244581  0.58645200  0.84553494  1
  O2-  O477  1  0.89527414  0.82434454  0.18862122  1
  O2-  O478  1  0.91537220  0.82830630  0.52580187  1
  O2-  O479  1  0.92256374  0.83540387  0.84649678  1
  O2-  O480  1  0.18713088  0.06626848  0.30537297  1
  O2-  O481  1  0.15413915  0.07718433  0.64054295  1
  O2-  O482  1  0.16464334  0.07880374  0.97579729  1
  O2-  O483  1  0.15721073  0.32082331  0.31692476  1
  O2-  O484  1  0.18114072  0.33294400  0.64073983  1
  O2-  O485  1  0.17522513  0.34992796  0.98435746  1
  O2-  O486  1  0.16910327  0.57971523  0.31610183  1
  O2-  O487  1  0.15603539  0.57986184  0.63920120  1
  O2-  O488  1  0.16593500  0.58823497  0.97936317  1
  O2-  O489  1  0.16724296  0.84392996  0.33041234  1
  O2-  O490  1  0.16627072  0.83140663  0.64241696  1
  O2-  O491  1  0.16443895  0.83669143  0.97397227  1
  O2-  O492  1  0.41843656  0.09599263  0.31009055  1
  O2-  O493  1  0.42322212  0.08720520  0.65465275  1
  O2-  O494  1  0.41370738  0.08580940  0.98213987  1
  O2-  O495  1  0.40699099  0.28187578  0.33975040  1
  O2-  O496  1  0.39163693  0.35584588  0.65190362  1
  O2-  O497  1  0.42476573  0.33162265  0.98533994  1
  O2-  O498  1  0.40763265  0.56913508  0.31663255  1
  O2-  O499  1  0.40661397  0.57272424  0.64905701  1
  O2-  O500  1  0.41044380  0.61084721  0.97353957  1
  O2-  O501  1  0.40674968  0.85352034  0.32354033  1
  O2-  O502  1  0.41023837  0.82652234  0.65916738  1
  O2-  O503  1  0.41844758  0.84639372  1.03896481  1
  O2-  O504  1  0.67331681  0.09125091  0.31014202  1
  O2-  O505  1  0.72299991  0.17487585  0.64944048  1
  O2-  O506  1  0.65853622  0.08572696  0.98270606  1
  O2-  O507  1  0.69113201  0.35480153  0.38876839  1
  O2-  O508  1  0.66514489  0.34609271  0.64443545  1
  O2-  O509  1  0.66948046  0.33938535  0.98097719  1
  O2-  O510  1  0.65486309  0.58725644  0.30751379  1
  O2-  O511  1  0.66705567  0.58957463  0.64477448  1
  O2-  O512  1  0.64604356  0.58071276  0.97905676  1
  O2-  O513  1  0.66598737  0.83270594  0.31178075  1
  O2-  O514  1  0.69012033  0.79774128  0.62778312  1
  O2-  O515  1  0.65588443  0.82015374  0.97725188  1
  O2-  O516  1  0.91885969  0.09042475  0.31714012  1
  O2-  O517  1  0.90518703  0.08553775  0.64577049  1
  O2-  O518  1  0.89673927  0.05597728  0.97743039  1
  O2-  O519  1  0.92253448  0.34148926  0.31450013  1
  O2-  O520  1  0.92279020  0.35155869  0.64052701  1
  O2-  O521  1  0.93260663  0.36372395  0.97699279  1
  O2-  O522  1  0.93438737  0.58607842  0.31319840  1
  O2-  O523  1  0.91461472  0.58650690  0.63514162  1
  O2-  O524  1  0.93421425  0.59346552  0.96837080  1
  O2-  O525  1  0.91559344  0.84879214  0.31740616  1
  O2-  O526  1  0.92692267  0.84606334  0.64694187  1
  O2-  O527  1  0.91712106  0.82353901  0.96962702  1
  O2-  O528  1  0.07734404  0.15559651  0.00866079  1
  O2-  O529  1  0.07582227  0.16668212  0.36117762  1
  O2-  O530  1  0.07806450  0.16646299  0.68764667  1
  O2-  O531  1  0.08690638  0.42960581  0.02481431  1
  O2-  O532  1  0.08480530  0.40912844  0.35721902  1
  O2-  O533  1  0.08777768  0.41581140  0.67681151  1
  O2-  O534  1  0.09030215  0.67549538  0.01724996  1
  O2-  O535  1  0.10420136  0.66972677  0.35485956  1
  O2-  O536  1  0.07882578  0.66589317  0.68006399  1
  O2-  O537  1  0.07915161  0.91517018  0.01765312  1
  O2-  O538  1  0.06805642  0.91744877  0.37112330  1
  O2-  O539  1  0.07820364  0.92635908  0.68616597  1
  O2-  O540  1  0.32719432  0.16522602  0.02139071  1
  O2-  O541  1  0.34644334  0.18928753  0.34799776  1
  O2-  O542  1  0.32684756  0.18429776  0.65425683  1
  O2-  O543  1  0.34830536  0.43739664  -0.00015331  1
  O2-  O544  1  0.32264829  0.42107106  0.36972659  1
  O2-  O545  1  0.34541776  0.39853295  0.67661271  1
  O2-  O546  1  0.32356934  0.67266376  0.02995959  1
  O2-  O547  1  0.33145974  0.65003527  0.35515722  1
  O2-  O548  1  0.32010067  0.65303827  0.68584689  1
  O2-  O549  1  0.32265194  0.91892615  0.02434497  1
  O2-  O550  1  0.32914548  0.93717409  0.35888054  1
  O2-  O551  1  0.32929128  0.92057730  0.68964348  1
  O2-  O552  1  0.57000980  0.15662461  0.05127185  1
  O2-  O553  1  0.59235204  0.17351612  0.35284692  1
  O2-  O554  1  0.59735267  0.18991501  0.69647329  1
  O2-  O555  1  0.59139887  0.42190295  0.02528865  1
  O2-  O556  1  0.59729714  0.41890559  0.33055769  1
  O2-  O557  1  0.57160017  0.42415360  0.68367206  1
  O2-  O558  1  0.56270184  0.66196348  0.02292931  1
  O2-  O559  1  0.57074904  0.65807393  0.35214182  1
  O2-  O560  1  0.56823650  0.65245557  0.69949993  1
  O2-  O561  1  0.62425604  0.93171986  0.03079778  1
  O2-  O562  1  0.58454139  0.92183553  0.33932193  1
  O2-  O563  1  0.54573731  0.85819403  0.72624382  1
  O2-  O564  1  0.82210274  0.13515747  0.02536123  1
  O2-  O565  1  0.84029751  0.17735206  0.35187003  1
  O2-  O566  1  0.84736134  0.17318580  0.69691962  1
  O2-  O567  1  0.84299238  0.43855242  0.01974157  1
  O2-  O568  1  0.86193785  0.43301770  0.37225278  1
  O2-  O569  1  0.83193002  0.42365394  0.68970429  1
  O2-  O570  1  0.84060101  0.65643388  0.02047470  1
  O2-  O571  1  0.86019608  0.67598270  0.35397802  1
  O2-  O572  1  0.83467412  0.66941979  0.68258973  1
  O2-  O573  1  0.82451851  0.89959553  0.00706900  1
  O2-  O574  1  0.82816164  0.92259780  0.35513606  1
  O2-  O575  1  0.83736111  0.91989840  0.68494753  1
