# generated using pymatgen
data_H2O
_symmetry_space_group_name_H-M   'P 1'
_cell_length_a   17.99845862
_cell_length_b   17.99346605
_cell_length_c   22.01233599
_cell_angle_alpha   89.99327234
_cell_angle_beta   90.00788397
_cell_angle_gamma   120.00795231
_symmetry_Int_Tables_number   1
_chemical_formula_structural   H2O
_chemical_formula_sum   'H384 O192'
_cell_volume   6173.22485537
_cell_formula_units_Z   192
loop_
 _symmetry_equiv_pos_site_id
 _symmetry_equiv_pos_as_xyz
  1  'x, y, z'
loop_
 _atom_type_symbol
 _atom_type_oxidation_number
  H+  1.0
  O2-  -2.0
loop_
 _atom_site_type_symbol
 _atom_site_label
 _atom_site_symmetry_multiplicity
 _atom_site_fract_x
 _atom_site_fract_y
 _atom_site_fract_z
 _atom_site_occupancy
  H+  H0  1  0.12250100  0.82353316  0.65303569  1
  H+  H1  1  0.10470172  0.88337796  1.00767329  1
  H+  H2  1  0.76807763  0.63382623  0.71379867  1
  H+  H3  1  0.36516172  0.47986909  0.81978353  1
  H+  H4  1  0.61117691  0.63917197  0.00097455  1
  H+  H5  1  0.88672351  0.01038206  0.99383552  1
  H+  H6  1  0.21636512  0.17468325  0.63634798  1
  H+  H7  1  0.11412553  0.15110442  0.81944254  1
  H+  H8  1  0.13417747  0.61111276  0.67134379  1
  H+  H9  1  -0.05756323  0.59208894  0.00219599  1
  H+  H10  1  0.61428974  0.89359331  0.16232561  1
  H+  H11  1  0.72111267  0.86093195  0.66311029  1
  H+  H12  1  0.63408077  0.48096817  0.19145066  1
  H+  H13  1  0.42796745  0.57965653  0.26477713  1
  H+  H14  1  0.51807753  0.39062175  0.81864258  1
  H+  H15  1  0.52938784  0.38679669  0.49312741  1
  H+  H16  1  0.35610073  0.13190985  0.01237647  1
  H+  H17  1  0.58430526  0.16628996  0.08794651  1
  H+  H18  1  0.62852178  0.61481691  0.83454621  1
  H+  H19  1  0.39293496  0.36178795  0.99385258  1
  H+  H20  1  0.37678361  0.39586040  0.49643141  1
  H+  H21  1  0.86389740  0.22210648  0.14401972  1
  H+  H22  1  0.39577555  0.36421330  0.32306277  1
  H+  H23  1  0.20745827  0.86820421  0.32786821  1
  H+  H24  1  0.12265963  0.45671614  0.14495898  1
  H+  H25  1  0.90126707  0.61312270  0.20070587  1
  H+  H26  1  0.31588392  0.13386996  0.65155102  1
  H+  H27  1  0.48510810  0.36546283  0.32043352  1
  H+  H28  1  0.03285023  0.13262351  0.34567464  1
  H+  H29  1  0.08919180  0.13652958  0.67252428  1
  H+  H30  1  0.61815159  0.48290426  0.34248714  1
  H+  H31  1  0.63341532  0.60273168  0.51206768  1
  H+  H32  1  -0.02340371  0.11877631  0.84423065  1
  H+  H33  1  0.16112044  0.10121158  0.54870405  1
  H+  H34  1  0.66651295  0.04756474  0.48353622  1
  H+  H35  1  0.88007581  0.77398437  0.16808184  1
  H+  H36  1  0.22285609  0.86566995  0.18341592  1
  H+  H37  1  0.37357497  0.61310692  0.50263954  1
  H+  H38  1  0.38255480  0.02523291  0.50224594  1
  H+  H39  1  0.66429394  0.13836644  -0.01920914  1
  H+  H40  1  0.46971374  0.11437842  0.50280710  1
  H+  H41  1  0.58165506  0.92200363  0.55422191  1
  H+  H42  1  0.11189120  0.98240954  0.34177879  1
  H+  H43  1  0.60640843  0.14637058  0.69025120  1
  H+  H44  1  0.80321037  0.39879644  0.34302958  1
  H+  H45  1  0.60845025  0.63595177  0.67419061  1
  H+  H46  1  0.82895446  0.92252239  0.73367117  1
  H+  H47  1  0.96772526  0.85439589  0.98948481  1
  H+  H48  1  0.14314659  0.11107998  0.32926899  1
  H+  H49  1  0.65793971  0.39241576  0.99617570  1
  H+  H50  1  0.36988216  0.72348630  0.15771416  1
  H+  H51  1  0.14118967  0.35510523  0.50198718  1
  H+  H52  1  0.88935683  0.27374242  0.83913860  1
  H+  H53  1  0.11778631  0.77654359  -0.00709623  1
  H+  H54  1  0.38016914  0.51795398  0.50285144  1
  H+  H55  1  0.38198483  0.76948103  1.00870246  1
  H+  H56  1  0.58725478  0.53329630  0.18449434  1
  H+  H57  1  0.12241338  0.77422229  0.17541886  1
  H+  H58  1  0.35107611  0.15815820  0.76099392  1
  H+  H59  1  0.62428549  0.52202619  0.98622622  1
  H+  H60  1  0.37542866  0.10514777  0.33364464  1
  H+  H61  1  0.81569221  0.42785165  0.76355898  1
  H+  H62  1  0.79107518  0.72293494  0.45245888  1
  H+  H63  1  0.88546874  0.98820000  0.50788049  1
  H+  H64  1  0.05454238  0.94033607  0.67767336  1
  H+  H65  1  0.10249107  0.12025787  1.01308802  1
  H+  H66  1  0.23300846  0.36780283  -0.01816448  1
  H+  H67  1  0.11090171  0.67549918  0.13768641  1
  H+  H68  1  0.86365637  0.47556670  0.67419735  1
  H+  H69  1  0.45283032  0.09185783  0.11704634  1
  H+  H70  1  0.89348382  0.77730431  0.51247803  1
  H+  H71  1  0.85528983  0.22713496  0.67072077  1
  H+  H72  1  0.87190321  0.14687922  0.82835405  1
  H+  H73  1  0.90884276  0.61951861  0.33334247  1
  H+  H74  1  0.77394724  0.13757758  0.15369908  1
  H+  H75  1  0.02385287  0.64445727  0.83074732  1
  H+  H76  1  0.53229922  0.16302907  0.83797580  1
  H+  H77  1  0.90282592  0.58409596  0.89768408  1
  H+  H78  1  0.35597628  0.62167524  0.66237969  1
  H+  H79  1  0.77530857  0.38703202  0.49401719  1
  H+  H80  1  0.36725162  0.47160446  0.16037169  1
  H+  H81  1  0.44914637  0.83811173  0.51786412  1
  H+  H82  1  0.88274866  0.62267715  0.83794262  1
  H+  H83  1  0.18279168  0.67112786  0.21242463  1
  H+  H84  1  0.14125902  0.58323336  0.99385533  1
  H+  H85  1  0.72532639  0.87078520  0.16765015  1
  H+  H86  1  0.90741312  0.82559372  0.89097350  1
  H+  H87  1  0.89305645  0.49069380  0.15536903  1
  H+  H88  1  0.63900092  0.28414597  0.66102872  1
  H+  H89  1  0.56237226  0.07635121  1.06172931  1
  H+  H90  1  0.39333919  0.27997211  0.50422872  1
  H+  H91  1  0.13972959  0.87290188  0.84113657  1
  H+  H92  1  0.11385934  0.70664507  0.67685514  1
  H+  H93  1  0.14255441  0.49681372  -0.01045786  1
  H+  H94  1  0.66428382  0.30832507  0.33729196  1
  H+  H95  1  0.39055819  0.27232292  -0.00041239  1
  H+  H96  1  0.37060160  0.25838298  0.16926885  1
  H+  H97  1  0.87765828  0.88535962  0.51057347  1
  H+  H98  1  0.10982829  0.89026603  0.16365963  1
  H+  H99  1  0.13303447  0.86727329  0.50404860  1
  H+  H100  1  0.64065479  0.27609200  0.50483214  1
  H+  H101  1  0.83611101  0.92093107  0.09733573  1
  H+  H102  1  0.99202937  0.09150287  0.51211167  1
  H+  H103  1  0.11390022  0.47030265  0.49998898  1
  H+  H104  1  0.13611516  0.35640199  0.65380236  1
  H+  H105  1  0.52928571  0.88652280  0.81595093  1
  H+  H106  1  0.62560513  0.39995824  0.67209099  1
  H+  H107  1  0.38154894  1.05829489  0.67083896  1
  H+  H108  1  0.12195354  0.21977038  0.35047249  1
  H+  H109  1  0.84385484  0.17624241  0.76701611  1
  H+  H110  1  0.61290225  0.73086276  0.82497286  1
  H+  H111  1  0.13510816  0.11025833  0.17547781  1
  H+  H112  1  0.87877525  0.76566805  -0.01482833  1
  H+  H113  1  0.42806968  0.33840423  0.56420868  1
  H+  H114  1  0.27643936  0.38230274  0.16123528  1
  H+  H115  1  0.11344893  0.21896359  0.16463905  1
  H+  H116  1  0.82571937  0.21548486  -0.01147609  1
  H+  H117  1  0.67181840  0.04549832  0.37385217  1
  H+  H118  1  0.28082169  0.62663737  0.34491586  1
  H+  H119  1  0.45398739  0.08705492  0.33602945  1
  H+  H120  1  0.28226608  0.63647367  0.16420662  1
  H+  H121  1  0.39175667  0.60678947  0.17267606  1
  H+  H122  1  0.26649483  0.13080394  1.01080575  1
  H+  H123  1  -0.02297183  0.36992334  -0.01332447  1
  H+  H124  1  0.66119743  0.39337002  0.33576946  1
  H+  H125  1  0.91678273  0.33981187  0.90090566  1
  H+  H126  1  0.33985042  -0.02415075  0.34376394  1
  H+  H127  1  0.11801688  0.37302054  0.99140682  1
  H+  H128  1  0.64641324  0.76859223  0.34321844  1
  H+  H129  1  -0.00340366  0.63607931  0.18077975  1
  H+  H130  1  0.60455334  0.72207706  0.66984609  1
  H+  H131  1  0.67037314  0.83609918  0.89708003  1
  H+  H132  1  0.11372088  0.01913528  0.49131650  1
  H+  H133  1  0.97526535  0.60170462  0.66641227  1
  H+  H134  1  0.88437453  0.60788997  0.51020369  1
  H+  H135  1  0.46516408  0.10381328  1.00840759  1
  H+  H136  1  0.34888383  0.88111854  0.01987642  1
  H+  H137  1  0.88864666  0.36590936  0.50631318  1
  H+  H138  1  0.62562786  0.65920623  0.14894138  1
  H+  H139  1  0.38286705  0.86535288  0.82226532  1
  H+  H140  1  0.88397222  0.02412050  0.17064503  1
  H+  H141  1  0.64054498  0.86370792  0.83609175  1
  H+  H142  1  0.37403994  0.13975107  0.82796538  1
  H+  H143  1  0.82364136  0.61955334  0.13976044  1
  H+  H144  1  0.63971742  0.97110062  0.29958261  1
  H+  H145  1  0.38311754  0.85807918  0.17094700  1
  H+  H146  1  0.73152812  0.10242953  0.83300189  1
  H+  H147  1  0.88440938  0.51918895  0.50634355  1
  H+  H148  1  0.24492236  0.13096127  0.83095866  1
  H+  H149  1  0.22753452  0.37539609  0.82586668  1
  H+  H150  1  0.84823435  0.88116045  0.67565461  1
  H+  H151  1  0.10550394  0.72501519  0.49331219  1
  H+  H152  1  0.34857165  0.85976732  0.67472756  1
  H+  H153  1  0.91595401  0.80079696  0.68101127  1
  H+  H154  1  0.12016187  0.62314508  0.35400379  1
  H+  H155  1  0.27364427  0.89789342  0.83160469  1
  H+  H156  1  0.22003672  0.60984402  0.51074081  1
  H+  H157  1  0.89589496  0.11368074  0.32138610  1
  H+  H158  1  0.62668194  0.37858266  0.83876713  1
  H+  H159  1  0.58359129  0.17759655  0.31412201  1
  H+  H160  1  0.79087349  0.43242817  -0.00468020  1
  H+  H161  1  0.01654740  0.37171986  0.66403109  1
  H+  H162  1  0.12434486  0.50860259  0.33939154  1
  H+  H163  1  0.78531122  0.88526472  0.50675318  1
  H+  H164  1  0.35898996  0.97059285  0.16243113  1
  H+  H165  1  0.23169279  0.60996932  0.66003282  1
  H+  H166  1  0.74517414  0.10923094  0.33177919  1
  H+  H167  1  0.38758477  0.36575964  0.82512505  1
  H+  H168  1  0.39306311  0.27951561  0.82355386  1
  H+  H169  1  0.57555603  0.90918240  0.48337794  1
  H+  H170  1  0.53361075  0.88805994  1.01429060  1
  H+  H171  1  0.27789738  0.62663385  0.00579704  1
  H+  H172  1  0.47562195  0.61654024  0.83615819  1
  H+  H173  1  -0.00371570  0.35341639  0.34868533  1
  H+  H174  1  0.64611306  0.13538439  0.17656916  1
  H+  H175  1  0.14669487  0.95623058  0.68871055  1
  H+  H176  1  0.41426783  0.27707002  0.65724219  1
  H+  H177  1  0.54615959  0.87522741  0.28946577  1
  H+  H178  1  0.22158544  0.61169365  0.83593874  1
  H+  H179  1  0.53457344  0.63583998  0.33633430  1
  H+  H180  1  0.86024707  0.88098874  1.00184947  1
  H+  H181  1  0.87809889  1.02083358  0.65599390  1
  H+  H182  1  0.38377131  0.61071806  0.83517481  1
  H+  H183  1  0.74140817  0.62230295  0.15518958  1
  H+  H184  1  0.16349234  1.07264383  0.65074517  1
  H+  H185  1  0.39159165  0.61328382  -0.01001279  1
  H+  H186  1  0.37013297  0.47760811  0.00088121  1
  H+  H187  1  0.88263881  0.11367518  0.17048877  1
  H+  H188  1  0.07386386  0.64893690  0.02477956  1
  H+  H189  1  0.15031153  0.35566015  0.33464569  1
  H+  H190  1  0.60363505  0.97112492  0.67752484  1
  H+  H191  1  0.17041346  0.57987248  0.89884800  1
  H+  H192  1  1.01754162  0.63255198  0.49564626  1
  H+  H193  1  0.39256292  0.11531458  0.15523046  1
  H+  H194  1  0.89189068  0.77556341  0.32292441  1
  H+  H195  1  0.10200536  0.13710494  0.44076127  1
  H+  H196  1  0.97198209  0.86361054  0.83635512  1
  H+  H197  1  0.62835891  0.28301690  0.83987459  1
  H+  H198  1  0.63553472  0.78488951  0.16545132  1
  H+  H199  1  0.02838662  0.37526540  0.15026409  1
  H+  H200  1  0.13190874  0.61231560  0.51184757  1
  H+  H201  1  0.10383942  0.23132815  0.66816120  1
  H+  H202  1  0.02360176  0.90151202  0.49876034  1
  H+  H203  1  0.71412053  0.60993056  0.98443048  1
  H+  H204  1  0.37576544  1.01870384  0.00143505  1
  H+  H205  1  0.35401119  0.71517496  0.49603995  1
  H+  H206  1  0.36788042  0.22733643  0.33578890  1
  H+  H207  1  0.85102472  0.13593734  0.66708549  1
  H+  H208  1  0.88566918  0.00603667  0.31974531  1
  H+  H209  1  0.87927450  0.89592206  0.32517679  1
  H+  H210  1  0.76351398  0.64446767  0.49481554  1
  H+  H211  1  0.60835006  0.48247894  0.82308659  1
  H+  H212  1  0.77325861  0.88596363  1.00271657  1
  H+  H213  1  0.63956258  0.87703798  0.30445567  1
  H+  H214  1  0.63122882  0.85822252  0.65567374  1
  H+  H215  1  -0.01242634  0.10494123  0.00167896  1
  H+  H216  1  0.83825407  0.61780007  0.00436854  1
  H+  H217  1  0.64505378  0.84512037  0.51486328  1
  H+  H218  1  0.61873113  0.14416577  0.48977931  1
  H+  H219  1  0.49249666  0.37253819  0.65934917  1
  H+  H220  1  0.16926326  0.08134912  0.23332735  1
  H+  H221  1  0.11246750  0.64223307  0.83479743  1
  H+  H222  1  0.90339991  0.39542207  0.98287136  1
  H+  H223  1  0.64391119  0.86874090  -0.00721854  1
  H+  H224  1  0.14182781  0.35102353  0.17618678  1
  H+  H225  1  0.64118739  0.77831357  0.99028213  1
  H+  H226  1  -0.02137650  0.36608393  0.51203602  1
  H+  H227  1  0.02891474  0.63127904  0.34712613  1
  H+  H228  1  0.35330274  0.71787669  0.80808878  1
  H+  H229  1  0.32532011  0.87999342  0.33814959  1
  H+  H230  1  0.10146766  0.47989068  0.83028525  1
  H+  H231  1  0.67198039  0.84852197  0.38588374  1
  H+  H232  1  0.88247824  0.24141165  0.48928618  1
  H+  H233  1  0.23167927  0.11077380  0.32775840  1
  H+  H234  1  0.54774580  0.17607323  0.17758592  1
  H+  H235  1  0.78939929  0.89586528  0.33524602  1
  H+  H236  1  0.36390138  0.84507763  0.50669514  1
  H+  H237  1  0.48118903  0.60961940  0.16864541  1
  H+  H238  1  0.90373643  0.37620302  0.15054347  1
  H+  H239  1  0.40044099  0.03687849  0.85265991  1
  H+  H240  1  0.61877277  0.71631394  0.49610471  1
  H+  H241  1  0.75858631  0.63219769  0.81647070  1
  H+  H242  1  0.88767450  1.02962833  0.84309877  1
  H+  H243  1  0.07253643  0.90976262  0.06824929  1
  H+  H244  1  0.10945990  -0.02172270  0.16084356  1
  H+  H245  1  0.12631852  0.00960001  1.00163751  1
  H+  H246  1  0.61943289  0.47398864  0.49611398  1
  H+  H247  1  0.58498273  0.19603813  0.77490218  1
  H+  H248  1  0.66772985  1.09558086  0.88329432  1
  H+  H249  1  0.02060385  0.13341494  0.16558559  1
  H+  H250  1  0.72380816  0.38629476  0.83345611  1
  H+  H251  1  0.23980164  0.35860507  0.33367697  1
  H+  H252  1  0.77363092  0.38795722  0.67193073  1
  H+  H253  1  0.60653034  0.11124096  0.34081230  1
  H+  H254  1  0.77506052  0.89238743  0.82635578  1
  H+  H255  1  0.51818027  0.38300428  1.00414687  1
  H+  H256  1  0.37135289  0.71395795  0.33741510  1
  H+  H257  1  0.39817069  0.60700291  0.32566260  1
  H+  H258  1  0.12098008  -0.00575491  0.84350809  1
  H+  H259  1  0.36214795  0.13832071  0.49053898  1
  H+  H260  1  0.12581213  0.57817726  0.18887473  1
  H+  H261  1  0.86391202  0.89194757  0.15776161  1
  H+  H262  1  0.26036787  0.88227646  1.01209439  1
  H+  H263  1  0.13791214  0.78186117  0.83854471  1
  H+  H264  1  0.26713477  0.88235126  0.49467979  1
  H+  H265  1  0.11884223  0.87031445  0.32432109  1
  H+  H266  1  0.86647921  0.45245548  0.08854690  1
  H+  H267  1  0.65348345  0.07950391  0.74496271  1
  H+  H268  1  0.01888661  0.89425256  0.34060263  1
  H+  H269  1  0.64222929  0.36559737  0.50417589  1
  H+  H270  1  0.10532877  0.45834549  0.67175205  1
  H+  H271  1  0.88503885  0.15294231  0.48738380  1
  H+  H272  1  0.84554887  0.72004492  0.80695261  1
  H+  H273  1  0.46905133  0.85253975  0.65958548  1
  H+  H274  1  0.36785404  0.38296597  0.66660945  1
  H+  H275  1  0.37432605  0.47502083  0.33800860  1
  H+  H276  1  0.91827894  0.33468575  0.20994136  1
  H+  H277  1  0.98588527  0.37158047  0.83870644  1
  H+  H278  1  0.27620101  0.37952782  0.66542403  1
  H+  H279  1  0.78801695  0.63490377  0.33358883  1
  H+  H280  1  0.52389694  0.15835530  0.68098216  1
  H+  H281  1  0.21709871  0.83566869  0.65516824  1
  H+  H282  1  0.41174224  0.32755635  0.23212927  1
  H+  H283  1  0.38469614  0.51402892  0.65055805  1
  H+  H284  1  0.27043673  0.13743325  0.16195151  1
  H+  H285  1  0.65282435  0.61887287  0.32646435  1
  H+  H286  1  0.84267693  0.66714284  0.39386568  1
  H+  H287  1  0.43302967  0.85912381  0.31736153  1
  H+  H288  1  0.17654873  0.34527506  0.92092047  1
  H+  H289  1  0.31698797  0.90612287  0.10816098  1
  H+  H290  1  0.97315587  0.86065949  0.16913910  1
  H+  H291  1  0.33785822  0.17385198  0.39813534  1
  H+  H292  1  0.32722160  0.17025152  0.09995606  1
  H+  H293  1  0.15640543  0.06694356  0.94196232  1
  H+  H294  1  0.67438249  0.09640059  0.22904469  1
  H+  H295  1  0.32019918  0.64593355  0.75773624  1
  H+  H296  1  0.92134188  0.08112227  0.93592057  1
  H+  H297  1  0.07539967  0.92979324  0.43266799  1
  H+  H298  1  0.90707895  0.33106768  0.60224242  1
  H+  H299  1  0.85375924  0.27698963  0.32425222  1
  H+  H300  1  0.59822634  0.92155684  0.06743740  1
  H+  H301  1  0.91842480  0.08319138  0.25604913  1
  H+  H302  1  0.86368964  0.89230880  0.82346747  1
  H+  H303  1  0.16179329  0.58331258  0.60152853  1
  H+  H304  1  0.14956945  0.27012845  0.50231474  1
  H+  H305  1  0.64780316  0.52903190  0.66694420  1
  H+  H306  1  0.28845618  0.83989411  0.73061762  1
  H+  H307  1  0.47250669  0.60686466  0.65283971  1
  H+  H308  1  0.58794782  0.65798231  0.39871688  1
  H+  H309  1  0.16763108  0.57610688  0.28487145  1
  H+  H310  1  0.52357516  0.64108242  0.00085142  1
  H+  H311  1  0.63472673  0.94437861  0.41729657  1
  H+  H312  1  0.91860066  0.82499512  0.57686225  1
  H+  H313  1  0.80073812  0.15467121  0.04397856  1
  H+  H314  1  0.71646022  0.11393493  0.68975181  1
  H+  H315  1  0.68984527  0.37246239  0.24156604  1
  H+  H316  1  0.42793901  0.82145202  0.25031745  1
  H+  H317  1  0.58159491  0.67125109  0.09015711  1
  H+  H318  1  0.58905242  0.93428380  0.40977003  1
  H+  H319  1  0.84587635  0.49173609  0.82221842  1
  H+  H320  1  0.63961294  0.26464005  0.17827436  1
  H+  H321  1  0.17492766  0.32532185  0.23661864  1
  H+  H322  1  0.42395009  0.84752173  0.96237455  1
  H+  H323  1  -0.01828817  0.42614461  0.36969097  1
  H+  H324  1  0.59229982  0.42736582  0.73228851  1
  H+  H325  1  0.33576557  0.65839365  0.43429258  1
  H+  H326  1  0.07020551  0.15014604  0.07169119  1
  H+  H327  1  0.86127514  0.18342442  0.39425559  1
  H+  H328  1  0.33693326  0.42262566  0.75876986  1
  H+  H329  1  0.13683843  0.28780301  0.82956131  1
  H+  H330  1  0.15588054  0.84037665  0.25206693  1
  H+  H331  1  0.57836287  0.90324788  0.72744819  1
  H+  H332  1  0.91913984  0.83224131  0.26174314  1
  H+  H333  1  0.37685735  0.35948328  0.17013140  1
  H+  H334  1  0.15792107  0.82544795  0.55917769  1
  H+  H335  1  0.58296607  0.42915987  0.06016924  1
  H+  H336  1  0.60866687  0.98073724  0.15992453  1
  H+  H337  1  0.16160880  0.83588662  0.93398043  1
  H+  H338  1  0.40938229  0.58010456  0.56683730  1
  H+  H339  1  0.67803449  0.82002186  0.57134363  1
  H+  H340  1  0.57778713  0.66992791  0.76564004  1
  H+  H341  1  0.27638081  0.14666063  0.48651583  1
  H+  H342  1  0.42273317  0.09510702  0.91125188  1
  H+  H343  1  0.84139666  0.41862631  0.43664604  1
  H+  H344  1  0.34753194  0.41927249  0.39923248  1
  H+  H345  1  0.68743881  0.36251230  0.93812863  1
  H+  H346  1  0.41912872  0.58386320  0.92919439  1
  H+  H347  1  0.66975592  0.33954577  0.59920903  1
  H+  H348  1  0.09448449  0.95004104  0.78052826  1
  H+  H349  1  0.65778782  0.58368458  0.89343022  1
  H+  H350  1  0.57726278  0.34636414  0.15510313  1
  H+  H351  1  0.58433043  0.41829180  0.39944876  1
  H+  H352  1  0.17035275  0.32538867  0.59746786  1
  H+  H353  1  0.67137689  0.58163497  0.57131120  1
  H+  H354  1  0.07226397  0.41203898  0.44131846  1
  H+  H355  1  0.82721167  0.74026978  0.65263875  1
  H+  H356  1  0.33779185  0.94970129  0.77722805  1
  H+  H357  1  0.67177206  0.57574026  0.26934129  1
  H+  H358  1  0.80999137  0.66166841  0.05583931  1
  H+  H359  1  0.40100019  0.81859655  0.60326175  1
  H+  H360  1  0.89204933  0.48320581  0.34552150  1
  H+  H361  1  0.94624047  0.59047882  0.27655796  1
  H+  H362  1  0.33559646  0.65766506  0.06622624  1
  H+  H363  1  0.88181543  0.36218073  0.66367142  1
  H+  H364  1  0.52524089  0.63351966  0.49296883  1
  H+  H365  1  0.62053111  0.97433217  0.82201153  1
  H+  H366  1  0.20998553  0.16541548  0.88153087  1
  H+  H367  1  0.04690163  0.69175904  0.07445024  1
  H+  H368  1  0.08515824  0.39502333  0.05374003  1
  H+  H369  1  0.35860046  0.71347037  0.66630287  1
  H+  H370  1  0.40963580  0.81781011  0.86918637  1
  H+  H371  1  0.58049885  0.16751027  0.43339581  1
  H+  H372  1  0.47681740  0.86449569  0.16555990  1
  H+  H373  1  0.91944039  0.57985425  0.60678899  1
  H+  H374  1  0.96336763  0.11436240  0.65678055  1
  H+  H375  1  0.33628055  0.41657565  0.05915522  1
  H+  H376  1  0.08785581  0.65626025  0.74222849  1
  H+  H377  1  0.08717872  0.65935608  0.41365082  1
  H+  H378  1  0.10673605  0.39373272  0.82491519  1
  H+  H379  1  0.92382871  0.07548837  0.56738515  1
  H+  H380  1  0.32319136  0.90892567  0.43551593  1
  H+  H381  1  0.07119002  0.17456382  0.76501963  1
  H+  H382  1  0.28423880  0.38969894  0.49265474  1
  H+  H383  1  0.74894528  0.13559633  0.49345904  1
  O2-  O384  1  0.08057872  0.15831682  0.15011950  1
  O2-  O385  1  0.10055063  0.13328939  0.48714656  1
  O2-  O386  1  0.07751690  0.17611660  0.81006868  1
  O2-  O387  1  0.08984785  0.39510609  0.13778009  1
  O2-  O388  1  0.08553638  0.41032156  0.48491527  1
  O2-  O389  1  0.06933516  0.41914887  0.81659320  1
  O2-  O390  1  0.07441759  0.69973629  0.14689210  1
  O2-  O391  1  0.07960895  0.66292185  0.48168951  1
  O2-  O392  1  0.08457201  0.67304156  0.81567879  1
  O2-  O393  1  0.07773487  0.91705732  0.14640425  1
  O2-  O394  1  0.08089645  0.93932961  0.47891924  1
  O2-  O395  1  0.09238942  0.93712834  0.82418164  1
  O2-  O396  1  0.33108473  0.17251564  0.14623980  1
  O2-  O397  1  0.33730980  0.17542408  0.47545484  1
  O2-  O398  1  0.34151474  0.16255763  0.80475336  1
  O2-  O399  1  0.33694723  0.41072722  0.14556060  1
  O2-  O400  1  0.34589696  0.42624506  0.48054881  1
  O2-  O401  1  0.33236370  0.41984608  0.80378867  1
  O2-  O402  1  0.33975932  0.66126566  0.14600215  1
  O2-  O403  1  0.32994072  0.65426542  0.47992667  1
  O2-  O404  1  0.32243156  0.65458372  0.80244562  1
  O2-  O405  1  0.32316907  0.90785628  0.15379444  1
  O2-  O406  1  0.32747384  0.90684609  0.48063380  1
  O2-  O407  1  0.33592771  0.92845422  0.81850754  1
  O2-  O408  1  0.60861605  0.20266497  0.16554279  1
  O2-  O409  1  0.58378350  0.17087463  0.47804286  1
  O2-  O410  1  0.58966461  0.20159855  0.81999124  1
  O2-  O411  1  0.60138343  0.37612917  0.19381859  1
  O2-  O412  1  0.58949326  0.41597886  0.47702331  1
  O2-  O413  1  0.58233867  0.42210683  0.80716714  1
  O2-  O414  1  0.58147632  0.67234392  0.13671872  1
  O2-  O415  1  0.58485813  0.65705911  0.47884980  1
  O2-  O416  1  0.57869581  0.66963873  0.81080856  1
  O2-  O417  1  0.57880391  0.91964880  0.14760722  1
  O2-  O418  1  0.56135943  0.87794841  0.52243205  1
  O2-  O419  1  0.58992238  0.91325532  0.80372674  1
  O2-  O420  1  0.83262377  0.15927020  0.13749106  1
  O2-  O421  1  0.85759386  0.18285659  0.46876797  1
  O2-  O422  1  0.84473417  0.17936621  0.81230262  1
  O2-  O423  1  0.86815897  0.43725129  0.13153529  1
  O2-  O424  1  0.83789822  0.41914587  0.48199503  1
  O2-  O425  1  0.80452594  0.43330715  0.80754133  1
  O2-  O426  1  0.80007278  0.65797868  0.13808962  1
  O2-  O427  1  0.81521645  0.69078209  0.47183995  1
  O2-  O428  1  0.81478171  0.65917568  0.79402229  1
  O2-  O429  1  0.83582842  0.92403857  0.14280641  1
  O2-  O430  1  0.84822293  0.91731205  0.49452893  1
  O2-  O431  1  0.83538614  0.92532015  0.81007243  1
  O2-  O432  1  0.16863122  0.08169189  0.18791606  1
  O2-  O433  1  0.15201485  0.09286889  0.50250065  1
  O2-  O434  1  0.18988461  0.11740761  0.85306187  1
  O2-  O435  1  0.17541439  0.32431457  0.19150907  1
  O2-  O436  1  0.17720869  0.33018304  0.51588063  1
  O2-  O437  1  0.16769392  0.34886451  0.84239304  1
  O2-  O438  1  0.17986293  0.61538518  0.20992383  1
  O2-  O439  1  0.16160085  0.58216151  0.52877171  1
  O2-  O440  1  0.16356297  0.58786085  0.85482285  1
  O2-  O441  1  0.16160756  0.83896270  0.19790657  1
  O2-  O442  1  0.15759983  0.83050028  0.51398554  1
  O2-  O443  1  0.17066698  0.84243118  0.85389864  1
  O2-  O444  1  0.42767826  0.08688355  0.15775097  1
  O2-  O445  1  0.40786276  0.08649551  0.51269605  1
  O2-  O446  1  0.42635360  0.09731062  0.86579481  1
  O2-  O447  1  0.40333368  0.32321927  0.18590492  1
  O2-  O448  1  0.42442997  0.34087113  0.51888448  1
  O2-  O449  1  0.42315784  0.33993241  0.83664694  1
  O2-  O450  1  0.42252610  0.57679420  0.18705318  1
  O2-  O451  1  0.40710095  0.58100822  0.51905490  1
  O2-  O452  1  0.41498682  0.58237674  0.85132001  1
  O2-  O453  1  0.41599510  0.82839859  0.18184169  1
  O2-  O454  1  0.38644898  0.80843433  0.52543453  1
  O2-  O455  1  0.40918667  0.82779382  0.82577643  1
  O2-  O456  1  0.66667716  0.09375372  0.18517927  1
  O2-  O457  1  0.68676889  0.10250248  0.50365382  1
  O2-  O458  1  0.66946975  0.06945815  0.84224794  1
  O2-  O459  1  0.68080859  0.37001278  0.19648604  1
  O2-  O460  1  0.67381279  0.33670184  0.51963879  1
  O2-  O461  1  0.66138518  0.35098310  0.85488927  1
  O2-  O462  1  0.64408844  0.54144663  0.19300618  1
  O2-  O463  1  0.67008013  0.57895790  0.52590070  1
  O2-  O464  1  0.65905871  0.58386998  0.84787510  1
  O2-  O465  1  0.66548003  0.84314596  0.18317051  1
  O2-  O466  1  0.68224971  0.82096702  0.52510703  1
  O2-  O467  1  0.67137536  0.83398877  0.85149087  1
  O2-  O468  1  0.91291889  0.08385475  0.18859178  1
  O2-  O469  1  0.93017778  0.06893314  0.52133813  1
  O2-  O470  1  0.91738390  0.08829248  0.86154092  1
  O2-  O471  1  0.92692113  0.33784384  0.16609426  1
  O2-  O472  1  0.91627042  0.33292896  0.52189224  1
  O2-  O473  1  0.92009704  0.33600147  0.85427011  1
  O2-  O474  1  0.94058878  0.59083272  0.20344369  1
  O2-  O475  1  0.91807927  0.58100191  0.52095077  1
  O2-  O476  1  0.91569360  0.59601253  0.85391706  1
  O2-  O477  1  0.91293989  0.83203466  0.18572051  1
  O2-  O478  1  0.92753389  0.83523493  0.53197232  1
  O2-  O479  1  0.91007795  0.83049223  0.84563779  1
  O2-  O480  1  0.17048717  0.07864613  0.31312159  1
  O2-  O481  1  0.19496695  0.11738398  0.61916674  1
  O2-  O482  1  0.15926393  0.07108103  0.98634848  1
  O2-  O483  1  0.17782912  0.32396214  0.32027629  1
  O2-  O484  1  0.16855107  0.32494021  0.64258301  1
  O2-  O485  1  0.17343849  0.33975318  0.96593843  1
  O2-  O486  1  0.16592712  0.56979055  0.32986239  1
  O2-  O487  1  0.16680926  0.58237400  0.64801032  1
  O2-  O488  1  0.17590723  0.56081735  0.97668998  1
  O2-  O489  1  0.14895485  0.83994667  0.30781172  1
  O2-  O490  1  0.15793436  0.80206576  0.63548457  1
  O2-  O491  1  0.15900177  0.83605235  0.97931351  1
  O2-  O492  1  0.39486693  0.06384914  0.32137375  1
  O2-  O493  1  0.41467217  0.11752734  0.65537719  1
  O2-  O494  1  0.40840605  0.08001083  0.98816741  1
  O2-  O495  1  0.42475915  0.33448475  0.30458259  1
  O2-  O496  1  0.43241575  0.33601465  0.64341299  1
  O2-  O497  1  0.42613155  0.33224479  0.98558859  1
  O2-  O498  1  0.43082374  0.57965558  0.31047543  1
  O2-  O499  1  0.41259267  0.57545487  0.63491995  1
  O2-  O500  1  0.42219175  0.58374656  0.97474441  1
  O2-  O501  1  0.44584220  0.81995730  0.29503454  1
  O2-  O502  1  0.40634843  0.81791030  0.64850641  1
  O2-  O503  1  0.41039912  0.83406172  1.00514820  1
  O2-  O504  1  0.68157963  0.06695412  0.33191052  1
  O2-  O505  1  0.65359886  0.08178141  0.70017013  1
  O2-  O506  1  0.69649409  0.16108439  0.94312133  1
  O2-  O507  1  0.69688990  0.36704038  0.32222035  1
  O2-  O508  1  0.67029701  0.34395413  0.64447693  1
  O2-  O509  1  0.70041548  0.37650794  0.98154304  1
  O2-  O510  1  0.68211772  0.58673379  0.31370230  1
  O2-  O511  1  0.67295731  0.59186610  0.65139053  1
  O2-  O512  1  0.65322882  0.58259993  0.97058411  1
  O2-  O513  1  0.67825146  0.83457142  0.34387381  1
  O2-  O514  1  0.66289604  0.82773362  0.64377510  1
  O2-  O515  1  0.67414069  0.83866342  0.97533831  1
  O2-  O516  1  0.92181786  0.07997859  0.30375828  1
  O2-  O517  1  0.90635527  0.07905952  0.63651751  1
  O2-  O518  1  0.92270913  0.07357394  0.98155067  1
  O2-  O519  1  0.89623933  0.25778196  0.31959309  1
  O2-  O520  1  0.90905037  0.32897820  0.64732411  1
  O2-  O521  1  0.91868705  0.35198242  0.97066550  1
  O2-  O522  1  0.94411618  0.59198961  0.32267191  1
  O2-  O523  1  0.91614949  0.57689131  0.65148034  1
  O2-  O524  1  0.88567596  0.55558994  0.98208494  1
  O2-  O525  1  0.91995522  0.83576557  0.30754947  1
  O2-  O526  1  0.87711584  0.80134895  0.65022585  1
  O2-  O527  1  0.90914571  0.82645810  0.97112115  1
  O2-  O528  1  0.06667502  0.14504921  0.02646246  1
  O2-  O529  1  0.09047505  0.15855779  0.36417459  1
  O2-  O530  1  0.06457906  0.17130661  0.68578799  1
  O2-  O531  1  0.08479201  0.40182283  0.00921091  1
  O2-  O532  1  0.02781409  0.41199509  0.36636152  1
  O2-  O533  1  0.07934067  0.39603365  0.67108544  1
  O2-  O534  1  0.04214934  0.67946460  0.02897877  1
  O2-  O535  1  0.09131973  0.65712265  0.36658205  1
  O2-  O536  1  0.08995845  0.64911283  0.69635305  1
  O2-  O537  1  0.07078391  0.90998617  0.02274994  1
  O2-  O538  1  0.07724123  0.92257151  0.35986607  1
  O2-  O539  1  0.10954377  0.98039285  0.69656521  1
  O2-  O540  1  0.32616683  0.16290358  0.02700697  1
  O2-  O541  1  0.33454636  0.16824684  0.35266961  1
  O2-  O542  1  0.36680646  0.15887405  0.67854512  1
  O2-  O543  1  0.33814274  0.41636431  0.01434677  1
  O2-  O544  1  0.34349614  0.41477803  0.35408155  1
  O2-  O545  1  0.33786363  0.41497925  0.67778361  1
  O2-  O546  1  0.33771286  0.66393796  0.02112462  1
  O2-  O547  1  0.34204143  0.65724343  0.35773720  1
  O2-  O548  1  0.32391849  0.65058880  0.67723552  1
  O2-  O549  1  0.31855842  0.91283246  0.03128603  1
  O2-  O550  1  0.30196889  0.91174244  0.35870544  1
  O2-  O551  1  0.30591348  0.87416175  0.69343571  1
  O2-  O552  1  0.54705379  0.12108976  0.05851112  1
  O2-  O553  1  0.57361465  0.14065089  0.34921828  1
  O2-  O554  1  0.58365193  0.18640339  0.69629191  1
  O2-  O555  1  0.58274159  0.42255352  0.01631004  1
  O2-  O556  1  0.58849613  0.42084605  0.35383705  1
  O2-  O557  1  0.59590104  0.43174745  0.68638315  1
  O2-  O558  1  0.58364835  0.67173618  0.01762727  1
  O2-  O559  1  0.59437691  0.66672652  0.35376558  1
  O2-  O560  1  0.57169592  0.66121059  0.68414509  1
  O2-  O561  1  0.59538824  0.91679924  0.02252454  1
  O2-  O562  1  0.61209468  0.90959901  0.28440961  1
  O2-  O563  1  0.57489846  0.90726685  0.68173249  1
  O2-  O564  1  0.80862998  0.15637583  -0.00017458  1
  O2-  O565  1  0.85240129  0.17153180  0.34832862  1
  O2-  O566  1  0.82587748  0.16700308  0.68776547  1
  O2-  O567  1  0.85807740  0.46858682  0.00713565  1
  O2-  O568  1  0.86263364  0.42241361  0.35914710  1
  O2-  O569  1  0.83252273  0.41468283  0.68985706  1
  O2-  O570  1  0.81742729  0.65904488  0.01148301  1
  O2-  O571  1  0.84873917  0.66615356  0.34924947  1
  O2-  O572  1  0.76507557  0.63579711  0.66822492  1
  O2-  O573  1  0.83448331  0.91495819  0.01829537  1
  O2-  O574  1  0.85297643  0.93176436  0.33881266  1
  O2-  O575  1  0.82528380  0.91888959  0.68774001  1
