# generated using pymatgen
data_H2O
_symmetry_space_group_name_H-M   'P 1'
_cell_length_a   17.98620379
_cell_length_b   17.99457782
_cell_length_c   21.99564113
_cell_angle_alpha   89.98616123
_cell_angle_beta   89.99804236
_cell_angle_gamma   119.99686580
_symmetry_Int_Tables_number   1
_chemical_formula_structural   H2O
_chemical_formula_sum   'H384 O192'
_cell_volume   6165.41229420
_cell_formula_units_Z   192
loop_
 _symmetry_equiv_pos_site_id
 _symmetry_equiv_pos_as_xyz
  1  'x, y, z'
loop_
 _atom_type_symbol
 _atom_type_oxidation_number
  H+  1.0
  O2-  -2.0
loop_
 _atom_site_type_symbol
 _atom_site_label
 _atom_site_symmetry_multiplicity
 _atom_site_fract_x
 _atom_site_fract_y
 _atom_site_fract_z
 _atom_site_occupancy
  H+  H0  1  0.11335766  0.13211437  0.67893774  1
  H+  H1  1  0.60786387  0.46706429  0.82371728  1
  H+  H2  1  0.76613031  0.12815438  0.84560522  1
  H+  H3  1  0.14361626  0.89836206  0.69205808  1
  H+  H4  1  0.10042097  0.20833521  0.35289161  1
  H+  H5  1  0.77068219  0.39891652  0.83969652  1
  H+  H6  1  1.01951335  0.94580887  0.67985123  1
  H+  H7  1  0.49240925  0.36288701  0.64954278  1
  H+  H8  1  0.58111221  0.21494406  0.70312527  1
  H+  H9  1  0.71945441  0.60392768  0.31920933  1
  H+  H10  1  0.11070001  0.22318664  0.49986705  1
  H+  H11  1  0.96707111  0.85537211  0.84402973  1
  H+  H12  1  0.53164285  0.63816673  0.15609731  1
  H+  H13  1  0.11891386  0.46641063  0.33901771  1
  H+  H14  1  0.86621572  0.69106785  0.65965059  1
  H+  H15  1  0.66935989  0.10068148  0.60177456  1
  H+  H16  1  0.38014402  0.58684776  0.64609668  1
  H+  H17  1  0.63018260  0.60153281  0.32600103  1
  H+  H18  1  0.61318378  1.01583763  0.32202030  1
  H+  H19  1  0.18642120  0.89390827  0.13979886  1
  H+  H20  1  0.30083924  0.90967543  0.81818408  1
  H+  H21  1  0.40061711  0.62778688  0.16948736  1
  H+  H22  1  0.24385269  0.35769899  0.83908056  1
  H+  H23  1  0.49576381  0.13459180  0.86065543  1
  H+  H24  1  0.65324501  0.08387075  0.25803796  1
  H+  H25  1  0.50719759  0.12216998  0.69006326  1
  H+  H26  1  0.27232804  0.39436541  0.33009406  1
  H+  H27  1  0.36076835  0.39044630  0.33560338  1
  H+  H28  1  0.64158249  0.28790030  0.16608856  1
  H+  H29  1  0.63659764  0.60061049  0.65953773  1
  H+  H30  1  0.64943329  0.11857561  0.84903544  1
  H+  H31  1  0.59455247  0.70475476  0.67638796  1
  H+  H32  1  0.63081492  0.59475406  0.50365925  1
  H+  H33  1  -0.03455288  0.10513805  0.32783809  1
  H+  H34  1  0.23777754  0.61719892  0.17602164  1
  H+  H35  1  0.70361637  0.86507126  0.17128909  1
  H+  H36  1  0.38339180  0.49700489  0.15381918  1
  H+  H37  1  1.02803112  0.38168274  0.48967622  1
  H+  H38  1  0.00123703  0.91666216  0.70721340  1
  H+  H39  1  0.85787494  0.22220577  0.16739657  1
  H+  H40  1  0.35475556  1.00354917  0.32083058  1
  H+  H41  1  0.38822050  0.38792143  1.01137013  1
  H+  H42  1  0.55114727  0.62967885  0.98377243  1
  H+  H43  1  0.60793954  0.69506840  0.48287829  1
  H+  H44  1  0.66392958  0.34417005  0.90557297  1
  H+  H45  1  0.86694897  0.14136511  0.34344876  1
  H+  H46  1  0.90500566  0.37026669  0.32621497  1
  H+  H47  1  0.66781688  0.28472846  0.64025909  1
  H+  H48  1  0.79119320  0.87136369  0.48562103  1
  H+  H49  1  0.39666931  0.13488840  0.51080758  1
  H+  H50  1  0.38481170  0.28020901  0.32247885  1
  H+  H51  1  0.36833516  0.72139419  0.85068537  1
  H+  H52  1  0.29904648  0.86898068  0.75578431  1
  H+  H53  1  0.39471033  0.27195082  0.65482513  1
  H+  H54  1  0.90247551  0.53564700  0.52111724  1
  H+  H55  1  0.41031209  0.04715684  0.85676124  1
  H+  H56  1  0.85534466  0.34238791  0.95901864  1
  H+  H57  1  0.11146554  0.96472617  0.84640490  1
  H+  H58  1  0.12026436  0.72363076  0.15480375  1
  H+  H59  1  0.63095494  0.23961459  0.33044512  1
  H+  H60  1  0.26437981  0.62520733  0.33945748  1
  H+  H61  1  0.04236253  0.22608961  0.15400361  1
  H+  H62  1  0.63546029  0.85685234  0.84230035  1
  H+  H63  1  0.65075909  0.45203767  -0.01390105  1
  H+  H64  1  0.37973178  0.84445965  0.84363740  1
  H+  H65  1  -0.02576944  0.10785716  0.83883010  1
  H+  H66  1  0.22051177  0.85053942  0.51917962  1
  H+  H67  1  0.50975709  0.89307447  0.49105571  1
  H+  H68  1  0.87679390  0.14488952  0.01762467  1
  H+  H69  1  0.37489697  0.38518050  0.82423020  1
  H+  H70  1  0.88626391  0.90438308  0.65022922  1
  H+  H71  1  0.36897749  0.15227106  0.16253121  1
  H+  H72  1  0.47717172  0.36014724  0.49830826  1
  H+  H73  1  0.30435122  0.70143348  0.75029325  1
  H+  H74  1  0.35608640  0.66390827  0.72323003  1
  H+  H75  1  0.40726999  0.16167881  0.30817880  1
  H+  H76  1  0.36826577  0.14485296  0.67755368  1
  H+  H77  1  0.74317622  0.86242808  0.83965889  1
  H+  H78  1  0.97865340  0.36207946  0.66008406  1
  H+  H79  1  0.93463387  0.57118486  0.62019943  1
  H+  H80  1  0.79429539  0.40843673  0.49480899  1
  H+  H81  1  0.27527589  0.13879951  0.49265513  1
  H+  H82  1  0.10318251  0.09466627  0.51991838  1
  H+  H83  1  0.11617462  0.89159991  0.32051549  1
  H+  H84  1  0.61293194  0.47345675  0.33518271  1
  H+  H85  1  0.92230511  0.83538742  0.23270348  1
  H+  H86  1  0.16453339  0.32962681  0.16592038  1
  H+  H87  1  0.84691955  0.61775643  0.46476709  1
  H+  H88  1  0.74407802  0.37284550  0.66354406  1
  H+  H89  1  0.39619880  0.37892011  0.17225598  1
  H+  H90  1  0.61359456  0.38415424  0.33190449  1
  H+  H91  1  0.16437377  0.58074825  0.25873487  1
  H+  H92  1  0.38149267  0.85351928  1.00734670  1
  H+  H93  1  0.48100416  0.36276051  0.83557802  1
  H+  H94  1  0.07473076  0.15617081  0.44395348  1
  H+  H95  1  0.76301183  0.62058221  0.48218408  1
  H+  H96  1  0.63473338  0.11755348  0.66474381  1
  H+  H97  1  0.87106443  0.50640576  0.83894143  1
  H+  H98  1  0.11922717  0.64112111  0.48062257  1
  H+  H99  1  0.75541301  0.91080602  0.69330150  1
  H+  H100  1  0.88497994  0.61840135  0.83264842  1
  H+  H101  1  0.77051582  0.61061252  0.66851907  1
  H+  H102  1  0.86363495  0.23746722  0.48829744  1
  H+  H103  1  0.53339914  0.40734628  0.16271435  1
  H+  H104  1  0.21248301  0.86925582  0.25347551  1
  H+  H105  1  0.15644871  0.35769598  0.85000006  1
  H+  H106  1  0.58752075  0.66266227  0.09458905  1
  H+  H107  1  0.82671894  0.42291267  0.09198918  1
  H+  H108  1  0.06600872  0.90979320  -0.00769580  1
  H+  H109  1  0.12315257  0.64621755  0.66791204  1
  H+  H110  1  0.37069802  0.47296245  0.82635580  1
  H+  H111  1  0.71389468  0.81832626  0.61245987  1
  H+  H112  1  0.11845368  0.57339292  1.00823528  1
  H+  H113  1  0.62589552  0.72198310  1.00184235  1
  H+  H114  1  0.36632394  0.23310407  0.82865295  1
  H+  H115  1  0.14699342  0.79285076  0.30007550  1
  H+  H116  1  0.41002388  0.82165784  0.26332303  1
  H+  H117  1  0.51638601  0.62854678  0.33501198  1
  H+  H118  1  0.99952651  0.86508338  0.49759832  1
  H+  H119  1  0.98196386  0.12171901  0.99570155  1
  H+  H120  1  0.14987161  0.59788019  0.84753545  1
  H+  H121  1  0.62554435  0.11022190  1.00462875  1
  H+  H122  1  0.14005215  0.35984451  0.50653218  1
  H+  H123  1  0.84663486  0.86678880  0.63705541  1
  H+  H124  1  0.40836810  0.06330862  0.12579104  1
  H+  H125  1  0.41889657  0.06104355  0.51116285  1
  H+  H126  1  0.36565702  0.70832070  0.49023698  1
  H+  H127  1  0.28952978  0.41614269  0.15620312  1
  H+  H128  1  0.89146924  0.59317933  0.67486314  1
  H+  H129  1  0.96941356  0.36102040  0.15955348  1
  H+  H130  1  0.02246293  0.88337927  0.32939745  1
  H+  H131  1  0.96520451  0.10135572  0.51816186  1
  H+  H132  1  0.60361174  0.71604227  0.35199610  1
  H+  H133  1  0.35981242  0.46421652  0.66892308  1
  H+  H134  1  0.51324157  0.88142947  0.33259196  1
  H+  H135  1  0.86537338  0.21773849  0.86067672  1
  H+  H136  1  0.86956557  0.73304700  0.15241841  1
  H+  H137  1  0.53356728  0.14824919  0.16330261  1
  H+  H138  1  0.63004177  0.59654850  0.84149031  1
  H+  H139  1  0.16171980  0.29873240  0.29009595  1
  H+  H140  1  0.26273899  0.37290877  0.67393442  1
  H+  H141  1  0.52214446  0.15155295  0.01766486  1
  H+  H142  1  0.87263468  0.46997178  0.68836900  1
  H+  H143  1  0.88915384  0.12315722  0.66932992  1
  H+  H144  1  0.64102327  0.52087974  0.15905645  1
  H+  H145  1  0.83307333  0.16616225  0.10748160  1
  H+  H146  1  0.86374573  0.37803471  0.68743790  1
  H+  H147  1  0.77115682  0.14471653  0.67813073  1
  H+  H148  1  0.10150354  0.73451504  0.66239169  1
  H+  H149  1  0.13803704  0.51706454  0.50064047  1
  H+  H150  1  0.89385746  0.62165848  0.16165281  1
  H+  H151  1  0.12562510  0.38189998  0.32904470  1
  H+  H152  1  0.02811680  0.63115048  0.68532928  1
  H+  H153  1  0.94891095  0.82336367  0.65337202  1
  H+  H154  1  0.38591099  0.59704901  0.50471223  1
  H+  H155  1  0.47853355  0.86953604  0.65315992  1
  H+  H156  1  0.38558858  0.51981218  0.32096353  1
  H+  H157  1  0.26931371  0.88127359  0.65493112  1
  H+  H158  1  0.10205038  0.12198589  0.34200361  1
  H+  H159  1  0.64431672  0.14012364  0.50343704  1
  H+  H160  1  0.74041186  0.62223147  0.15380823  1
  H+  H161  1  0.85590653  0.97157944  0.34008238  1
  H+  H162  1  0.87169976  0.96626219  0.49948811  1
  H+  H163  1  0.14850797  0.05065214  0.99885992  1
  H+  H164  1  0.73051234  0.37733729  0.16316342  1
  H+  H165  1  0.13835825  0.10674429  0.84344007  1
  H+  H166  1  0.84105504  1.00057108  0.70155018  1
  H+  H167  1  0.19087105  0.38220352  0.22914265  1
  H+  H168  1  0.93120619  0.78253716  0.99467955  1
  H+  H169  1  0.38961873  0.75573238  0.31980856  1
  H+  H170  1  0.38245913  0.60642061  0.32059736  1
  H+  H171  1  0.37525653  0.01875226  0.66240603  1
  H+  H172  1  0.86097810  0.39313810  0.14933779  1
  H+  H173  1  0.62883071  0.23593651  0.84354133  1
  H+  H174  1  0.25732155  0.84641863  0.33936833  1
  H+  H175  1  0.37350903  0.83483922  0.49915600  1
  H+  H176  1  0.84698721  0.96176131  0.15817584  1
  H+  H177  1  0.08662879  0.54759560  0.30552214  1
  H+  H178  1  0.11234300  0.21435434  0.83056149  1
  H+  H179  1  0.63042187  0.86289472  0.35645382  1
  H+  H180  1  0.14909224  0.10169427  0.14502058  1
  H+  H181  1  0.83930653  0.83080621  0.02020001  1
  H+  H182  1  0.12700174  0.81121071  0.99657130  1
  H+  H183  1  0.84946181  0.87139192  0.83040396  1
  H+  H184  1  0.34502490  0.18832392  0.07271872  1
  H+  H185  1  0.64577615  0.02572168  0.84531858  1
  H+  H186  1  0.09993580  0.44244937  1.04205441  1
  H+  H187  1  0.66313731  0.81916108  0.44259706  1
  H+  H188  1  0.12922809  0.66470163  0.33186290  1
  H+  H189  1  0.62013428  0.11504910  0.32310692  1
  H+  H190  1  0.60713300  0.91774587  0.48522758  1
  H+  H191  1  0.65948548  0.29809439  0.49816801  1
  H+  H192  1  0.35837553  0.88341098  0.66102391  1
  H+  H193  1  0.57922444  0.40987879  0.42517334  1
  H+  H194  1  1.11176664  0.21986816  0.67515762  1
  H+  H195  1  0.47445405  0.59311369  0.50309091  1
  H+  H196  1  0.28780532  0.63114321  0.86680209  1
  H+  H197  1  -0.00791746  0.63383367  0.31619589  1
  H+  H198  1  0.03220963  0.67796414  0.84414200  1
  H+  H199  1  0.86518209  0.12840216  0.84063658  1
  H+  H200  1  0.38881555  0.78359874  0.66157599  1
  H+  H201  1  -0.04765562  0.29393270  0.93548806  1
  H+  H202  1  0.01279181  0.94388491  0.02570197  1
  H+  H203  1  0.33638547  0.92557212  0.47115400  1
  H+  H204  1  0.64301689  0.86096767  0.99113477  1
  H+  H205  1  0.10861934  0.83261511  0.84803434  1
  H+  H206  1  0.52682862  0.88365636  0.83434848  1
  H+  H207  1  0.86727354  0.64366595  0.32704562  1
  H+  H208  1  0.35945640  0.46291651  0.48831095  1
  H+  H209  1  0.05602705  0.46513565  0.82253234  1
  H+  H210  1  0.14604007  0.36256480  0.66149830  1
  H+  H211  1  0.89742819  0.37225378  0.50732572  1
  H+  H212  1  0.23713673  0.12772303  0.66460787  1
  H+  H213  1  0.38636665  0.36045587  0.50020549  1
  H+  H214  1  -0.01476110  0.86605759  0.17506028  1
  H+  H215  1  0.22933670  0.62655855  0.66044055  1
  H+  H216  1  0.62086647  0.77684746  0.16609740  1
  H+  H217  1  0.63140267  1.04634803  0.50353538  1
  H+  H218  1  0.88371429  0.52494809  0.97346540  1
  H+  H219  1  0.15063603  0.87943414  0.51119954  1
  H+  H220  1  0.83967661  0.20930702  0.01046945  1
  H+  H221  1  0.63186221  0.76267795  0.83974633  1
  H+  H222  1  0.53498702  0.16781144  0.32766384  1
  H+  H223  1  0.27469110  0.62140178  0.49078604  1
  H+  H224  1  0.04421322  0.79102916  0.63298232  1
  H+  H225  1  0.45681876  0.87284679  0.17375865  1
  H+  H226  1  0.34256895  0.62230368  0.00803531  1
  H+  H227  1  0.34936828  0.97268964  0.02323995  1
  H+  H228  1  0.37485226  0.24644134  0.16618986  1
  H+  H229  1  0.88359769  0.77215008  0.32037128  1
  H+  H230  1  0.52292678  0.63265922  0.83522026  1
  H+  H231  1  0.72500794  0.11645025  0.17832282  1
  H+  H232  1  0.42341130  0.32998464  0.58706283  1
  H+  H233  1  0.28592587  0.15815749  1.01251675  1
  H+  H234  1  0.47713753  0.36593981  0.32484322  1
  H+  H235  1  0.26665633  0.13701364  0.33367825  1
  H+  H236  1  0.61674464  0.38229696  0.66455234  1
  H+  H237  1  0.51202926  0.61376580  0.67279756  1
  H+  H238  1  0.76964480  0.14986975  0.48535097  1
  H+  H239  1  0.26905612  0.87896790  0.00823128  1
  H+  H240  1  0.97180275  0.11068679  0.67250724  1
  H+  H241  1  0.14653447  0.53526641  0.66143084  1
  H+  H242  1  0.38311171  0.11653275  1.01025295  1
  H+  H243  1  0.08256470  0.64354387  0.06758797  1
  H+  H244  1  0.33589194  0.82691560  0.34213809  1
  H+  H245  1  0.16321627  -0.00606854  0.69827030  1
  H+  H246  1  0.58010108  0.40583968  0.76375291  1
  H+  H247  1  0.14589710  0.61040171  0.17238170  1
  H+  H248  1  0.54172407  0.17334946  0.48792618  1
  H+  H249  1  0.12597379  0.15340065  1.00843456  1
  H+  H250  1  -0.00897306  0.36427221  0.32465051  1
  H+  H251  1  0.61224576  0.46914514  0.66538591  1
  H+  H252  1  0.64617730  0.62144588  0.15877098  1
  H+  H253  1  0.39662037  0.00512071  0.32714238  1
  H+  H254  1  0.94645022  0.09043100  0.16795398  1
  H+  H255  1  0.89120285  0.53158151  0.16301387  1
  H+  H256  1  0.72024279  0.86167663  0.35786312  1
  H+  H257  1  0.89046483  0.27423245  0.66386247  1
  H+  H258  1  0.59448247  0.19115954  0.42520803  1
  H+  H259  1  0.26225922  0.36351666  0.99851087  1
  H+  H260  1  0.44827312  0.60620160  1.02369711  1
  H+  H261  1  0.36797081  0.75959592  -0.00163860  1
  H+  H262  1  0.61434055  0.38664319  0.48549332  1
  H+  H263  1  0.40777791  0.28221286  0.99408979  1
  H+  H264  1  0.12978805  0.01771250  0.31855296  1
  H+  H265  1  0.22769246  0.35656496  0.50482840  1
  H+  H266  1  0.88017353  0.50662542  0.33825932  1
  H+  H267  1  0.33233112  0.41061034  0.73724695  1
  H+  H268  1  0.74157572  0.37038142  0.31164617  1
  H+  H269  1  0.59067917  -0.02239888  0.16306272  1
  H+  H270  1  0.63751851  0.36315617  0.83938752  1
  H+  H271  1  0.23053750  0.11360014  0.84301195  1
  H+  H272  1  0.11828102  0.97372316  0.47941991  1
  H+  H273  1  0.63987545  0.12553086  0.17485827  1
  H+  H274  1  0.88492494  0.86225677  0.32349103  1
  H+  H275  1  0.25030273  0.61283896  1.01120300  1
  H+  H276  1  0.02700937  0.63896464  0.15916257  1
  H+  H277  1  0.12013931  0.41499444  0.14840934  1
  H+  H278  1  0.39019000  0.60486682  0.85224227  1
  H+  H279  1  0.61475360  0.89547894  0.65895536  1
  H+  H280  1  -0.00688735  0.36479655  0.81920009  1
  H+  H281  1  0.09597663  0.18677714  0.18184782  1
  H+  H282  1  0.86065382  0.87978814  0.16399585  1
  H+  H283  1  0.74276344  0.61261090  0.98307600  1
  H+  H284  1  0.87647018  0.23723876  0.34016775  1
  H+  H285  1  0.62075480  0.40299566  0.15796223  1
  H+  H286  1  0.92866883  0.59540703  0.25760785  1
  H+  H287  1  0.11879568  0.69047364  0.00484308  1
  H+  H288  1  0.86689002  0.71738437  0.81762755  1
  H+  H289  1  0.66374068  0.57226178  0.59714369  1
  H+  H290  1  0.38531230  0.51093944  1.00337972  1
  H+  H291  1  0.32720558  0.64980195  0.39626426  1
  H+  H292  1  0.09261260  0.18822729  0.06481650  1
  H+  H293  1  0.66570998  0.08902647  0.94871017  1
  H+  H294  1  0.16747069  0.58069131  0.55781804  1
  H+  H295  1  0.36152729  0.86225762  0.18749952  1
  H+  H296  1  0.89936572  0.61859144  0.54455426  1
  H+  H297  1  0.24060696  0.12587339  0.16936451  1
  H+  H298  1  0.82897974  0.17528979  0.73843839  1
  H+  H299  1  0.08803435  0.42320070  0.73782732  1
  H+  H300  1  0.91670990  0.08514761  0.94154954  1
  H+  H301  1  0.08078863  0.15828382  0.76988153  1
  H+  H302  1  0.56828055  0.63236471  0.42730888  1
  H+  H303  1  0.84129256  0.65267667  0.75992399  1
  H+  H304  1  0.79395152  0.46380845  0.37362739  1
  H+  H305  1  0.09397393  0.68933574  0.38930544  1
  H+  H306  1  0.61458709  0.98194457  0.66868150  1
  H+  H307  1  0.91058129  0.86612418  0.50630832  1
  H+  H308  1  0.92021534  0.33245014  0.56425109  1
  H+  H309  1  0.86442625  0.10210999  0.17363844  1
  H+  H310  1  0.36131783  0.23028489  0.49233435  1
  H+  H311  1  0.19899298  0.33237955  0.93371209  1
  H+  H312  1  0.82627078  0.66487175  0.38476775  1
  H+  H313  1  0.15686631  0.27520156  -0.00197367  1
  H+  H314  1  0.41545177  0.08570225  0.95395514  1
  H+  H315  1  0.88290573  1.01986509  0.84556045  1
  H+  H316  1  0.50173824  0.36203967  0.98525318  1
  H+  H317  1  0.33204531  0.66963790  0.10130193  1
  H+  H318  1  0.58839351  0.16607845  0.78946394  1
  H+  H319  1  0.35040180  0.41681799  0.07110592  1
  H+  H320  1  0.18613603  0.46774321  0.72338831  1
  H+  H321  1  0.60814296  0.24467699  0.01125685  1
  H+  H322  1  0.29499375  0.84369422  0.42820764  1
  H+  H323  1  0.65205191  0.82654347  0.51625481  1
  H+  H324  1  0.56442548  0.92812626  0.39383906  1
  H+  H325  1  0.42336322  0.34792015  0.23283238  1
  H+  H326  1  0.84637442  0.91742598  0.40025033  1
  H+  H327  1  0.05551095  0.57246940  0.86060493  1
  H+  H328  1  0.42633646  0.33924467  0.89766718  1
  H+  H329  1  0.43683434  0.12663171  0.25284476  1
  H+  H330  1  0.76342870  0.85938050  0.01317314  1
  H+  H331  1  0.03880959  0.65183369  0.48988415  1
  H+  H332  1  0.86293762  0.44600096  0.44107807  1
  H+  H333  1  0.83678738  0.17945500  0.41343364  1
  H+  H334  1  0.58280127  0.91239840  0.77344206  1
  H+  H335  1  0.18081712  0.10322444  0.93702161  1
  H+  H336  1  0.92152359  0.34110692  0.22378386  1
  H+  H337  1  0.36275320  0.73418405  0.15876122  1
  H+  H338  1  0.81184949  0.91893822  0.77864815  1
  H+  H339  1  0.37055106  0.14744810  0.83021450  1
  H+  H340  1  0.74980628  0.91309719  0.59341922  1
  H+  H341  1  0.41452007  0.82088601  0.55944619  1
  H+  H342  1  0.58853794  0.18059755  0.10152674  1
  H+  H343  1  0.61030911  0.96557330  -0.00592417  1
  H+  H344  1  0.15832153  0.08275908  0.26212238  1
  H+  H345  1  0.82455315  0.88675416  0.07985648  1
  H+  H346  1  0.42046360  0.57117577  0.90800184  1
  H+  H347  1  0.57675570  0.65802394  0.77318441  1
  H+  H348  1  0.67817504  0.34229013  0.25417526  1
  H+  H349  1  0.41403935  0.55824684  0.58894961  1
  H+  H350  1  0.63326808  0.50874790  0.50405638  1
  H+  H351  1  0.68806163  0.35715243  0.55823199  1
  H+  H352  1  0.10290064  0.91796588  0.78488744  1
  H+  H353  1  0.26740942  0.89207853  0.09978335  1
  H+  H354  1  0.94243328  0.80173595  0.58360832  1
  H+  H355  1  0.90766526  0.06669949  0.57734634  1
  H+  H356  1  0.41842180  0.09060215  0.60981953  1
  H+  H357  1  0.13636758  0.82342658  0.59700518  1
  H+  H358  1  0.58406872  0.88707176  0.15962596  1
  H+  H359  1  0.32835725  0.16866545  0.39193720  1
  H+  H360  1  0.42607979  0.59121491  0.22787585  1
  H+  H361  1  0.83971324  0.68288238  0.08715363  1
  H+  H362  1  0.15602926  0.80086569  0.93086489  1
  H+  H363  1  0.05917957  0.00224466  0.54923046  1
  H+  H364  1  0.13295386  0.53002023  0.95122154  1
  H+  H365  1  0.41335370  0.83079618  0.90842011  1
  H+  H366  1  0.64586346  0.58497735  0.98927432  1
  H+  H367  1  0.89482157  0.80578349  0.89518313  1
  H+  H368  1  0.09670012  0.92173470  0.10028988  1
  H+  H369  1  0.09767123  0.91662804  0.41854174  1
  H+  H370  1  0.34455296  0.18380612  0.73489596  1
  H+  H371  1  0.32719764  0.40653777  0.42734023  1
  H+  H372  1  0.68036867  0.82747517  0.93949690  1
  H+  H373  1  0.17473808  0.80044718  0.83305907  1
  H+  H374  1  0.17197997  0.33153140  0.59935218  1
  H+  H375  1  0.83282854  0.42299292  0.77942910  1
  H+  H376  1  0.74018823  0.38831151  1.00027638  1
  H+  H377  1  0.08839417  0.40678094  0.43028226  1
  H+  H378  1  0.66519273  0.56201634  0.89496027  1
  H+  H379  1  0.14162843  0.97959294  0.15774479  1
  H+  H380  1  0.90321365  0.07780427  0.26909954  1
  H+  H381  1  0.52716082  0.87252558  0.99400803  1
  H+  H382  1  0.16440706  0.07868175  0.61280787  1
  H+  H383  1  0.35303249  0.00571524  0.18058206  1
  O2-  O384  1  0.08245480  0.20607525  0.14403104  1
  O2-  O385  1  0.07557990  0.16100829  0.48888715  1
  O2-  O386  1  0.07818882  0.15468019  0.81566026  1
  O2-  O387  1  0.07088659  0.41491743  0.12694451  1
  O2-  O388  1  0.08893947  0.41034681  0.47590273  1
  O2-  O389  1  0.02983558  0.41463031  0.79422975  1
  O2-  O390  1  0.08832451  0.66256506  0.14525400  1
  O2-  O391  1  0.09254006  0.67469519  0.46679793  1
  O2-  O392  1  -0.00045404  0.61724354  0.82918721  1
  O2-  O393  1  0.11494110  0.91924264  0.14230057  1
  O2-  O394  1  0.09980761  0.91548052  0.46409671  1
  O2-  O395  1  0.07941677  0.90669434  0.82786320  1
  O2-  O396  1  0.34098977  0.18548207  0.14991281  1
  O2-  O397  1  0.33443150  0.16889006  0.47787204  1
  O2-  O398  1  0.33749772  0.17274998  0.81235614  1
  O2-  O399  1  0.34946386  0.43497419  0.14072364  1
  O2-  O400  1  0.32904599  0.40242289  0.47337567  1
  O2-  O401  1  0.34170797  0.41394322  0.80793991  1
  O2-  O402  1  0.34094706  0.67325752  0.14610076  1
  O2-  O403  1  0.33572223  0.64744539  0.47620201  1
  O2-  O404  1  0.33538830  0.65888647  0.83812726  1
  O2-  O405  1  0.28553935  0.90599767  0.19303010  1
  O2-  O406  1  0.30678989  0.86326848  0.47413399  1
  O2-  O407  1  0.29136174  0.85592622  0.80036804  1
  O2-  O408  1  0.59260538  0.17944589  0.14793696  1
  O2-  O409  1  0.60023900  0.19714093  0.47079569  1
  O2-  O410  1  0.59747364  0.17189617  0.83399873  1
  O2-  O411  1  0.59299901  0.43720593  0.14608789  1
  O2-  O412  1  0.57625141  0.40860591  0.47131781  1
  O2-  O413  1  0.57791289  0.40425303  0.80855817  1
  O2-  O414  1  0.59189149  0.66687774  0.13952516  1
  O2-  O415  1  0.57085786  0.63283523  0.47360920  1
  O2-  O416  1  0.58229214  0.66648598  0.81790727  1
  O2-  O417  1  0.55288621  0.91829212  0.14941446  1
  O2-  O418  1  0.56798350  0.93823845  0.47428602  1
  O2-  O419  1  0.58697856  0.91226018  0.81831598  1
  O2-  O420  1  0.82600337  0.16081435  0.15387861  1
  O2-  O421  1  0.82969061  0.17896532  0.46879435  1
  O2-  O422  1  0.83485510  0.16429600  0.83345358  1
  O2-  O423  1  0.83233072  0.42599470  0.13738241  1
  O2-  O424  1  0.85785608  0.43914574  0.48604270  1
  O2-  O425  1  0.83272303  0.43243764  0.82437784  1
  O2-  O426  1  0.83996364  0.67494955  0.13390660  1
  O2-  O427  1  0.82063715  0.65350580  0.46232886  1
  O2-  O428  1  0.84687974  0.65757517  0.80512459  1
  O2-  O429  1  0.82470142  0.90133238  0.14418459  1
  O2-  O430  1  0.85296825  0.91023085  0.47728081  1
  O2-  O431  1  0.81562253  0.90218995  0.82418584  1
  O2-  O432  1  0.17677722  0.08571759  0.17643985  1
  O2-  O433  1  0.11569746  0.05020115  0.53788720  1
  O2-  O434  1  0.17263064  0.08332347  0.86258293  1
  O2-  O435  1  0.19306131  0.38867287  0.18102097  1
  O2-  O436  1  0.16939107  0.32970905  0.52435107  1
  O2-  O437  1  0.18574743  0.32578224  0.85972636  1
  O2-  O438  1  0.17766029  0.58478611  0.19150911  1
  O2-  O439  1  0.17017832  0.57887625  0.51304999  1
  O2-  O440  1  0.09853740  0.55303097  0.86736288  1
  O2-  O441  1  0.22826040  0.86983168  0.13823094  1
  O2-  O442  1  0.18290719  0.86632681  0.54227432  1
  O2-  O443  1  0.12400323  0.78734132  0.85810919  1
  O2-  O444  1  0.39651886  0.06834073  0.16842875  1
  O2-  O445  1  0.43698699  0.11715668  0.52903041  1
  O2-  O446  1  0.43283651  0.10561384  0.87145064  1
  O2-  O447  1  0.42573511  0.34781550  0.18707300  1
  O2-  O448  1  0.41772235  0.33121650  0.51732912  1
  O2-  O449  1  0.42021104  0.33681810  0.85227657  1
  O2-  O450  1  0.43081437  0.59617003  0.18233951  1
  O2-  O451  1  0.41450669  0.56498271  0.52104868  1
  O2-  O452  1  0.42033689  0.57245042  0.86287788  1
  O2-  O453  1  0.39659116  0.83386652  0.19083723  1
  O2-  O454  1  0.41584914  0.81732368  0.51431701  1
  O2-  O455  1  0.41808280  0.82660262  0.86285480  1
  O2-  O456  1  0.66417764  0.09143921  0.19389889  1
  O2-  O457  1  0.66938260  0.10524692  0.51957172  1
  O2-  O458  1  0.68033389  0.08617024  0.85972153  1
  O2-  O459  1  0.67084460  0.34848157  0.18078553  1
  O2-  O460  1  0.68931973  0.35907637  0.51313529  1
  O2-  O461  1  0.67133624  0.33938733  0.85944685  1
  O2-  O462  1  0.67871186  0.59047397  0.16972621  1
  O2-  O463  1  0.66438177  0.56857626  0.52076917  1
  O2-  O464  1  0.65245797  0.55794890  0.85023822  1
  O2-  O465  1  0.64209030  0.83616978  0.18029591  1
  O2-  O466  1  0.67523936  0.80509960  0.48520049  1
  O2-  O467  1  0.66594524  0.82495861  0.85535954  1
  O2-  O468  1  0.89031165  0.06517320  0.18758070  1
  O2-  O469  1  0.90674605  0.05988098  0.53268070  1
  O2-  O470  1  0.91348822  0.08190734  0.85457621  1
  O2-  O471  1  0.91151247  0.33346362  0.17948080  1
  O2-  O472  1  0.92086053  0.33414813  0.51904431  1
  O2-  O473  1  0.91504046  0.29988923  0.90536880  1
  O2-  O474  1  0.92319255  0.59172520  0.17915792  1
  O2-  O475  1  0.93496113  0.59169798  0.54376816  1
  O2-  O476  1  0.91282577  0.58276180  0.85643251  1
  O2-  O477  1  0.92436637  0.83839061  0.18655073  1
  O2-  O478  1  0.95091962  0.85047114  0.52583319  1
  O2-  O479  1  0.90354689  0.82292529  0.85198567  1
  O2-  O480  1  0.15718060  0.08057390  0.30700497  1
  O2-  O481  1  0.17463381  0.08915623  0.65722919  1
  O2-  O482  1  0.18172161  0.10979303  0.98283335  1
  O2-  O483  1  0.18391496  0.35992808  0.29499111  1
  O2-  O484  1  0.17352841  0.33015769  0.64572510  1
  O2-  O485  1  0.20013889  0.33518354  0.97973795  1
  O2-  O486  1  0.14921470  0.57538210  0.30520349  1
  O2-  O487  1  0.17085929  0.59332807  0.64308704  1
  O2-  O488  1  0.14702327  0.53903850  0.99472173  1
  O2-  O489  1  0.18016656  0.85559775  0.29298072  1
  O2-  O490  1  0.10448909  0.80137336  0.63918447  1
  O2-  O491  1  0.17181966  0.80618932  0.97531133  1
  O2-  O492  1  0.45835245  0.16739227  0.28654888  1
  O2-  O493  1  0.41051878  0.08179682  0.65456469  1
  O2-  O494  1  0.40874093  0.07996626  0.99877437  1
  O2-  O495  1  0.41705879  0.34121077  0.30907325  1
  O2-  O496  1  0.42868575  0.33136185  0.63423773  1
  O2-  O497  1  0.43978468  0.34178411  0.97694034  1
  O2-  O498  1  0.41654330  0.58045090  0.30508486  1
  O2-  O499  1  0.41073448  0.55604863  0.63682704  1
  O2-  O500  1  0.40915570  0.57282459  0.99074809  1
  O2-  O501  1  0.41666647  0.81754998  0.30873326  1
  O2-  O502  1  0.41743073  0.83842662  0.63895184  1
  O2-  O503  1  0.40285623  0.82066448  0.98472864  1
  O2-  O504  1  0.64471809  0.07825381  0.30648216  1
  O2-  O505  1  0.66890025  0.09353837  0.64696127  1
  O2-  O506  1  0.65069150  0.07503920  0.99161501  1
  O2-  O507  1  0.68061244  0.33840580  0.30017635  1
  O2-  O508  1  0.68736685  0.34598147  0.64041544  1
  O2-  O509  1  0.65519256  0.34348761  0.97792766  1
  O2-  O510  1  0.65696121  0.56796961  0.31199862  1
  O2-  O511  1  0.66487294  0.56974765  0.64308503  1
  O2-  O512  1  0.68246444  0.56607341  0.96948345  1
  O2-  O513  1  0.65811172  0.82977203  0.37008666  1
  O2-  O514  1  0.70146601  0.86537338  0.61439134  1
  O2-  O515  1  0.67692977  0.82837971  0.98426509  1
  O2-  O516  1  0.90466114  0.08040984  0.31441815  1
  O2-  O517  1  0.91014079  0.08270402  0.66002599  1
  O2-  O518  1  0.92024489  0.08789647  0.98616082  1
  O2-  O519  1  0.92884049  0.33599294  0.31005592  1
  O2-  O520  1  0.91893608  0.33403432  0.64675594  1
  O2-  O521  1  0.84090895  0.28410529  0.94539690  1
  O2-  O522  1  0.93043614  0.59828267  0.30319522  1
  O2-  O523  1  0.93085000  0.56948697  0.66573412  1
  O2-  O524  1  0.83587006  0.50860842  1.00150305  1
  O2-  O525  1  0.91658037  0.83413038  0.30695043  1
  O2-  O526  1  0.94687476  0.77927630  0.62620240  1
  O2-  O527  1  0.87236706  0.77017380  0.98754158  1
  O2-  O528  1  0.09652126  0.18670880  0.02001086  1
  O2-  O529  1  0.06860314  0.14695624  0.36177955  1
  O2-  O530  1  0.08088962  0.16131684  0.69278480  1
  O2-  O531  1  0.07815956  0.38747005  0.06512090  1
  O2-  O532  1  0.08918918  0.40532494  0.35120068  1
  O2-  O533  1  0.13068023  0.43925047  0.70261158  1
  O2-  O534  1  0.08145676  0.63375358  0.02296593  1
  O2-  O535  1  0.09429539  0.69082019  0.34353641  1
  O2-  O536  1  0.09251420  0.67448443  0.68735313  1
  O2-  O537  1  0.06802180  0.94562313  0.02630360  1
  O2-  O538  1  0.08448107  0.91695936  0.34161484  1
  O2-  O539  1  0.16226820  0.94596921  0.72116831  1
  O2-  O540  1  0.34618553  0.18393107  0.02723592  1
  O2-  O541  1  0.32741095  0.17225429  0.34717366  1
  O2-  O542  1  0.34554088  0.18371124  0.68899609  1
  O2-  O543  1  0.34938815  0.41050180  0.02450440  1
  O2-  O544  1  0.33059582  0.41997680  0.35211818  1
  O2-  O545  1  0.32581496  0.40599027  0.69027695  1
  O2-  O546  1  0.31262182  0.65288841  0.02129668  1
  O2-  O547  1  0.32517917  0.65147583  0.35089955  1
  O2-  O548  1  0.32255028  0.69048374  0.71081462  1
  O2-  O549  1  0.31713183  0.91146302  0.03742210  1
  O2-  O550  1  0.28449673  0.82051277  0.36427875  1
  O2-  O551  1  0.32217030  0.90631678  0.67889433  1
  O2-  O552  1  0.58357062  0.18483482  0.02919754  1
  O2-  O553  1  0.59136766  0.18042562  0.34726797  1
  O2-  O554  1  0.56776446  0.15541450  0.70613241  1
  O2-  O555  1  0.61173972  0.39116650  -0.00184573  1
  O2-  O556  1  0.58214110  0.41076504  0.35006272  1
  O2-  O557  1  0.57993441  0.40634518  0.67744241  1
  O2-  O558  1  0.59642027  0.65972722  0.01381753  1
  O2-  O559  1  0.57437824  0.65256086  0.35479771  1
  O2-  O560  1  0.57029157  0.64619943  0.69161033  1
  O2-  O561  1  0.58931383  0.90347975  -0.01380467  1
  O2-  O562  1  0.57262383  0.92245459  0.34966342  1
  O2-  O563  1  0.58442528  0.92009620  0.68068347  1
  O2-  O564  1  0.86114644  0.18345536  0.03983408  1
  O2-  O565  1  0.84317078  0.17819528  0.35893056  1
  O2-  O566  1  0.83172650  0.17440762  0.69386577  1
  O2-  O567  1  0.80751341  0.41720304  0.01293956  1
  O2-  O568  1  0.83967527  0.45238314  0.36177615  1
  O2-  O569  1  0.83409423  0.40885583  0.70224923  1
  O2-  O570  1  0.82516481  0.68371300  0.01740924  1
  O2-  O571  1  0.83141946  0.66907167  0.33942925  1
  O2-  O572  1  0.83093542  0.63699440  0.68337396  1
  O2-  O573  1  0.82284509  0.87535996  0.03204697  1
  O2-  O574  1  0.83124733  0.91201052  0.35589001  1
  O2-  O575  1  0.79176020  0.95233885  0.72442148  1
