# generated using pymatgen
data_H2O
_symmetry_space_group_name_H-M   'P 1'
_cell_length_a   17.98754550
_cell_length_b   17.99537911
_cell_length_c   22.00230773
_cell_angle_alpha   89.99003663
_cell_angle_beta   90.02666449
_cell_angle_gamma   119.99353871
_symmetry_Int_Tables_number   1
_chemical_formula_structural   H2O
_chemical_formula_sum   'H384 O192'
_cell_volume   6168.22200740
_cell_formula_units_Z   192
loop_
 _symmetry_equiv_pos_site_id
 _symmetry_equiv_pos_as_xyz
  1  'x, y, z'
loop_
 _atom_type_symbol
 _atom_type_oxidation_number
  H+  1.0
  O2-  -2.0
loop_
 _atom_site_type_symbol
 _atom_site_label
 _atom_site_symmetry_multiplicity
 _atom_site_fract_x
 _atom_site_fract_y
 _atom_site_fract_z
 _atom_site_occupancy
  H+  H0  1  0.47082622  0.60436928  0.32906304  1
  H+  H1  1  0.86541241  0.65430467  0.14466528  1
  H+  H2  1  0.60730654  0.63498304  0.49623020  1
  H+  H3  1  0.73807346  0.87235434  0.32779533  1
  H+  H4  1  0.62490898  0.99486954  0.00768698  1
  H+  H5  1  0.88375403  0.65057096  -0.01185312  1
  H+  H6  1  0.03098136  0.65301238  -0.00200455  1
  H+  H7  1  0.57265245  0.92598270  0.53215591  1
  H+  H8  1  0.55713559  0.15469048  0.48372482  1
  H+  H9  1  0.89369065  0.52989911  0.36342861  1
  H+  H10  1  0.43673075  0.83152610  0.91822434  1
  H+  H11  1  0.11821700  0.73580860  0.49364523  1
  H+  H12  1  0.86132488  0.01888075  0.17922964  1
  H+  H13  1  0.81476098  0.89140522  0.82815639  1
  H+  H14  1  0.42512716  0.88880050  0.81757005  1
  H+  H15  1  0.88597390  0.27428773  0.32765551  1
  H+  H16  1  0.14599169  1.02077945  0.82512662  1
  H+  H17  1  0.62323347  0.85813502  0.18424482  1
  H+  H18  1  0.60523685  0.73592618  0.00686958  1
  H+  H19  1  0.46988385  0.61089976  0.50182011  1
  H+  H20  1  0.61310040  0.21834035  0.84441394  1
  H+  H21  1  0.11206417  0.47946679  0.66689912  1
  H+  H22  1  0.74897613  0.35545085  0.85263326  1
  H+  H23  1  0.97673568  0.35500221  0.99266607  1
  H+  H24  1  0.40129445  0.84630303  -0.02045884  1
  H+  H25  1  0.62554557  0.10786159  0.84401667  1
  H+  H26  1  0.20589817  0.11258542  0.53377863  1
  H+  H27  1  0.45517920  0.13189958  0.50401395  1
  H+  H28  1  0.88807999  0.36334824  0.32813187  1
  H+  H29  1  0.59066574  0.84759127  0.84885785  1
  H+  H30  1  0.88276690  0.51530134  0.66017160  1
  H+  H31  1  0.85187595  0.44241213  -0.00447310  1
  H+  H32  1  0.85557957  0.89345851  0.01532784  1
  H+  H33  1  0.61145438  0.47818022  0.00607711  1
  H+  H34  1  0.02211191  0.39005421  0.66847970  1
  H+  H35  1  0.15190578  0.27476152  0.17152111  1
  H+  H36  1  0.28092475  0.38412971  0.15921674  1
  H+  H37  1  0.59930174  0.47617932  0.82579977  1
  H+  H38  1  0.72324608  0.61850322  0.51475233  1
  H+  H39  1  0.68633941  0.86730962  0.84969267  1
  H+  H40  1  0.86890430  0.97492796  0.65930508  1
  H+  H41  1  0.14410354  0.01635483  0.31979547  1
  H+  H42  1  0.60529446  0.38372170  0.68119101  1
  H+  H43  1  0.62127660  0.48590154  0.17939672  1
  H+  H44  1  0.83826976  0.41357348  0.73366945  1
  H+  H45  1  0.63242881  0.01165417  0.65835224  1
  H+  H46  1  0.72943745  0.85960536  0.50634979  1
  H+  H47  1  0.86751334  0.47627824  0.82777030  1
  H+  H48  1  0.77887912  0.13185536  0.34047502  1
  H+  H49  1  0.52931916  0.89087451  0.15811425  1
  H+  H50  1  0.37818498  0.59941273  0.32372613  1
  H+  H51  1  0.35180645  0.70545421  0.48568391  1
  H+  H52  1  0.64865728  0.53774800  0.31907556  1
  H+  H53  1  0.15573581  0.02533668  0.15682380  1
  H+  H54  1  0.05231899  0.88119108  0.83085958  1
  H+  H55  1  0.37164894  0.47143608  0.16037191  1
  H+  H56  1  0.52463929  0.87581715  0.34215851  1
  H+  H57  1  0.37205421  0.92678812  0.05634351  1
  H+  H58  1  0.11098549  0.46910904  -0.00247240  1
  H+  H59  1  0.36438248  0.14378933  0.67490705  1
  H+  H60  1  0.64922022  0.31860683  0.73887368  1
  H+  H61  1  0.38846472  0.74168965  0.81100822  1
  H+  H62  1  0.13848776  0.61443709  0.64800428  1
  H+  H63  1  0.97284553  0.10746931  0.65964629  1
  H+  H64  1  0.88232297  0.11408419  1.00155097  1
  H+  H65  1  0.39347419  0.85552730  0.17952655  1
  H+  H66  1  0.13192007  0.52424213  0.49976243  1
  H+  H67  1  0.46439298  0.83365616  0.49922912  1
  H+  H68  1  0.30592878  0.06957065  0.50443046  1
  H+  H69  1  0.86810876  0.90307317  0.15692346  1
  H+  H70  1  0.76903823  0.63200459  0.67211251  1
  H+  H71  1  0.03236609  0.13485561  0.33756539  1
  H+  H72  1  0.60012663  0.87506855  0.67605493  1
  H+  H73  1  0.41729046  0.34338160  0.93573972  1
  H+  H74  1  0.62049161  0.88189529  0.50168554  1
  H+  H75  1  0.63894389  0.01825202  0.32624976  1
  H+  H76  1  0.12007128  0.13272311  0.33514212  1
  H+  H77  1  0.87245038  0.64483885  0.36372599  1
  H+  H78  1  0.89571647  0.02549315  0.33119372  1
  H+  H79  1  0.39773171  0.60526026  0.17303659  1
  H+  H80  1  0.14779238  0.89801060  0.82890437  1
  H+  H81  1  0.48320866  0.47160741  0.54010341  1
  H+  H82  1  0.38619244  -0.02164170  0.16906526  1
  H+  H83  1  0.03016465  0.38364944  0.49166014  1
  H+  H84  1  0.09788986  0.37674830  0.82505395  1
  H+  H85  1  0.10389890  0.21973805  0.68120061  1
  H+  H86  1  0.48073949  0.12414858  0.24273000  1
  H+  H87  1  0.25776598  0.86596580  0.99735076  1
  H+  H88  1  0.39210701  0.28094515  0.31269549  1
  H+  H89  1  0.36610659  0.38257765  0.33259094  1
  H+  H90  1  0.85327809  0.22237788  0.82737408  1
  H+  H91  1  0.34822563  0.84749678  0.48294103  1
  H+  H92  1  0.63176544  0.52160849  0.66180744  1
  H+  H93  1  0.40006864  0.77104767  0.16172388  1
  H+  H94  1  0.87414134  0.36236266  0.17653316  1
  H+  H95  1  0.37034328  0.41287953  1.00273155  1
  H+  H96  1  0.02116801  0.13098689  0.49079592  1
  H+  H97  1  0.02745258  0.14860300  0.01031179  1
  H+  H98  1  0.90921678  0.85895262  0.65094991  1
  H+  H99  1  0.17308044  0.33721072  0.73172989  1
  H+  H100  1  -0.03187889  0.35256649  0.83538523  1
  H+  H101  1  0.47064783  0.36530195  0.83946678  1
  H+  H102  1  0.72793509  0.37538324  0.16812640  1
  H+  H103  1  0.53789355  0.13851193  0.33100710  1
  H+  H104  1  0.23089086  0.10512202  0.30965182  1
  H+  H105  1  0.23585240  0.59973675  0.97907199  1
  H+  H106  1  0.98126945  0.85930792  0.50124146  1
  H+  H107  1  0.13906902  0.75005814  0.40528341  1
  H+  H108  1  0.62885374  0.62196484  0.84063908  1
  H+  H109  1  0.25986797  0.62068950  0.48552056  1
  H+  H110  1  0.86444532  -0.02865329  0.49337410  1
  H+  H111  1  0.61863777  0.76464122  0.18539842  1
  H+  H112  1  0.10209319  0.61595246  0.30911333  1
  H+  H113  1  0.13898020  0.86753788  0.15077216  1
  H+  H114  1  0.79203666  0.14505584  0.49359514  1
  H+  H115  1  0.40739571  0.04353639  0.27275903  1
  H+  H116  1  1.02220607  0.64159598  0.84724303  1
  H+  H117  1  0.88343631  0.34686280  0.99654433  1
  H+  H118  1  0.11247711  0.86819342  0.35203115  1
  H+  H119  1  0.42189873  0.57559028  0.23573475  1
  H+  H120  1  0.52669350  0.63232980  0.16278667  1
  H+  H121  1  0.35484421  0.47651836  0.48227115  1
  H+  H122  1  0.35763066  0.93574663  0.49659563  1
  H+  H123  1  0.28007483  0.14535462  0.00476716  1
  H+  H124  1  0.78437104  0.38904653  0.49617293  1
  H+  H125  1  0.63951918  0.52775319  0.50585029  1
  H+  H126  1  0.14231563  0.27083632  0.32990218  1
  H+  H127  1  0.38918575  0.28545304  -0.00533602  1
  H+  H128  1  0.71890246  0.12288821  0.16912045  1
  H+  H129  1  0.30563569  0.04630694  0.47601169  1
  H+  H130  1  0.22734696  0.85580746  0.50668691  1
  H+  H131  1  0.85117705  0.23788207  0.15907780  1
  H+  H132  1  0.21784957  0.59984303  0.32475250  1
  H+  H133  1  0.78127312  0.39332645  0.34033352  1
  H+  H134  1  0.86291249  0.71210426  0.82582332  1
  H+  H135  1  0.87903721  0.60449379  0.51075738  1
  H+  H136  1  0.72503843  0.11168808  0.99164894  1
  H+  H137  1  0.33079652  0.88855898  0.39900140  1
  H+  H138  1  0.72856297  0.62953576  0.32350535  1
  H+  H139  1  0.22257163  0.63385968  0.18685521  1
  H+  H140  1  0.03113719  0.89429275  0.14182487  1
  H+  H141  1  0.13690053  0.27072862  0.49797831  1
  H+  H142  1  0.86618667  0.88285539  0.49382428  1
  H+  H143  1  0.63329019  0.36662590  0.00475082  1
  H+  H144  1  0.46797693  0.10646080  0.66743821  1
  H+  H145  1  0.62443648  0.62845894  0.98748860  1
  H+  H146  1  0.60287225  0.20636639  0.68074952  1
  H+  H147  1  0.24118233  0.12122473  0.82163271  1
  H+  H148  1  0.88601683  0.26948277  0.65840135  1
  H+  H149  1  0.87619711  0.60497085  0.83525376  1
  H+  H150  1  0.33373061  0.17320101  0.76189981  1
  H+  H151  1  0.64231937  0.62101943  0.16664852  1
  H+  H152  1  0.12450824  0.65440325  0.47447857  1
  H+  H153  1  0.97997166  0.62268051  0.16019194  1
  H+  H154  1  0.77220258  0.12890520  0.67290874  1
  H+  H155  1  0.59978936  0.21832732  1.00672159  1
  H+  H156  1  0.35705797  0.70947573  0.33345172  1
  H+  H157  1  0.60965198  0.63468242  0.67483695  1
  H+  H158  1  0.86218458  0.72505477  0.50210400  1
  H+  H159  1  0.29917273  0.62676652  0.11878837  1
  H+  H160  1  0.38355482  0.36264430  0.64997716  1
  H+  H161  1  0.60837475  0.72402566  0.49384267  1
  H+  H162  1  0.34537979  -0.05668551  0.58998474  1
  H+  H163  1  0.33647966  0.93246329  0.33430179  1
  H+  H164  1  0.11248888  -0.02578488  0.49744319  1
  H+  H165  1  0.37976795  -0.01886114  0.99696136  1
  H+  H166  1  0.13287384  0.36491891  0.68020845  1
  H+  H167  1  0.85058657  0.74997289  -0.00942640  1
  H+  H168  1  0.52303688  0.39163871  0.00654132  1
  H+  H169  1  0.60190150  0.72168149  0.82838914  1
  H+  H170  1  0.85779621  0.37828244  0.67200049  1
  H+  H171  1  0.17098050  0.86798260  1.00250888  1
  H+  H172  1  0.09132360  0.91512300  -0.03449691  1
  H+  H173  1  0.61710348  -0.01703134  0.16258579  1
  H+  H174  1  0.13868506  0.87924502  0.67210940  1
  H+  H175  1  0.13925711  0.36763964  -0.01002887  1
  H+  H176  1  0.92682515  0.82817760  0.56245817  1
  H+  H177  1  0.89369684  0.78980926  0.16071810  1
  H+  H178  1  0.35702713  0.13489623  0.82200144  1
  H+  H179  1  0.39342681  0.53247871  0.84853042  1
  H+  H180  1  0.63334127  0.76817509  0.66090035  1
  H+  H181  1  0.29626929  0.88672279  0.82036607  1
  H+  H182  1  0.95279817  0.60134842  0.41220177  1
  H+  H183  1  0.99161115  0.86737045  0.32246981  1
  H+  H184  1  0.70469134  0.47823494  0.36929497  1
  H+  H185  1  0.84991428  0.14746454  0.15644313  1
  H+  H186  1  0.65117872  0.36247716  0.32230962  1
  H+  H187  1  0.27536079  0.38257617  0.66987763  1
  H+  H188  1  0.32962406  0.23822324  0.58061000  1
  H+  H189  1  0.36714443  0.23420705  0.67122786  1
  H+  H190  1  0.29030878  0.89758254  0.17455139  1
  H+  H191  1  0.72299191  0.85684554  0.65689073  1
  H+  H192  1  0.39390941  0.36184479  0.16272417  1
  H+  H193  1  0.12989098  0.61424598  0.17008754  1
  H+  H194  1  0.66858685  0.33232419  0.94951436  1
  H+  H195  1  0.86029841  0.48517359  0.15394928  1
  H+  H196  1  0.65862960  0.83243307  0.26672207  1
  H+  H197  1  0.13145969  0.48004359  0.15165911  1
  H+  H198  1  0.15305975  0.61091685  0.98581448  1
  H+  H199  1  0.13688320  0.11147468  0.82434733  1
  H+  H200  1  0.90017495  0.27704395  0.50340605  1
  H+  H201  1  0.60209521  0.63408621  0.33844479  1
  H+  H202  1  0.36403734  0.47127990  0.66178749  1
  H+  H203  1  0.71803381  0.86961114  -0.00542560  1
  H+  H204  1  0.88649656  0.56916582  1.00711847  1
  H+  H205  1  0.61879224  0.01615136  0.84084305  1
  H+  H206  1  0.22184457  0.11737262  0.66804912  1
  H+  H207  1  0.38116410  0.10696223  0.98582364  1
  H+  H208  1  0.91022039  0.78469623  0.29474186  1
  H+  H209  1  1.01686896  0.62398321  0.32569141  1
  H+  H210  1  0.82236982  0.16884223  0.06530250  1
  H+  H211  1  0.47546768  0.15936359  0.53198577  1
  H+  H212  1  0.90300896  0.32687792  0.23314558  1
  H+  H213  1  0.98905767  0.84144378  0.65641674  1
  H+  H214  1  0.87035222  0.13631100  0.34141679  1
  H+  H215  1  0.77648158  0.65256401  0.15174817  1
  H+  H216  1  0.37985703  0.14382939  0.30216415  1
  H+  H217  1  0.81950682  0.65753225  0.44821256  1
  H+  H218  1  0.28026931  0.25598944  0.53019482  1
  H+  H219  1  0.51971463  0.13652886  0.83336137  1
  H+  H220  1  0.91642757  0.08336210  0.27182389  1
  H+  H221  1  0.21587383  0.81552645  0.35629116  1
  H+  H222  1  0.13710118  0.27197969  0.83991497  1
  H+  H223  1  0.12075665  0.38168573  0.49200628  1
  H+  H224  1  0.82339169  0.69076031  0.05360583  1
  H+  H225  1  0.39027801  0.84204386  0.32165020  1
  H+  H226  1  0.61595660  0.39092232  0.49063449  1
  H+  H227  1  0.72192857  0.63751144  0.98750982  1
  H+  H228  1  0.62432648  0.13341622  0.33353067  1
  H+  H229  1  0.37654031  0.60325297  0.50063189  1
  H+  H230  1  0.42382024  0.34613547  0.25959377  1
  H+  H231  1  0.65139478  0.28208299  0.49922490  1
  H+  H232  1  0.11669784  0.09728985  0.51373962  1
  H+  H233  1  0.40179582  0.27572784  0.16576570  1
  H+  H234  1  0.47466909  0.61020783  0.65686007  1
  H+  H235  1  0.88110088  0.60319092  0.66006095  1
  H+  H236  1  0.02168793  0.63394662  0.65958789  1
  H+  H237  1  0.65939722  0.12436795  0.49971284  1
  H+  H238  1  0.29889113  0.13374492  0.15522753  1
  H+  H239  1  0.14094347  0.14936285  0.15385564  1
  H+  H240  1  0.91198930  0.32565516  0.89741490  1
  H+  H241  1  0.12893943  0.72946322  1.00024740  1
  H+  H242  1  0.38619660  1.02610621  0.82817393  1
  H+  H243  1  0.51723849  0.38387725  0.66681505  1
  H+  H244  1  0.13770137  0.04168047  0.99777147  1
  H+  H245  1  0.43312718  0.35551332  0.59212522  1
  H+  H246  1  0.86735346  0.73084634  0.37192465  1
  H+  H247  1  0.29592473  0.65567827  0.81746376  1
  H+  H248  1  0.64424563  0.87172354  0.33565263  1
  H+  H249  1  0.13599261  0.39370682  0.15176492  1
  H+  H250  1  0.11879431  0.46791771  0.34376191  1
  H+  H251  1  0.65795090  0.03507447  0.49735692  1
  H+  H252  1  0.52857290  0.39094645  0.18061671  1
  H+  H253  1  0.38187549  0.75886327  0.65186177  1
  H+  H254  1  0.36204227  0.63085963  0.66598246  1
  H+  H255  1  0.92618166  0.84762444  0.83002848  1
  H+  H256  1  0.02724758  0.13516457  0.82943348  1
  H+  H257  1  0.88628540  1.03908944  0.85184574  1
  H+  H258  1  0.11409857  0.72842431  0.14724084  1
  H+  H259  1  0.11888992  0.88856059  0.49781274  1
  H+  H260  1  0.87197136  0.47853637  0.49533230  1
  H+  H261  1  0.36178607  0.39702914  0.83811856  1
  H+  H262  1  0.64799380  0.27101120  0.32137727  1
  H+  H263  1  0.89216467  0.12807677  0.84516578  1
  H+  H264  1  0.23263225  0.36049282  0.32923455  1
  H+  H265  1  0.14637036  0.13259430  0.99897753  1
  H+  H266  1  0.40461208  0.40622825  0.50048984  1
  H+  H267  1  0.89150577  0.11032456  0.50334856  1
  H+  H268  1  0.22557320  0.36016644  0.49384859  1
  H+  H269  1  0.11690175  0.23834708  0.00520166  1
  H+  H270  1  0.09514769  0.41262860  0.41308129  1
  H+  H271  1  0.66101137  0.60007118  0.91783765  1
  H+  H272  1  0.66077566  0.58250478  0.60333619  1
  H+  H273  1  0.87019565  0.38725360  0.82688542  1
  H+  H274  1  0.75800018  0.36861257  0.01329633  1
  H+  H275  1  0.36263593  0.47104644  0.33383539  1
  H+  H276  1  0.34860259  0.16397641  0.36368470  1
  H+  H277  1  0.60226257  0.13149800  0.99869129  1
  H+  H278  1  0.18941675  0.84777968  0.57224954  1
  H+  H279  1  -0.00093426  0.89131378  -0.01223743  1
  H+  H280  1  0.08753880  0.65990242  0.89938812  1
  H+  H281  1  0.15683075  0.78227753  0.84859184  1
  H+  H282  1  0.57960290  0.91269301  0.40348159  1
  H+  H283  1  0.86758792  0.88676979  0.33823495  1
  H+  H284  1  0.85909637  0.22083400  0.00299302  1
  H+  H285  1  0.60344857  0.11946827  0.66634977  1
  H+  H286  1  0.08774945  0.91347332  0.40275308  1
  H+  H287  1  0.76660948  0.13027822  0.82736930  1
  H+  H288  1  0.17579331  0.33496995  0.23091556  1
  H+  H289  1  0.54318752  0.89725791  0.76732404  1
  H+  H290  1  0.91835943  0.59770550  0.21744085  1
  H+  H291  1  0.82952800  0.41639532  0.09965518  1
  H+  H292  1  0.83666979  0.91158033  0.40019851  1
  H+  H293  1  0.64682521  0.83691722  0.93956323  1
  H+  H294  1  0.34252472  0.21922297  0.43319887  1
  H+  H295  1  0.90482063  0.58603420  0.89881647  1
  H+  H296  1  0.71965215  0.61751127  0.84232969  1
  H+  H297  1  0.63192519  0.38489885  0.18417240  1
  H+  H298  1  0.09423161  0.88808586  0.73071798  1
  H+  H299  1  0.61713345  0.89499958  1.01131935  1
  H+  H300  1  0.40425647  0.07683960  0.89180078  1
  H+  H301  1  0.15920808  0.62737233  0.83236816  1
  H+  H302  1  0.34807867  0.17227359  0.05885930  1
  H+  H303  1  0.72995646  0.27814730  0.89430575  1
  H+  H304  1  0.40198771  0.62443235  0.84021568  1
  H+  H305  1  0.60994324  0.17827333  0.42252878  1
  H+  H306  1  0.58282400  0.67307367  0.10251498  1
  H+  H307  1  0.93013275  0.82032427  0.89877308  1
  H+  H308  1  0.59512542  0.93254309  0.07564329  1
  H+  H309  1  0.10115156  0.17861793  0.10110712  1
  H+  H310  1  0.15488381  0.83544051  0.21334040  1
  H+  H311  1  0.84722443  0.17076508  0.43250059  1
  H+  H312  1  0.36877907  0.02994212  0.67079662  1
  H+  H313  1  0.37312003  0.84229871  0.64741130  1
  H+  H314  1  0.81330862  0.05421640  0.21835475  1
  H+  H315  1  0.16358896  0.58685708  0.55690486  1
  H+  H316  1  0.78758568  0.94114965  0.78342579  1
  H+  H317  1  0.20202146  0.84818264  0.90132853  1
  H+  H318  1  0.33686369  0.42908940  0.06464376  1
  H+  H319  1  0.51129291  0.87435801  0.66829281  1
  H+  H320  1  0.23149234  0.37422135  -0.00945369  1
  H+  H321  1  0.08486315  0.15775582  0.43302736  1
  H+  H322  1  0.42773195  0.81774024  0.26374492  1
  H+  H323  1  0.86277665  0.71697456  0.67095438  1
  H+  H324  1  0.87133405  0.86122467  0.94365887  1
  H+  H325  1  0.41554753  0.58052462  0.59634795  1
  H+  H326  1  0.57734649  0.66362649  0.73337774  1
  H+  H327  1  0.29461607  0.19011852  0.43037842  1
  H+  H328  1  0.33383145  0.41486002  0.42260419  1
  H+  H329  1  0.16345164  0.33397923  0.89765801  1
  H+  H330  1  0.53582373  0.40871000  0.48700479  1
  H+  H331  1  0.62144004  0.10519000  0.18002625  1
  H+  H332  1  0.07689344  0.15838652  0.76513820  1
  H+  H333  1  0.33525025  0.90772213  0.75455191  1
  H+  H334  1  0.56901065  0.42119499  0.76535426  1
  H+  H335  1  0.89913057  0.36605701  0.50463583  1
  H+  H336  1  0.41419030  0.03570619  0.57862768  1
  H+  H337  1  0.07030302  0.41061647  0.76683901  1
  H+  H338  1  0.66135020  0.07375822  0.93219298  1
  H+  H339  1  0.91720842  0.32988895  0.59917261  1
  H+  H340  1  0.88249218  0.10565436  0.65981916  1
  H+  H341  1  0.67335092  0.33360545  0.23010078  1
  H+  H342  1  0.33898261  0.66788678  0.72478156  1
  H+  H343  1  0.61363655  0.43400466  0.39678310  1
  H+  H344  1  0.67013968  0.07419909  0.59995326  1
  H+  H345  1  0.12873533  0.37867948  0.34611241  1
  H+  H346  1  0.08387354  0.91904363  0.07992705  1
  H+  H347  1  0.38112153  0.27737323  0.84234811  1
  H+  H348  1  0.39130664  0.14057778  0.14589048  1
  H+  H349  1  0.15113833  0.07098928  0.61655525  1
  H+  H350  1  0.66923147  0.07799871  0.26611837  1
  H+  H351  1  0.51464274  0.63039219  0.83097503  1
  H+  H352  1  0.17897485  0.07481057  0.22028688  1
  H+  H353  1  0.91828841  0.57636161  0.56360109  1
  H+  H354  1  0.40689693  0.80998311  0.56000581  1
  H+  H355  1  0.38333194  0.65206286  0.08515530  1
  H+  H356  1  0.37255404  0.55110047  1.01211179  1
  H+  H357  1  0.67805765  0.60041205  0.22673172  1
  H+  H358  1  0.72157720  0.35479235  0.68915312  1
  H+  H359  1  0.11577336  0.71881517  0.32929280  1
  H+  H360  1  0.32067288  0.64962868  0.39317217  1
  H+  H361  1  0.82392626  0.92773103  0.10491351  1
  H+  H362  1  0.08525555  0.66352472  0.09090350  1
  H+  H363  1  0.56975761  0.65589390  0.39980383  1
  H+  H364  1  0.91656311  0.07771253  0.56357792  1
  H+  H365  1  0.18797643  0.58678584  0.88290294  1
  H+  H366  1  0.85859923  0.98368646  0.00821119  1
  H+  H367  1  0.51424964  0.65033770  0.00956608  1
  H+  H368  1  0.83119328  0.16157188  0.73223861  1
  H+  H369  1  0.08990043  0.41543734  0.05960575  1
  H+  H370  1  0.27543027  0.40018594  0.83640950  1
  H+  H371  1  0.38617526  0.70534227  -0.02623811  1
  H+  H372  1  0.66821448  0.82898548  0.56608305  1
  H+  H373  1  0.83426726  0.41512335  0.40414841  1
  H+  H374  1  0.82165044  0.65597046  0.76559456  1
  H+  H375  1  0.15698886  0.56122395  0.26628863  1
  H+  H376  1  0.85415784  0.90753731  0.71128273  1
  H+  H377  1  0.66890228  0.33400360  0.56100773  1
  H+  H378  1  0.10769569  0.13094353  0.67698684  1
  H+  H379  1  0.93449951  0.85553404  0.21672724  1
  H+  H380  1  0.22646445  0.61187473  0.65125441  1
  H+  H381  1  0.47085433  0.10861032  0.98258014  1
  H+  H382  1  0.10167375  0.70588099  0.69580192  1
  H+  H383  1  0.91867905  0.09276688  0.94205735  1
  O2-  O384  1  0.10881651  0.17957453  0.14599521  1
  O2-  O385  1  0.08288933  0.15990754  0.47833125  1
  O2-  O386  1  0.08537707  0.15991741  0.81080330  1
  O2-  O387  1  0.11087650  0.42512841  0.13082657  1
  O2-  O388  1  0.09096443  0.41446488  0.47581668  1
  O2-  O389  1  0.06054416  0.39939346  0.81100635  1
  O2-  O390  1  0.08228100  0.66603338  0.13617024  1
  O2-  O391  1  0.10455969  0.69393194  0.45996521  1
  O2-  O392  1  0.08512706  0.67267819  0.85647188  1
  O2-  O393  1  0.09048840  0.91806625  0.12470424  1
  O2-  O394  1  0.08767067  0.91529256  0.47848181  1
  O2-  O395  1  0.11017361  0.92051032  0.81356008  1
  O2-  O396  1  0.35849711  0.17062158  0.13940420  1
  O2-  O397  1  0.29702011  0.21457811  0.54290865  1
  O2-  O398  1  0.32676579  0.16651996  0.80791857  1
  O2-  O399  1  0.34053572  0.41350067  0.14113913  1
  O2-  O400  1  0.33098532  0.41551049  0.46880841  1
  O2-  O401  1  0.33711115  0.43339675  0.82632850  1
  O2-  O402  1  0.36102742  0.66185997  0.12449398  1
  O2-  O403  1  0.32016156  0.64569510  0.46895916  1
  O2-  O404  1  0.35582428  0.68040081  0.80006669  1
  O2-  O405  1  0.35050152  0.91972998  0.18667605  1
  O2-  O406  1  0.32465689  0.88466363  0.46871408  1
  O2-  O407  1  0.35194753  0.91921584  0.79827181  1
  O2-  O408  1  0.53206804  0.12924327  0.18052752  1
  O2-  O409  1  0.61636906  0.18357816  0.46844393  1
  O2-  O410  1  0.58199736  0.16149948  0.82493016  1
  O2-  O411  1  0.59271722  0.42319898  0.18911927  1
  O2-  O412  1  0.59481279  0.42694944  0.47144842  1
  O2-  O413  1  0.56926450  0.41711971  0.81039749  1
  O2-  O414  1  0.58701052  0.67061792  0.14737250  1
  O2-  O415  1  0.57544807  0.66316786  0.48015636  1
  O2-  O416  1  0.57878904  0.66227146  0.81334264  1
  O2-  O417  1  0.59104016  0.92340804  0.14483597  1
  O2-  O418  1  0.58681891  0.91274374  0.49215215  1
  O2-  O419  1  0.54414550  0.90350732  0.81315200  1
  O2-  O420  1  0.81919699  0.17619529  0.14039465  1
  O2-  O421  1  0.85214161  0.17354809  0.47819811  1
  O2-  O422  1  0.82717031  0.16117424  0.81283343  1
  O2-  O423  1  0.82662549  0.42301017  0.14441262  1
  O2-  O424  1  0.84359993  0.41677233  0.47986443  1
  O2-  O425  1  0.83784328  0.41629097  0.81186819  1
  O2-  O426  1  0.83554089  0.68599561  0.13316989  1
  O2-  O427  1  0.82463329  0.66186624  0.49298424  1
  O2-  O428  1  0.81949597  0.65363132  0.81149951  1
  O2-  O429  1  0.83121144  0.92851656  0.14948838  1
  O2-  O430  1  0.83358568  0.91047051  0.47800633  1
  O2-  O431  1  0.79476777  0.93281702  0.82640324  1
  O2-  O432  1  0.19122458  0.08244689  0.17593342  1
  O2-  O433  1  0.14441368  0.06663039  0.53302948  1
  O2-  O434  1  0.17366893  0.08444226  0.83518756  1
  O2-  O435  1  0.18107421  0.33705227  0.18618085  1
  O2-  O436  1  0.16617953  0.33210496  0.51041475  1
  O2-  O437  1  0.16068746  0.33266035  0.85202543  1
  O2-  O438  1  0.16273280  0.58853201  0.18904919  1
  O2-  O439  1  0.16147373  0.58599614  0.51102287  1
  O2-  O440  1  0.19691534  0.60351224  0.83971587  1
  O2-  O441  1  0.16626542  0.83553879  0.16999881  1
  O2-  O442  1  0.17244149  0.83747604  0.52886695  1
  O2-  O443  1  0.19697222  0.84459120  0.85633986  1
  O2-  O444  1  0.46016098  0.08645803  0.14843802  1
  O2-  O445  1  0.39482756  -0.02219855  0.56272883  1
  O2-  O446  1  0.40701612  0.08378257  0.84627502  1
  O2-  O447  1  0.42697244  0.33591766  0.18082336  1
  O2-  O448  1  0.45615440  0.41278248  0.52484380  1
  O2-  O449  1  0.41180004  0.33639692  0.85853903  1
  O2-  O450  1  0.42694385  0.57549539  0.18984742  1
  O2-  O451  1  0.40927941  0.57562217  0.51661794  1
  O2-  O452  1  0.43110991  0.59547359  0.85867308  1
  O2-  O453  1  0.42789594  0.82574238  0.18450466  1
  O2-  O454  1  0.40471239  0.80451678  0.51390748  1
  O2-  O455  1  0.45394774  0.85623673  0.83327632  1
  O2-  O456  1  0.66147943  0.08350748  0.18883328  1
  O2-  O457  1  0.68574652  0.09171630  0.51738030  1
  O2-  O458  1  0.65618665  0.07486286  0.85640022  1
  O2-  O459  1  0.66773912  0.34362440  0.18564568  1
  O2-  O460  1  0.67331325  0.34091338  0.51693261  1
  O2-  O461  1  0.70359933  0.31105695  0.88014470  1
  O2-  O462  1  0.67681189  0.59457359  0.18141154  1
  O2-  O463  1  0.66035059  0.58503429  0.52516234  1
  O2-  O464  1  0.66062202  0.59309662  0.86065700  1
  O2-  O465  1  0.63064349  0.81660336  0.20962484  1
  O2-  O466  1  0.66819089  0.83111641  0.52043708  1
  O2-  O467  1  0.62838104  0.82615651  0.86495253  1
  O2-  O468  1  0.87021967  0.07266457  0.20185130  1
  O2-  O469  1  0.91708878  0.07520107  0.51819890  1
  O2-  O470  1  0.92399526  0.09988118  0.86225522  1
  O2-  O471  1  0.89842083  0.32576777  0.18761339  1
  O2-  O472  1  0.93042242  0.33698652  0.52009677  1
  O2-  O473  1  0.90636144  0.32459417  0.85224775  1
  O2-  O474  1  0.91805327  0.59598072  0.17315173  1
  O2-  O475  1  0.91289607  0.57565848  0.51836935  1
  O2-  O476  1  0.91037215  0.58097153  0.85440672  1
  O2-  O477  1  0.93035608  0.85190426  0.17200015  1
  O2-  O478  1  0.92086988  0.82960915  0.51708249  1
  O2-  O479  1  0.94427098  0.81339432  0.85340726  1
  O2-  O480  1  0.16796467  0.07370963  0.30097964  1
  O2-  O481  1  0.15906310  0.08426914  0.66058360  1
  O2-  O482  1  0.17662795  0.10141173  0.98607172  1
  O2-  O483  1  0.16985719  0.33246613  0.31707141  1
  O2-  O484  1  0.16319961  0.33123554  0.68791222  1
  O2-  O485  1  0.17168482  0.33907737  0.97493846  1
  O2-  O486  1  0.15555199  0.56418360  0.31152834  1
  O2-  O487  1  0.16701167  0.58138945  0.63426754  1
  O2-  O488  1  0.17410405  0.57408110  0.96899070  1
  O2-  O489  1  0.15164567  0.78146682  0.36279515  1
  O2-  O490  1  0.25738550  0.90270618  0.64434378  1
  O2-  O491  1  0.19548703  0.83623455  0.98327954  1
  O2-  O492  1  0.44547523  0.10427030  0.28176204  1
  O2-  O493  1  0.40647463  0.08784849  0.65523656  1
  O2-  O494  1  0.40832860  0.07429060  0.96886688  1
  O2-  O495  1  0.42013340  0.34312189  0.30479110  1
  O2-  O496  1  0.41659085  0.33264248  0.63423634  1
  O2-  O497  1  0.41833433  0.34664537  0.98129297  1
  O2-  O498  1  0.41103919  0.57163691  0.30963605  1
  O2-  O499  1  0.41430110  0.57931440  0.64169284  1
  O2-  O500  1  0.40053063  0.61567160  1.01763647  1
  O2-  O501  1  0.42565577  0.81626269  0.30928556  1
  O2-  O502  1  0.41097323  0.81953448  0.63432014  1
  O2-  O503  1  0.42443091  0.81240231  0.96084406  1
  O2-  O504  1  0.67159134  0.07856100  0.31177464  1
  O2-  O505  1  0.66734371  0.07251738  0.64495191  1
  O2-  O506  1  0.66320084  0.07618521  0.97813498  1
  O2-  O507  1  0.67951015  0.33131384  0.30576585  1
  O2-  O508  1  0.65705988  0.32383337  0.69485118  1
  O2-  O509  1  0.66348761  0.33316934  0.99443261  1
  O2-  O510  1  0.67122162  0.59773317  0.30467516  1
  O2-  O511  1  0.66327092  0.58337779  0.64877204  1
  O2-  O512  1  0.66008273  0.60296392  0.97083172  1
  O2-  O513  1  0.67520386  0.84415362  0.31568441  1
  O2-  O514  1  0.66186482  0.82853151  0.64439432  1
  O2-  O515  1  0.65508341  0.83997053  0.98501482  1
  O2-  O516  1  0.92679628  0.08599383  0.31682077  1
  O2-  O517  1  0.91246637  0.07567730  0.64300972  1
  O2-  O518  1  0.91476648  0.08534466  0.98708771  1
  O2-  O519  1  0.91374226  0.33200304  0.30904754  1
  O2-  O520  1  0.91361737  0.33028169  0.64452274  1
  O2-  O521  1  0.91572999  0.32186991  0.97710638  1
  O2-  O522  1  0.93256477  0.59462670  0.36989270  1
  O2-  O523  1  0.91247201  0.57494421  0.64376894  1
  O2-  O524  1  0.91591304  0.61849865  0.98014240  1
  O2-  O525  1  0.93345444  0.84567271  0.30289084  1
  O2-  O526  1  0.93007210  0.81987392  0.63864639  1
  O2-  O527  1  0.90333202  0.83588738  0.96121875  1
  O2-  O528  1  0.08859824  0.17910277  0.02282659  1
  O2-  O529  1  0.09282145  0.16400082  0.35314139  1
  O2-  O530  1  0.07095954  0.15699360  0.69033196  1
  O2-  O531  1  0.07982411  0.40963475  0.01393289  1
  O2-  O532  1  0.09835003  0.41051738  0.36380678  1
  O2-  O533  1  0.08181843  0.42028922  0.68472081  1
  O2-  O534  1  0.09004342  0.66708670  0.00911230  1
  O2-  O535  1  0.07358662  0.65212409  0.30299221  1
  O2-  O536  1  0.08559987  0.66661063  0.66164493  1
  O2-  O537  1  0.06164460  0.91873598  0.00140870  1
  O2-  O538  1  0.08771233  0.90580423  0.35708436  1
  O2-  O539  1  0.08220656  0.86175418  0.68999324  1
  O2-  O540  1  0.34333708  0.17265083  0.01379523  1
  O2-  O541  1  0.34149864  0.16383541  0.31965663  1
  O2-  O542  1  0.33444776  0.17587842  0.68921714  1
  O2-  O543  1  0.33898751  0.44080113  0.01982932  1
  O2-  O544  1  0.33284199  0.41037442  0.34972357  1
  O2-  O545  1  0.33852898  0.40887867  0.66990631  1
  O2-  O546  1  0.35251972  0.64030913  -0.02434840  1
  O2-  O547  1  0.31913051  0.64914208  0.34727953  1
  O2-  O548  1  0.33299902  0.66335974  0.67917251  1
  O2-  O549  1  0.35927003  0.92033594  0.01293723  1
  O2-  O550  1  0.32207719  0.87765722  0.35280484  1
  O2-  O551  1  0.29410471  0.86776735  0.67856561  1
  O2-  O552  1  0.56521766  0.15511316  0.00999017  1
  O2-  O553  1  0.59670495  0.16695554  0.34859114  1
  O2-  O554  1  0.56670317  0.14355734  0.67812133  1
  O2-  O555  1  0.58394761  0.41929314  0.02124071  1
  O2-  O556  1  0.64464955  0.44769850  0.35662265  1
  O2-  O557  1  0.57611551  0.41817914  0.68474123  1
  O2-  O558  1  0.57614756  0.67364443  0.01856761  1
  O2-  O559  1  0.56458441  0.65478110  0.35488579  1
  O2-  O560  1  0.57940026  0.66604931  0.68790007  1
  O2-  O561  1  0.59461278  0.93296249  0.02857464  1
  O2-  O562  1  0.58446543  0.91161687  0.35899986  1
  O2-  O563  1  0.56838484  0.90435371  0.68947942  1
  O2-  O564  1  0.82374159  0.16120342  0.01987442  1
  O2-  O565  1  0.83822457  0.16441783  0.35699847  1
  O2-  O566  1  0.83326818  0.16056485  0.68688202  1
  O2-  O567  1  0.82259626  0.39382776  0.02300030  1
  O2-  O568  1  0.83915828  0.42784626  0.35926531  1
  O2-  O569  1  0.82849090  0.40891354  0.68867013  1
  O2-  O570  1  0.81848925  0.68739759  0.00827930  1
  O2-  O571  1  0.83258096  0.66882481  0.36642405  1
  O2-  O572  1  0.82882907  0.65829230  0.68880221  1
  O2-  O573  1  0.82167640  0.92193766  0.02218787  1
  O2-  O574  1  0.83580541  0.91429205  0.35439712  1
  O2-  O575  1  0.84055417  0.91087690  0.66892490  1
