# generated using pymatgen
data_H2O
_symmetry_space_group_name_H-M   'P 1'
_cell_length_a   17.98700365
_cell_length_b   17.98396403
_cell_length_c   22.00236378
_cell_angle_alpha   89.98705135
_cell_angle_beta   89.99998054
_cell_angle_gamma   119.98603203
_symmetry_Int_Tables_number   1
_chemical_formula_structural   H2O
_chemical_formula_sum   'H384 O192'
_cell_volume   6164.60587266
_cell_formula_units_Z   192
loop_
 _symmetry_equiv_pos_site_id
 _symmetry_equiv_pos_as_xyz
  1  'x, y, z'
loop_
 _atom_type_symbol
 _atom_type_oxidation_number
  H+  1.0
  O2-  -2.0
loop_
 _atom_site_type_symbol
 _atom_site_label
 _atom_site_symmetry_multiplicity
 _atom_site_fract_x
 _atom_site_fract_y
 _atom_site_fract_z
 _atom_site_occupancy
  H+  H0  1  0.87069618  0.88766823  0.34271672  1
  H+  H1  1  0.65196180  0.38457432  0.33251551  1
  H+  H2  1  0.14378152  0.04241870  0.67000270  1
  H+  H3  1  0.27000458  0.38765402  0.82654754  1
  H+  H4  1  0.37037075  0.38728865  0.49901776  1
  H+  H5  1  0.03456729  0.41123699  0.33608152  1
  H+  H6  1  0.37328103  0.10959200  0.66115863  1
  H+  H7  1  0.13238176  0.47356038  0.84456476  1
  H+  H8  1  0.37932009  0.26235479  0.50141200  1
  H+  H9  1  0.32412275  0.19635418  0.73704973  1
  H+  H10  1  0.61894093  0.64938041  0.50255104  1
  H+  H11  1  0.83729912  0.67786112  0.10115770  1
  H+  H12  1  0.11302383  -0.01503173  0.34261438  1
  H+  H13  1  0.87804162  0.11536918  0.50346174  1
  H+  H14  1  0.82469386  0.61216410  0.76150827  1
  H+  H15  1  0.13145400  0.52307029  0.16832751  1
  H+  H16  1  0.63453479  0.51894119  0.83876689  1
  H+  H17  1  0.60324701  0.36459511  1.00903017  1
  H+  H18  1  0.53322926  0.64426302  0.02094916  1
  H+  H19  1  0.59525252  0.36823049  0.49354193  1
  H+  H20  1  0.86492716  0.38754927  0.00640866  1
  H+  H21  1  0.98975494  0.86995410  0.99797180  1
  H+  H22  1  0.50872314  0.37077159  0.48976200  1
  H+  H23  1  0.72977096  0.36687039  0.17168213  1
  H+  H24  1  0.78240748  0.14127314  0.67350045  1
  H+  H25  1  0.16443711  0.15651716  0.46942626  1
  H+  H26  1  0.96154313  0.85276703  0.65953832  1
  H+  H27  1  0.88109993  0.02805929  0.32580578  1
  H+  H28  1  0.37025525  0.45853437  0.15982086  1
  H+  H29  1  0.71736849  0.39622754  0.52395561  1
  H+  H30  1  0.17509330  1.06366406  0.84217069  1
  H+  H31  1  0.86551399  0.47786480  1.00846919  1
  H+  H32  1  0.13499593  0.35953260  0.84502443  1
  H+  H33  1  0.13442734  0.14031551  0.49618100  1
  H+  H34  1  0.87917511  0.89415035  1.00082112  1
  H+  H35  1  0.12024495  0.11189121  0.84407947  1
  H+  H36  1  0.91625523  0.23896812  0.10166262  1
  H+  H37  1  0.87055659  0.88883205  0.49097184  1
  H+  H38  1  0.64326097  0.02707676  0.51184231  1
  H+  H39  1  0.61928959  0.01065464  0.17957468  1
  H+  H40  1  0.87258459  0.14313053  0.67083497  1
  H+  H41  1  0.35903152  0.73475689  0.83042797  1
  H+  H42  1  0.05908546  0.32591902  0.46007684  1
  H+  H43  1  0.71145193  0.35086725  0.83702465  1
  H+  H44  1  0.36765465  0.74199993  0.32927253  1
  H+  H45  1  0.13149315  0.50338328  0.49117932  1
  H+  H46  1  1.00597541  0.89095613  0.83719760  1
  H+  H47  1  0.52523407  0.64030029  0.67696855  1
  H+  H48  1  0.72523834  0.82792123  0.19574245  1
  H+  H49  1  0.33659814  0.91725169  0.39369351  1
  H+  H50  1  0.61077395  0.63660650  0.16796926  1
  H+  H51  1  0.89226572  0.38486754  0.83918850  1
  H+  H52  1  0.36016313  0.46518132  0.01359278  1
  H+  H53  1  0.89187030  0.74832838  0.82739289  1
  H+  H54  1  0.34839014  0.76064319  0.50993281  1
  H+  H55  1  0.64348711  0.77310968  0.84118371  1
  H+  H56  1  0.37825025  0.00245396  0.83229250  1
  H+  H57  1  0.87956111  0.86749299  0.16981951  1
  H+  H58  1  0.28150998  0.63351819  0.67346104  1
  H+  H59  1  0.46904175  0.58185477  0.31335208  1
  H+  H60  1  0.72924887  0.36191870  0.99235112  1
  H+  H61  1  0.26715814  0.88539768  0.34058786  1
  H+  H62  1  0.61906893  -0.01550454  0.34729920  1
  H+  H63  1  0.38232589  0.34989188  0.99364841  1
  H+  H64  1  0.00907220  0.36734198  0.48982962  1
  H+  H65  1  0.27672263  0.62418724  0.48045942  1
  H+  H66  1  0.90720946  0.61068974  0.83963543  1
  H+  H67  1  0.97548065  0.62541615  0.32798201  1
  H+  H68  1  0.89466018  0.37729865  0.32605008  1
  H+  H69  1  0.98141409  0.87794776  0.32839493  1
  H+  H70  1  0.22966946  0.65591532  0.31096511  1
  H+  H71  1  0.61475928  0.87828094  0.16367028  1
  H+  H72  1  0.11391065  0.37695114  0.68308794  1
  H+  H73  1  1.02118834  0.38457306  0.99403018  1
  H+  H74  1  0.85593609  0.63562230  0.48403817  1
  H+  H75  1  0.92864062  0.34862801  0.26926472  1
  H+  H76  1  0.48087555  0.35951064  0.33464871  1
  H+  H77  1  0.36892587  0.38026418  0.34714669  1
  H+  H78  1  0.26436868  0.88117700  0.16159443  1
  H+  H79  1  0.35888570  0.01719948  0.17820796  1
  H+  H80  1  0.35056833  0.61775972  0.14938276  1
  H+  H81  1  0.40791540  0.36628622  0.17172346  1
  H+  H82  1  0.46512464  0.85187824  0.84002135  1
  H+  H83  1  0.73959502  0.63239648  -0.01280008  1
  H+  H84  1  0.87035643  0.64540684  0.00943630  1
  H+  H85  1  0.53852897  0.16800534  0.16719303  1
  H+  H86  1  0.22232073  0.09771839  -0.00471526  1
  H+  H87  1  0.62077622  0.26232796  0.84270744  1
  H+  H88  1  0.15213067  0.49642055  0.65236434  1
  H+  H89  1  0.64384753  0.37394286  0.67002334  1
  H+  H90  1  0.87644315  -0.01740544  0.99570830  1
  H+  H91  1  0.35738162  0.21496647  1.00338059  1
  H+  H92  1  0.02867401  0.38362433  0.67720269  1
  H+  H93  1  0.95958851  0.56357726  0.84772638  1
  H+  H94  1  0.88986328  0.03676405  0.83459897  1
  H+  H95  1  0.25672663  0.87800968  0.66027173  1
  H+  H96  1  0.20441881  0.09753704  0.17501346  1
  H+  H97  1  0.10462329  0.84000621  0.80675801  1
  H+  H98  1  0.37871432  0.76358758  0.14436929  1
  H+  H99  1  0.52985731  0.89018667  0.66891286  1
  H+  H100  1  0.73564886  0.86676442  0.99140381  1
  H+  H101  1  0.38488557  0.85115981  0.99644681  1
  H+  H102  1  0.62100702  0.73485212  0.01465494  1
  H+  H103  1  0.12845409  0.76903933  0.18017168  1
  H+  H104  1  0.36592532  0.10710678  0.33347847  1
  H+  H105  1  0.52003780  0.69534676  0.36935870  1
  H+  H106  1  0.27040092  0.87125155  0.00784263  1
  H+  H107  1  0.54555276  0.41098392  0.16450739  1
  H+  H108  1  0.12879240  0.85833774  0.17828899  1
  H+  H109  1  0.58092030  0.68326086  0.41538470  1
  H+  H110  1  0.87876121  0.24407135  0.82475036  1
  H+  H111  1  0.13937925  0.26729390  0.66670130  1
  H+  H112  1  0.88126168  0.26785095  -0.01756166  1
  H+  H113  1  0.10303675  0.71229654  0.01580961  1
  H+  H114  1  0.10343708  0.38445106  0.14918928  1
  H+  H115  1  0.97496296  0.61116638  1.00646644  1
  H+  H116  1  0.72783211  0.62980136  0.51015053  1
  H+  H117  1  0.88461953  0.35750233  0.50038456  1
  H+  H118  1  0.50774936  0.12572264  0.34209233  1
  H+  H119  1  0.63019312  0.90222252  0.50070254  1
  H+  H120  1  0.62874075  0.75710466  0.18459033  1
  H+  H121  1  0.30415127  0.05267425  0.82224161  1
  H+  H122  1  0.77603283  0.64769327  0.16088460  1
  H+  H123  1  0.71858648  0.12149734  0.32694559  1
  H+  H124  1  0.88859093  0.11129588  0.98044780  1
  H+  H125  1  0.02144197  0.14185150  0.33428770  1
  H+  H126  1  0.81602057  0.19503135  0.12757443  1
  H+  H127  1  0.46699167  0.85117050  0.15329577  1
  H+  H128  1  0.12316940  0.27765260  0.31270250  1
  H+  H129  1  0.85960054  0.64761785  0.33615071  1
  H+  H130  1  0.52574357  0.13947019  0.50035459  1
  H+  H131  1  0.36472921  0.71661822  -0.00247107  1
  H+  H132  1  0.52788316  0.64781079  0.50432747  1
  H+  H133  1  0.77011118  0.91213984  0.13378984  1
  H+  H134  1  0.64224854  0.77903403  0.34483988  1
  H+  H135  1  0.88528321  0.91669792  0.82792110  1
  H+  H136  1  0.63368715  0.28526752  0.17605817  1
  H+  H137  1  0.77021146  0.35585404  0.46841386  1
  H+  H138  1  0.86255163  0.73822623  0.33677859  1
  H+  H139  1  0.51823059  0.38644875  0.82838585  1
  H+  H140  1  0.13380000  0.85202821  0.99810570  1
  H+  H141  1  0.63285826  0.41047513  0.16168840  1
  H+  H142  1  0.37961797  0.86362060  0.83578977  1
  H+  H143  1  0.16740874  0.55614830  0.55169712  1
  H+  H144  1  0.38971370  0.61368499  0.67039658  1
  H+  H145  1  0.88341485  0.02810756  0.16625690  1
  H+  H146  1  0.12006577  0.27339716  0.15927843  1
  H+  H147  1  0.91728408  0.84823487  0.26884339  1
  H+  H148  1  0.26962478  0.37803118  1.00926706  1
  H+  H149  1  0.37512703  0.09618302  -0.01429246  1
  H+  H150  1  0.39299105  0.77632368  0.66372915  1
  H+  H151  1  0.85213065  0.63361481  0.65928320  1
  H+  H152  1  0.64643748  0.02692312  0.66436459  1
  H+  H153  1  0.09242197  0.42535473  0.77899454  1
  H+  H154  1  0.86036548  0.89090188  0.67295614  1
  H+  H155  1  0.53004851  0.15537941  0.13422029  1
  H+  H156  1  0.89376119  0.03532101  0.50020181  1
  H+  H157  1  0.61556241  0.22636208  0.49804091  1
  H+  H158  1  0.58933107  0.90838495  0.10193729  1
  H+  H159  1  0.01709907  0.12963040  0.15526165  1
  H+  H160  1  0.76625517  0.13630822  0.49486669  1
  H+  H161  1  0.52815299  0.63571952  0.83012843  1
  H+  H162  1  0.58572623  0.67254319  0.10926690  1
  H+  H163  1  0.86958630  0.50764597  0.48712072  1
  H+  H164  1  0.63580683  1.01051942  -0.00830320  1
  H+  H165  1  1.01649783  0.63299368  0.16903144  1
  H+  H166  1  0.39262930  0.61045926  0.99833145  1
  H+  H167  1  0.59272121  0.96243892  0.82464040  1
  H+  H168  1  0.15213708  0.37510957  0.52188931  1
  H+  H169  1  0.08449181  0.91425242  0.43585796  1
  H+  H170  1  0.62866377  0.90185021  0.35051069  1
  H+  H171  1  0.28424500  0.88013813  0.81979376  1
  H+  H172  1  0.10604205  0.25486627  0.48972866  1
  H+  H173  1  0.72103055  0.62794186  0.33124284  1
  H+  H174  1  1.02531981  0.14556327  0.82172102  1
  H+  H175  1  0.01302239  0.13782615  0.00004719  1
  H+  H176  1  0.60397613  0.09118138  0.84082547  1
  H+  H177  1  0.09842476  0.61369398  0.49211279  1
  H+  H178  1  0.50276829  0.13016755  0.82633253  1
  H+  H179  1  0.81615811  0.47883654  0.80665752  1
  H+  H180  1  0.38402810  0.07700880  0.23901201  1
  H+  H181  1  0.60518745  0.38127927  0.82904157  1
  H+  H182  1  0.68931571  0.13867367  0.16195089  1
  H+  H183  1  0.46927823  0.34558989  -0.00565744  1
  H+  H184  1  0.12876199  0.77772433  0.33285517  1
  H+  H185  1  1.02927595  0.97591075  0.86712914  1
  H+  H186  1  0.36075101  0.85592808  0.50899282  1
  H+  H187  1  0.61084728  0.48229574  0.34750745  1
  H+  H188  1  0.87894554  0.26621738  0.50563086  1
  H+  H189  1  0.47557093  0.35693990  0.66025604  1
  H+  H190  1  0.36723658  0.63472394  0.49880952  1
  H+  H191  1  0.86768108  0.51917421  0.63633528  1
  H+  H192  1  0.86510499  0.23747820  0.33909233  1
  H+  H193  1  0.61235256  0.87847230  1.00633579  1
  H+  H194  1  0.61641820  0.63262625  0.82756242  1
  H+  H195  1  0.15614549  0.01197390  0.52546790  1
  H+  H196  1  0.96070252  0.59493357  0.49218866  1
  H+  H197  1  0.83300328  0.41552443  0.09975605  1
  H+  H198  1  0.28618958  0.91689071  0.48622462  1
  H+  H199  1  0.88092722  0.61559719  0.17278083  1
  H+  H200  1  0.87627482  0.73750216  0.00499358  1
  H+  H201  1  0.73677122  0.38088362  0.66903465  1
  H+  H202  1  0.46564295  0.60141427  0.17126384  1
  H+  H203  1  0.63344618  0.14631326  0.68462975  1
  H+  H204  1  0.33003529  0.80546157  0.32459800  1
  H+  H205  1  0.90557152  0.29031218  0.18058872  1
  H+  H206  1  0.92087452  0.08816353  0.59825000  1
  H+  H207  1  0.38200678  0.02588158  0.66057001  1
  H+  H208  1  0.87268827  0.49233651  0.33744739  1
  H+  H209  1  0.38927533  0.36850795  0.83983806  1
  H+  H210  1  0.32035980  0.20163817  0.16053235  1
  H+  H211  1  0.88604604  0.39379170  0.67118985  1
  H+  H212  1  0.64328790  0.07172443  0.24001780  1
  H+  H213  1  0.40039121  0.63665748  0.34336203  1
  H+  H214  1  0.63081632  0.62492723  0.33310045  1
  H+  H215  1  0.37897673  -0.00127325  0.49113477  1
  H+  H216  1  0.64219239  0.22468564  0.01011409  1
  H+  H217  1  0.73016523  0.86454376  0.84058082  1
  H+  H218  1  0.22945537  0.79812790  0.52171819  1
  H+  H219  1  0.26519275  0.62475416  0.14904421  1
  H+  H220  1  0.10322664  0.97110185  0.16709974  1
  H+  H221  1  0.10236993  0.70370825  0.49965623  1
  H+  H222  1  0.28087775  0.63298734  0.83854356  1
  H+  H223  1  0.91314384  0.33867261  0.92988082  1
  H+  H224  1  0.72062785  0.61040941  0.66506432  1
  H+  H225  1  0.64254053  0.06078809  0.89432057  1
  H+  H226  1  0.14086343  0.11574983  0.33090815  1
  H+  H227  1  0.85402752  0.72142290  0.67452345  1
  H+  H228  1  0.67239090  0.83257281  0.93423672  1
  H+  H229  1  0.10690388  0.63351848  0.16574268  1
  H+  H230  1  0.23184525  0.11180617  0.33506061  1
  H+  H231  1  0.24060635  0.59753814  0.96155543  1
  H+  H232  1  0.05404207  0.81587979  0.67206282  1
  H+  H233  1  0.76983365  0.87857895  0.34518817  1
  H+  H234  1  0.85916480  0.14590134  0.33716163  1
  H+  H235  1  0.39567517  0.12308544  0.50193220  1
  H+  H236  1  0.89277949  0.27352927  0.65940636  1
  H+  H237  1  0.64810130  0.78295700  0.51107582  1
  H+  H238  1  0.28612969  0.39488604  0.50287158  1
  H+  H239  1  0.82518928  0.16832137  0.43309507  1
  H+  H240  1  0.33019234  0.66932266  0.73746586  1
  H+  H241  1  0.87888528  0.77782123  0.17395582  1
  H+  H242  1  0.64769065  0.53821474  0.17577052  1
  H+  H243  1  0.17584320  0.88981770  0.64843991  1
  H+  H244  1  0.00918463  0.17795005  0.48273946  1
  H+  H245  1  0.39547361  0.52617768  0.51398317  1
  H+  H246  1  0.11834381  0.96944785  0.00974971  1
  H+  H247  1  0.11386477  0.46823295  -0.01619274  1
  H+  H248  1  0.10906402  0.23530085  0.00520825  1
  H+  H249  1  0.60456813  0.87934020  0.82573181  1
  H+  H250  1  0.89079308  1.02858036  0.65802489  1
  H+  H251  1  -0.01740457  0.38470614  0.84212862  1
  H+  H252  1  0.64837069  0.10624817  0.99271332  1
  H+  H253  1  0.88506344  0.73511145  0.86022302  1
  H+  H254  1  0.74361413  0.24587688  0.15651733  1
  H+  H255  1  0.64043136  0.77878053  0.66283998  1
  H+  H256  1  0.92292029  0.48718895  0.70049204  1
  H+  H257  1  0.43895016  0.29395405  0.17429967  1
  H+  H258  1  0.37880846  0.49728101  0.32636652  1
  H+  H259  1  0.35615134  0.47906889  0.81950771  1
  H+  H260  1  0.33495407  0.41311663  0.73258412  1
  H+  H261  1  0.63909399  0.86757334  0.66197051  1
  H+  H262  1  0.67721970  0.35170799  0.27288468  1
  H+  H263  1  0.89521467  0.12219228  0.16645404  1
  H+  H264  1  0.13161293  0.35839055  0.99093155  1
  H+  H265  1  0.11109092  0.87267948  0.48945788  1
  H+  H266  1  -0.01236902  0.38149902  0.16872414  1
  H+  H267  1  0.76717884  0.58480483  0.82081984  1
  H+  H268  1  0.15722686  0.55375433  0.32547772  1
  H+  H269  1  0.60929367  0.47504517  0.67605644  1
  H+  H270  1  0.03291736  0.14018522  0.67074635  1
  H+  H271  1  0.89739118  0.13109660  0.83635402  1
  H+  H272  1  0.36661554  0.38444837  0.67251427  1
  H+  H273  1  0.78106950  0.40304067  0.33376023  1
  H+  H274  1  0.37958948  0.89638072  0.67730852  1
  H+  H275  1  0.28664293  0.12876033  0.49600709  1
  H+  H276  1  0.38509421  0.62618033  0.82710011  1
  H+  H277  1  0.01558311  0.88306509  0.16345840  1
  H+  H278  1  1.05616853  0.70052525  0.84169545  1
  H+  H279  1  0.77399299  0.89472366  0.67524214  1
  H+  H280  1  0.12896976  0.36954362  0.31392732  1
  H+  H281  1  0.35408018  0.88373955  0.15236803  1
  H+  H282  1  0.86738700  0.39255319  0.16111754  1
  H+  H283  1  0.63283607  0.61267662  0.66530859  1
  H+  H284  1  0.57671560  0.16431033  0.77446300  1
  H+  H285  1  0.33371052  0.11717232  0.16580408  1
  H+  H286  1  0.88643535  0.77527103  0.50380564  1
  H+  H287  1  0.76593163  0.11740266  -0.01226384  1
  H+  H288  1  0.38877315  0.52287951  0.66731114  1
  H+  H289  1  0.58228849  0.41525291  0.40398215  1
  H+  H290  1  0.25468445  0.13980657  0.67987803  1
  H+  H291  1  0.41624208  0.33261718  0.89702156  1
  H+  H292  1  0.66945003  0.59600169  0.23674826  1
  H+  H293  1  0.12574000  0.13975249  0.67221671  1
  H+  H294  1  0.62319724  0.11028344  0.33031023  1
  H+  H295  1  0.67346126  0.83006386  0.28054594  1
  H+  H296  1  0.34430126  0.41832838  0.40480630  1
  H+  H297  1  0.92450502  0.59063288  0.94363142  1
  H+  H298  1  0.07411729  0.88109188  0.72542995  1
  H+  H299  1  0.38479883  0.26932647  0.66104028  1
  H+  H300  1  0.08818181  0.17190146  0.76318417  1
  H+  H301  1  0.90453190  0.83062771  0.60001068  1
  H+  H302  1  0.15880263  0.83429841  0.27218517  1
  H+  H303  1  0.13804641  0.27219793  0.83880782  1
  H+  H304  1  0.16331540  0.32470255  0.93410852  1
  H+  H305  1  0.92929836  0.09013917  0.92287003  1
  H+  H306  1  0.42595951  0.33258131  0.27471818  1
  H+  H307  1  0.67538776  0.08759340  0.60561865  1
  H+  H308  1  0.08506099  0.90906683  0.06985838  1
  H+  H309  1  0.37241905  0.57119207  0.88328949  1
  H+  H310  1  0.63962459  0.11555979  0.51203580  1
  H+  H311  1  0.66571356  0.32506779  0.93472005  1
  H+  H312  1  0.66848032  0.59639885  0.56999161  1
  H+  H313  1  0.37703648  1.00905935  -0.01457607  1
  H+  H314  1  0.07666827  0.66203441  0.40063781  1
  H+  H315  1  0.57984867  0.41463877  0.73562551  1
  H+  H316  1  0.82981743  0.41842683  0.76271498  1
  H+  H317  1  0.32319197  0.15374910  0.06232280  1
  H+  H318  1  0.23552619  0.51983553  0.61559347  1
  H+  H319  1  0.66642973  0.18527746  0.06649824  1
  H+  H320  1  0.67005416  0.33739717  0.57945287  1
  H+  H321  1  0.14271749  0.33210749  0.21870758  1
  H+  H322  1  0.90880810  0.08352437  0.26476302  1
  H+  H323  1  0.40103345  0.82672757  0.60300790  1
  H+  H324  1  0.34254327  0.39625811  0.10276892  1
  H+  H325  1  0.19115589  0.07756672  0.58265783  1
  H+  H326  1  0.85196925  0.18330585  0.76645691  1
  H+  H327  1  0.32856288  0.15763892  0.42635794  1
  H+  H328  1  0.15997572  0.81124734  0.94201371  1
  H+  H329  1  0.32948249  0.90962289  0.06593602  1
  H+  H330  1  0.98042183  0.60934039  0.67324000  1
  H+  H331  1  0.07816270  0.42364885  0.09093354  1
  H+  H332  1  0.52136061  0.87547807  0.00761063  1
  H+  H333  1  0.34642812  0.91805952  0.74054436  1
  H+  H334  1  0.58135118  0.91277243  0.73168591  1
  H+  H335  1  0.68336103  0.84364722  0.56952043  1
  H+  H336  1  0.89373780  0.57538561  0.57560061  1
  H+  H337  1  0.09053915  0.42823081  0.39437390  1
  H+  H338  1  0.41289726  0.82682811  0.93378249  1
  H+  H339  1  0.97767446  0.86148528  0.50716589  1
  H+  H340  1  0.77953720  0.88831042  0.49371693  1
  H+  H341  1  0.06300721  0.61587101  0.70341205  1
  H+  H342  1  0.20195191  0.74279373  0.86059914  1
  H+  H343  1  0.83604640  0.91353564  0.41118208  1
  H+  H344  1  0.58633736  0.67048364  0.73538980  1
  H+  H345  1  0.87679231  0.52393593  0.17418337  1
  H+  H346  1  0.17594211  0.33704412  0.57986493  1
  H+  H347  1  0.92179776  0.33310412  0.59950351  1
  H+  H348  1  0.40071338  0.56182461  0.22648655  1
  H+  H349  1  0.83975209  0.92608053  0.76782038  1
  H+  H350  1  0.07408092  0.16390267  0.06716510  1
  H+  H351  1  0.26549299  0.07019430  0.76221972  1
  H+  H352  1  0.44378621  0.58162202  0.95276087  1
  H+  H353  1  0.15173003  0.06841854  0.94271450  1
  H+  H354  1  0.56992607  0.15432560  0.40009648  1
  H+  H355  1  0.32525983  0.64978586  0.05321280  1
  H+  H356  1  0.91392367  0.59271735  0.26875365  1
  H+  H357  1  0.15444029  0.07824533  0.23892069  1
  H+  H358  1  0.83093880  0.15043289  0.04449735  1
  H+  H359  1  0.34767979  0.20724357  0.34495847  1
  H+  H360  1  0.65021034  0.62903697  0.98970997  1
  H+  H361  1  0.40989929  0.32000219  0.56333969  1
  H+  H362  1  0.82905653  0.67542701  0.42971062  1
  H+  H363  1  0.10518211  0.12853202  0.15642443  1
  H+  H364  1  0.83697209  0.41197738  0.41623169  1
  H+  H365  1  0.39399540  0.06350333  0.89148266  1
  H+  H366  1  0.22967216  0.35882745  0.66790268  1
  H+  H367  1  0.37471562  0.02093348  0.32646327  1
  H+  H368  1  0.16552603  0.58644147  0.22709162  1
  H+  H369  1  0.41988055  0.58518709  0.57398870  1
  H+  H370  1  0.10988772  0.64402927  0.33719061  1
  H+  H371  1  0.63274086  0.23442405  0.68569508  1
  H+  H372  1  0.07734533  0.19088240  0.39130378  1
  H+  H373  1  0.15689320  0.94347391  0.80025764  1
  H+  H374  1  0.10775037  0.89235070  0.34085288  1
  H+  H375  1  0.18265211  0.82324382  0.56979814  1
  H+  H376  1  0.59692270  0.92988723  0.44281665  1
  H+  H377  1  0.07098363  0.65791428  0.07649753  1
  H+  H378  1  0.39025785  0.67815485  0.40527783  1
  H+  H379  1  0.67650111  0.58916663  0.89313831  1
  H+  H380  1  0.84087220  0.92760271  0.08513731  1
  H+  H381  1  0.41379751  0.08886715  0.56563732  1
  H+  H382  1  0.58180238  0.40858417  0.06407169  1
  H+  H383  1  0.94463082  0.86324326  0.93457557  1
  O2-  O384  1  0.07542976  0.15695363  0.13629749  1
  O2-  O385  1  0.05702134  0.22738814  0.46081924  1
  O2-  O386  1  0.08722716  0.17442766  0.80909978  1
  O2-  O387  1  0.07637111  0.42148359  0.13599742  1
  O2-  O388  1  0.06667750  0.38341744  0.47126270  1
  O2-  O389  1  0.08611739  0.41833538  0.82370278  1
  O2-  O390  1  0.07680534  0.66586449  0.15425789  1
  O2-  O391  1  0.06837775  0.64563275  0.48059713  1
  O2-  O392  1  0.10800660  0.74712936  0.81990581  1
  O2-  O393  1  0.07646130  0.91120094  0.15025379  1
  O2-  O394  1  0.08201849  0.90536276  0.48103662  1
  O2-  O395  1  0.09900666  0.89073706  0.79582803  1
  O2-  O396  1  0.30158863  0.14546410  0.14286450  1
  O2-  O397  1  0.34132663  0.16674660  0.47364420  1
  O2-  O398  1  0.24791002  0.04298327  0.80238533  1
  O2-  O399  1  0.35331822  0.39889993  0.14721346  1
  O2-  O400  1  0.34589973  0.42486801  0.48690887  1
  O2-  O401  1  0.32909138  0.41742212  0.80848796  1
  O2-  O402  1  0.32295621  0.64796037  0.12979077  1
  O2-  O403  1  0.33933017  0.66283007  0.47623007  1
  O2-  O404  1  0.33148432  0.67347687  0.81244905  1
  O2-  O405  1  0.32315348  0.91632085  0.14444942  1
  O2-  O406  1  0.34562154  0.93816120  0.47341395  1
  O2-  O407  1  0.34455726  0.90948130  0.80815842  1
  O2-  O408  1  0.73334284  0.19463389  0.13448706  1
  O2-  O409  1  0.58651622  0.16642179  0.48429144  1
  O2-  O410  1  0.56624501  0.16189116  0.81970958  1
  O2-  O411  1  0.60482650  0.44257064  0.14649068  1
  O2-  O412  1  0.56924368  0.39913133  0.47461461  1
  O2-  O413  1  0.57982588  0.41555044  0.81257022  1
  O2-  O414  1  0.57826992  0.66612855  0.15480962  1
  O2-  O415  1  0.58743428  0.68045052  0.48756085  1
  O2-  O416  1  0.58758549  0.66596656  0.81473199  1
  O2-  O417  1  0.58790586  0.91011287  0.14742398  1
  O2-  O418  1  0.59929909  0.93232334  0.48848778  1
  O2-  O419  1  0.56887734  0.90139130  0.80788695  1
  O2-  O420  1  0.87231117  0.19156576  0.12537266  1
  O2-  O421  1  0.82765454  0.16678489  0.47848214  1
  O2-  O422  1  0.85695228  0.18429704  0.81146741  1
  O2-  O423  1  0.82928910  0.41407517  0.14561288  1
  O2-  O424  1  0.82982569  0.40121561  0.46281261  1
  O2-  O425  1  0.82039959  0.42583011  0.80642761  1
  O2-  O426  1  0.83725629  0.67767904  0.14693187  1
  O2-  O427  1  0.83268355  0.67436248  0.47503078  1
  O2-  O428  1  0.81631144  0.58247691  0.80111049  1
  O2-  O429  1  0.83031600  0.92736007  0.13116286  1
  O2-  O430  1  0.83916246  0.91789957  0.47382121  1
  O2-  O431  1  0.84002006  0.92877887  0.81334188  1
  O2-  O432  1  0.14559412  0.07312958  0.19337195  1
  O2-  O433  1  0.20670155  0.06194402  0.54265633  1
  O2-  O434  1  0.12935000  0.06760478  0.86502984  1
  O2-  O435  1  0.14142453  0.33285091  0.17257369  1
  O2-  O436  1  0.18220331  0.34436682  0.53411945  1
  O2-  O437  1  0.16792105  0.33092294  0.85825006  1
  O2-  O438  1  0.16374299  0.58437306  0.18159095  1
  O2-  O439  1  0.15940066  0.56223584  0.50745448  1
  O2-  O440  1  0.21128999  0.54860297  0.87955344  1
  O2-  O441  1  0.15988669  0.82987391  0.19505489  1
  O2-  O442  1  0.17938053  0.80678097  0.52508323  1
  O2-  O443  1  0.17731053  0.78046777  0.86509685  1
  O2-  O444  1  0.37548201  0.07559322  0.19360875  1
  O2-  O445  1  0.42466608  0.09236118  0.52024925  1
  O2-  O446  1  0.39171728  0.06305173  0.84544124  1
  O2-  O447  1  0.44795873  0.34694813  0.19278990  1
  O2-  O448  1  0.40822574  0.32322975  0.51829899  1
  O2-  O449  1  0.42139473  0.33960915  0.85200115  1
  O2-  O450  1  0.40351576  0.56578167  0.18099626  1
  O2-  O451  1  0.42130679  0.58727348  0.52861298  1
  O2-  O452  1  0.40651006  0.58815656  0.84603139  1
  O2-  O453  1  0.40442722  0.82621352  0.15019688  1
  O2-  O454  1  0.34132419  0.80340225  0.53403895  1
  O2-  O455  1  0.40555510  0.82623465  0.85641574  1
  O2-  O456  1  0.63271525  0.06815753  0.19477907  1
  O2-  O457  1  0.67408027  0.08951068  0.52697168  1
  O2-  O458  1  0.63016573  0.05514835  0.85018132  1
  O2-  O459  1  0.67068393  0.34439132  0.18955304  1
  O2-  O460  1  0.67125782  0.33842765  0.53343643  1
  O2-  O461  1  0.65426026  0.32447099  0.85650157  1
  O2-  O462  1  0.67396238  0.59918192  0.19147856  1
  O2-  O463  1  0.66844954  0.60527848  0.52541721  1
  O2-  O464  1  0.67273883  0.58174552  0.84748596  1
  O2-  O465  1  0.66723630  0.81802624  0.20181781  1
  O2-  O466  1  0.68660861  0.84426951  0.52400874  1
  O2-  O467  1  0.67062764  0.83305001  0.85698182  1
  O2-  O468  1  0.91585955  0.08579650  0.18571593  1
  O2-  O469  1  0.91733887  0.09371049  0.51714972  1
  O2-  O470  1  0.92515091  0.09631543  0.85097192  1
  O2-  O471  1  0.92881882  0.35142290  0.18997541  1
  O2-  O472  1  0.91282234  0.32790320  0.51990070  1
  O2-  O473  1  0.92069361  0.35415825  0.85512341  1
  O2-  O474  1  0.90777038  0.58337652  0.19059094  1
  O2-  O475  1  0.89782590  0.56826432  0.50153158  1
  O2-  O476  1  0.95852885  0.61466784  0.86141633  1
  O2-  O477  1  0.90657861  0.83829702  0.19054334  1
  O2-  O478  1  0.91608972  0.83580940  0.51969369  1
  O2-  O479  1  0.97864893  0.91646668  0.86217425  1
  O2-  O480  1  0.16661509  0.08152139  0.31639968  1
  O2-  O481  1  0.17462962  0.10078036  0.65421976  1
  O2-  O482  1  0.15941159  0.06302305  0.98680431  1
  O2-  O483  1  0.14521109  0.33285913  0.29082743  1
  O2-  O484  1  0.16849654  0.33059578  0.65380023  1
  O2-  O485  1  0.16005810  0.32398723  0.98007278  1
  O2-  O486  1  0.16917164  0.60713522  0.30396131  1
  O2-  O487  1  0.19781273  0.54264078  0.62538358  1
  O2-  O488  1  0.18488381  0.56502862  0.93934309  1
  O2-  O489  1  0.15808547  0.83813480  0.31778335  1
  O2-  O490  1  0.19767177  0.85084041  0.63999373  1
  O2-  O491  1  0.16186693  0.81777963  0.98647990  1
  O2-  O492  1  0.40157887  0.08196042  0.31378079  1
  O2-  O493  1  0.39936249  0.08090818  0.63916545  1
  O2-  O494  1  0.40171967  0.06593652  0.96549899  1
  O2-  O495  1  0.42044041  0.32835534  0.31942067  1
  O2-  O496  1  0.41540321  0.32908149  0.64453206  1
  O2-  O497  1  0.40936051  0.31792218  0.97666513  1
  O2-  O498  1  0.40812406  0.55653931  0.30373967  1
  O2-  O499  1  0.41949481  0.58400030  0.65301676  1
  O2-  O500  1  0.42699190  0.57910633  0.99510181  1
  O2-  O501  1  0.32180111  0.74956496  0.31060740  1
  O2-  O502  1  0.42323887  0.83473686  0.64547562  1
  O2-  O503  1  0.41590843  0.82234067  0.97927431  1
  O2-  O504  1  0.65849260  0.08438910  0.31351450  1
  O2-  O505  1  0.67967854  0.08819166  0.65101904  1
  O2-  O506  1  0.66910455  0.06851095  0.97277729  1
  O2-  O507  1  0.68809820  0.36074449  0.31686412  1
  O2-  O508  1  0.67774252  0.34677753  0.65422226  1
  O2-  O509  1  0.66841155  0.32413012  0.98014783  1
  O2-  O510  1  0.66025427  0.59579813  0.31646974  1
  O2-  O511  1  0.66006390  0.57948152  0.64999144  1
  O2-  O512  1  0.68302469  0.60786417  0.96682489  1
  O2-  O513  1  0.68313181  0.83743430  0.32538798  1
  O2-  O514  1  0.67217662  0.83911625  0.64753806  1
  O2-  O515  1  0.67385784  0.83443560  0.97997426  1
  O2-  O516  1  0.90926326  0.08711194  0.31010126  1
  O2-  O517  1  0.92341511  0.08939628  0.64347297  1
  O2-  O518  1  0.92716135  0.08730174  0.96940447  1
  O2-  O519  1  0.92577771  0.34603606  0.31446275  1
  O2-  O520  1  0.92558464  0.33532786  0.64477473  1
  O2-  O521  1  0.91288676  0.33091582  0.97529656  1
  O2-  O522  1  0.91392739  0.59597665  0.31417760  1
  O2-  O523  1  0.89233714  0.57861435  0.62128573  1
  O2-  O524  1  0.91407401  0.58274514  0.98786862  1
  O2-  O525  1  0.91869851  0.84860899  0.31443465  1
  O2-  O526  1  0.90079867  0.82855813  0.64531994  1
  O2-  O527  1  0.93111775  0.84616963  0.97811242  1
  O2-  O528  1  0.07327733  0.17180431  0.02046911  1
  O2-  O529  1  0.08154819  0.17421368  0.34885445  1
  O2-  O530  1  0.09186324  0.17121460  0.68793540  1
  O2-  O531  1  0.08243271  0.41427795  0.00783159  1
  O2-  O532  1  0.09540148  0.44197809  0.35048862  1
  O2-  O533  1  0.08801667  0.41330793  0.69454655  1
  O2-  O534  1  0.06715268  0.65282177  0.03132651  1
  O2-  O535  1  0.07664821  0.66983997  0.35579391  1
  O2-  O536  1  0.00223810  0.59460574  0.71016401  1
  O2-  O537  1  0.08594001  0.90664875  0.02463568  1
  O2-  O538  1  0.07737724  0.92244188  0.35689641  1
  O2-  O539  1  0.05967630  0.87172814  0.68042322  1
  O2-  O540  1  0.32660203  0.15363903  0.01734309  1
  O2-  O541  1  0.31526026  0.14751880  0.35948625  1
  O2-  O542  1  0.32075232  0.16782238  0.69873961  1
  O2-  O543  1  0.32951502  0.40329725  0.02419991  1
  O2-  O544  1  0.34128847  0.41411509  0.35985986  1
  O2-  O545  1  0.33611925  0.41515047  0.68690820  1
  O2-  O546  1  0.33479120  0.65345746  0.00786219  1
  O2-  O547  1  0.42275934  0.69167240  0.36625781  1
  O2-  O548  1  0.33853417  0.66894555  0.69215720  1
  O2-  O549  1  0.33162108  0.90283573  0.02086020  1
  O2-  O550  1  0.32918856  0.90788100  0.34903539  1
  O2-  O551  1  0.34730092  0.92383302  0.69294011  1
  O2-  O552  1  0.62960086  0.16985232  0.03023102  1
  O2-  O553  1  0.56845991  0.14950089  0.35538244  1
  O2-  O554  1  0.60501159  0.17616067  0.70276350  1
  O2-  O555  1  0.56611023  0.38802858  0.02199058  1
  O2-  O556  1  0.58718563  0.42114008  0.35778694  1
  O2-  O557  1  0.58189337  0.41372059  0.68981679  1
  O2-  O558  1  0.59422073  0.67685588  0.03418333  1
  O2-  O559  1  0.57284253  0.68928190  0.37005026  1
  O2-  O560  1  0.58677666  0.67211410  0.68999202  1
  O2-  O561  1  0.58171627  0.90707168  0.02353947  1
  O2-  O562  1  0.59531085  0.92690324  0.36674375  1
  O2-  O563  1  0.58914592  0.91873151  0.68619955  1
  O2-  O564  1  0.82995217  0.15326750  -0.00010537  1
  O2-  O565  1  0.83074120  0.17688991  0.35367308  1
  O2-  O566  1  0.84458126  0.17566189  0.68594702  1
  O2-  O567  1  0.83488685  0.41681508  0.02360321  1
  O2-  O568  1  0.84420635  0.42996192  0.34851925  1
  O2-  O569  1  0.86808626  0.43488495  0.68811512  1
  O2-  O570  1  0.84320440  0.67935129  0.02355011  1
  O2-  O571  1  0.82863007  0.67772397  0.35094487  1
  O2-  O572  1  0.82734268  0.65983789  0.68673249  1
  O2-  O573  1  0.84641012  0.92384930  0.01413220  1
  O2-  O574  1  0.83474183  0.91340945  0.36128295  1
  O2-  O575  1  0.83542568  0.92575046  0.68917545  1
