# generated using pymatgen
data_H2O
_symmetry_space_group_name_H-M   'P 1'
_cell_length_a   17.99319490
_cell_length_b   17.99453380
_cell_length_c   22.00494743
_cell_angle_alpha   89.99990680
_cell_angle_beta   89.97965994
_cell_angle_gamma   119.97694047
_symmetry_Int_Tables_number   1
_chemical_formula_structural   H2O
_chemical_formula_sum   'H384 O192'
_cell_volume   6171.64136617
_cell_formula_units_Z   192
loop_
 _symmetry_equiv_pos_site_id
 _symmetry_equiv_pos_as_xyz
  1  'x, y, z'
loop_
 _atom_type_symbol
 _atom_type_oxidation_number
  H+  1.0
  O2-  -2.0
loop_
 _atom_site_type_symbol
 _atom_site_label
 _atom_site_symmetry_multiplicity
 _atom_site_fract_x
 _atom_site_fract_y
 _atom_site_fract_z
 _atom_site_occupancy
  H+  H0  1  0.86687667  0.39992128  0.34839039  1
  H+  H1  1  0.47000753  0.36160317  0.16177176  1
  H+  H2  1  0.37651779  0.73503282  0.33022817  1
  H+  H3  1  0.33490690  0.16024762  0.06420245  1
  H+  H4  1  0.35748878  0.47229465  0.81983621  1
  H+  H5  1  -0.00986262  0.87774731  0.65582635  1
  H+  H6  1  0.30249524  0.69582987  0.03889842  1
  H+  H7  1  0.37643834  0.62250908  0.47990589  1
  H+  H8  1  0.72269109  0.60527509  0.17063723  1
  H+  H9  1  0.12509595  0.15132828  0.00995047  1
  H+  H10  1  0.65298612  0.02700539  0.66128408  1
  H+  H11  1  0.63530048  0.36094631  0.99115328  1
  H+  H12  1  0.64041221  0.53017995  0.85223149  1
  H+  H13  1  0.89628312  0.83766204  0.98451302  1
  H+  H14  1  0.13843631  0.24866597  0.83907828  1
  H+  H15  1  0.22426283  0.11223831  0.32932166  1
  H+  H16  1  0.76513461  0.88826433  0.17502668  1
  H+  H17  1  0.36046595  0.20890752  0.66792104  1
  H+  H18  1  0.10623628  0.85589126  0.81528231  1
  H+  H19  1  0.52564918  0.63780184  0.16507949  1
  H+  H20  1  0.53062734  0.63662369  0.33569778  1
  H+  H21  1  0.66333709  0.77688779  0.66219519  1
  H+  H22  1  0.62030879  0.22666051  0.00069004  1
  H+  H23  1  0.38603534  0.36110128  0.82045910  1
  H+  H24  1  0.65174662  0.37642027  0.33482217  1
  H+  H25  1  -0.01304399  0.63291250  0.33713672  1
  H+  H26  1  0.18554862  0.83577445  0.60596169  1
  H+  H27  1  0.86395368  0.98104492  0.34494144  1
  H+  H28  1  0.39894481  0.02983451  0.65353848  1
  H+  H29  1  0.61749248  0.89128593  0.33689841  1
  H+  H30  1  0.62056238  0.22832447  0.82734950  1
  H+  H31  1  0.65502467  0.89527911  0.67704550  1
  H+  H32  1  0.84891078  0.71299036  0.50153235  1
  H+  H33  1  0.22327175  0.87403619  0.16787416  1
  H+  H34  1  0.86540107  0.13476287  0.82418497  1
  H+  H35  1  0.72674667  0.36472978  0.99151827  1
  H+  H36  1  0.70441144  0.33600658  0.49398796  1
  H+  H37  1  0.66744120  0.29069321  0.55484461  1
  H+  H38  1  0.64741086  0.28517106  0.17436594  1
  H+  H39  1  0.19153269  0.60304834  0.71686216  1
  H+  H40  1  0.36073708  0.12985867  0.15602049  1
  H+  H41  1  0.09378632  0.46586165  0.49145696  1
  H+  H42  1  0.53741585  0.89022915  0.48772711  1
  H+  H43  1  0.14607180  0.77818473  0.97688882  1
  H+  H44  1  0.73867515  0.37681314  0.33145587  1
  H+  H45  1  0.37260814  0.35749282  0.31873202  1
  H+  H46  1  0.40212679  0.79529244  0.14896037  1
  H+  H47  1  0.63793887  0.85958335  0.83977163  1
  H+  H48  1  0.27617518  0.39281585  1.00746182  1
  H+  H49  1  0.66873434  0.83503043  0.23911452  1
  H+  H50  1  0.20949461  0.57803018  1.03005734  1
  H+  H51  1  0.10951799  0.45794562  0.16417790  1
  H+  H52  1  0.89210307  0.89007688  0.19140188  1
  H+  H53  1  0.64169239  0.11409339  0.98716202  1
  H+  H54  1  -0.03437310  0.60320556  0.82665483  1
  H+  H55  1  0.86509263  0.87957574  0.85291627  1
  H+  H56  1  0.37944913  0.23089388  0.48661739  1
  H+  H57  1  0.97616359  0.12193107  0.17501575  1
  H+  H58  1  0.28138995  0.89277112  0.99396787  1
  H+  H59  1  0.86061452  0.22806207  0.33663675  1
  H+  H60  1  0.87696860  0.68805092  0.15233738  1
  H+  H61  1  0.32703128  0.41265962  0.54431529  1
  H+  H62  1  0.38579904  0.02370639  0.32652859  1
  H+  H63  1  0.41146761  0.59645295  0.68420494  1
  H+  H64  1  0.88052456  0.35925120  0.16713942  1
  H+  H65  1  0.64564749  0.64892717  0.67390988  1
  H+  H66  1  0.08994585  0.37582265  0.49074422  1
  H+  H67  1  0.64503879  0.03318359  0.17471774  1
  H+  H68  1  0.39049409  0.80923191  0.48840739  1
  H+  H69  1  0.54204414  0.41928518  0.51112459  1
  H+  H70  1  0.36084613  0.97854083  0.15558883  1
  H+  H71  1  0.42498782  0.84480725  0.90656820  1
  H+  H72  1  0.77513212  0.88059826  0.85520891  1
  H+  H73  1  0.86943102  0.49042067  0.34977271  1
  H+  H74  1  0.53895090  0.90597066  0.15948587  1
  H+  H75  1  0.11471127  0.75615207  0.15023632  1
  H+  H76  1  0.35725090  0.22170765  0.33589133  1
  H+  H77  1  0.22661073  0.36255091  0.17162653  1
  H+  H78  1  0.78278897  0.14464815  -0.00206713  1
  H+  H79  1  0.90791876  0.25494581  0.65407959  1
  H+  H80  1  0.62806351  0.15133079  0.15849603  1
  H+  H81  1  0.26544073  0.11269418  0.15355799  1
  H+  H82  1  0.61301890  0.57682133  0.50341381  1
  H+  H83  1  0.11545684  0.88788975  0.66770904  1
  H+  H84  1  0.97965768  0.86281630  0.49926844  1
  H+  H85  1  0.37460408  0.14983917  0.00181514  1
  H+  H86  1  0.86007188  0.23268223  0.17204925  1
  H+  H87  1  0.52532519  0.38834923  0.83192185  1
  H+  H88  1  0.88486911  1.03382950  0.17859957  1
  H+  H89  1  0.66109219  1.07790790  0.56550203  1
  H+  H90  1  0.38840887  0.52240773  0.32882192  1
  H+  H91  1  0.36954825  0.45451500  0.67834415  1
  H+  H92  1  0.88737956  1.12923782  0.54488203  1
  H+  H93  1  0.42317481  0.32614612  0.77177351  1
  H+  H94  1  0.86380541  0.47447860  -0.00249498  1
  H+  H95  1  0.02324047  0.13465235  0.81776167  1
  H+  H96  1  0.85597848  0.39135992  0.50454914  1
  H+  H97  1  0.27498941  0.88564695  0.33285211  1
  H+  H98  1  0.34483074  0.62287115  0.91584824  1
  H+  H99  1  0.10931226  0.47185312  0.33015607  1
  H+  H100  1  0.78951525  0.88877158  0.66202987  1
  H+  H101  1  0.85643424  0.62981362  0.81675944  1
  H+  H102  1  0.63404958  0.11705704  0.32439232  1
  H+  H103  1  0.38705544  0.62687767  0.01541259  1
  H+  H104  1  0.88345661  0.87345284  0.34453287  1
  H+  H105  1  0.68664542  0.55548635  0.65705281  1
  H+  H106  1  0.13623154  0.26813903  0.32898112  1
  H+  H107  1  0.64693259  0.33411307  0.63838681  1
  H+  H108  1  0.27257557  0.37692254  0.82943939  1
  H+  H109  1  1.01312091  0.86421592  0.81746220  1
  H+  H110  1  0.61724886  0.23063422  0.33589225  1
  H+  H111  1  0.96684157  0.54047772  0.21290646  1
  H+  H112  1  0.77422854  0.13839406  0.33202683  1
  H+  H113  1  0.11686421  0.97115019  0.49908115  1
  H+  H114  1  0.87072559  0.75186285  0.34135903  1
  H+  H115  1  0.39463722  0.61455343  0.32739638  1
  H+  H116  1  0.84920939  0.62968066  0.51887842  1
  H+  H117  1  0.76267751  0.13559150  0.17515093  1
  H+  H118  1  0.08500254  0.40421436  0.73245112  1
  H+  H119  1  0.33671271  0.16609602  0.39737128  1
  H+  H120  1  0.13917787  0.51912522  0.67770907  1
  H+  H121  1  0.87659598  0.65697396  0.33963256  1
  H+  H122  1  0.11785791  0.97906638  0.34129447  1
  H+  H123  1  0.63610936  0.46361320  0.43209889  1
  H+  H124  1  0.13157137  0.77630285  0.66152525  1
  H+  H125  1  0.11887557  0.97999446  0.67185613  1
  H+  H126  1  0.61683152  0.76322785  -0.00264907  1
  H+  H127  1  -0.11192137  0.89662163  0.65843584  1
  H+  H128  1  0.22989573  0.10380568  0.66210947  1
  H+  H129  1  0.65102919  0.25099228  0.66230071  1
  H+  H130  1  0.48851322  0.11644504  0.83696529  1
  H+  H131  1  0.80243564  0.66070680  0.65509864  1
  H+  H132  1  0.39436584  0.10952886  0.83552849  1
  H+  H133  1  0.88732420  0.61059729  0.63653083  1
  H+  H134  1  0.13882063  0.86595472  0.32712508  1
  H+  H135  1  0.12726172  0.24292616  1.01326816  1
  H+  H136  1  0.67390865  0.33074698  0.90026181  1
  H+  H137  1  0.96974663  0.36754149  0.32308636  1
  H+  H138  1  0.17309311  0.08020269  0.60187530  1
  H+  H139  1  0.16733270  0.09037535  0.93733574  1
  H+  H140  1  0.44060480  0.86618557  0.64855030  1
  H+  H141  1  0.13103209  0.37044301  -0.00346425  1
  H+  H142  1  0.65201128  0.82122943  0.90128787  1
  H+  H143  1  0.26501510  0.37970869  0.33735715  1
  H+  H144  1  0.34499260  0.69173615  0.19336409  1
  H+  H145  1  0.64230626  0.02441370  0.83606083  1
  H+  H146  1  0.37081532  0.12670424  0.66663343  1
  H+  H147  1  0.40074433  0.88151499  -0.00223733  1
  H+  H148  1  0.85306147  0.47188886  0.66063060  1
  H+  H149  1  0.47414957  0.03792447  0.20483775  1
  H+  H150  1  0.52787414  0.88580546  0.82522706  1
  H+  H151  1  0.46826637  0.33682525  0.64023006  1
  H+  H152  1  0.52878030  0.13342690  0.67264475  1
  H+  H153  1  0.48433267  0.86824037  0.32020269  1
  H+  H154  1  0.03848062  0.37686783  0.66706667  1
  H+  H155  1  0.88639898  0.11730188  0.33047289  1
  H+  H156  1  0.59965743  0.41297524  0.58947349  1
  H+  H157  1  0.35960110  0.20850266  0.82080478  1
  H+  H158  1  0.86332791  0.22343501  0.82450805  1
  H+  H159  1  0.31686266  0.68109790  0.52881270  1
  H+  H160  1  0.71096134  0.84339759  0.98730843  1
  H+  H161  1  0.11617865  0.60611915  0.50894833  1
  H+  H162  1  0.55333751  0.63919784  0.67872910  1
  H+  H163  1  0.64700359  0.77036316  0.50675596  1
  H+  H164  1  0.62131112  0.13895520  0.82633873  1
  H+  H165  1  0.77379330  0.13076140  0.50273965  1
  H+  H166  1  0.23352108  0.62185072  0.33105151  1
  H+  H167  1  0.02052882  0.13509741  0.34228084  1
  H+  H168  1  0.38471674  0.26951486  0.00704952  1
  H+  H169  1  0.77146441  0.38286782  0.81925850  1
  H+  H170  1  0.83172158  0.89731970  -0.06093315  1
  H+  H171  1  0.25898599  0.89329165  0.68683870  1
  H+  H172  1  0.63910773  0.10884490  0.66199565  1
  H+  H173  1  0.11779223  0.73331038  0.34247908  1
  H+  H174  1  0.87178250  0.98503830  0.64805591  1
  H+  H175  1  0.76126565  0.36671530  0.66456810  1
  H+  H176  1  0.14011402  0.12024695  0.17614161  1
  H+  H177  1  0.35221228  0.66837358  0.62502634  1
  H+  H178  1  0.23650822  0.59497418  0.17836019  1
  H+  H179  1  0.89175493  0.80360604  0.19463435  1
  H+  H180  1  0.39182631  0.60912838  0.80331683  1
  H+  H181  1  0.54087869  0.15235101  0.15700374  1
  H+  H182  1  0.38472345  0.60681417  0.17581168  1
  H+  H183  1  0.13428577  0.11165413  0.32961422  1
  H+  H184  1  0.10042062  0.36399339  0.82923970  1
  H+  H185  1  0.13362633  0.35495105  0.17344885  1
  H+  H186  1  0.77363415  0.39122780  0.15748217  1
  H+  H187  1  0.97894963  0.60842404  0.97958877  1
  H+  H188  1  0.62419314  0.90141308  0.16768386  1
  H+  H189  1  0.12105285  0.75436649  0.82391422  1
  H+  H190  1  0.68412989  0.83191133  0.59950081  1
  H+  H191  1  0.38215040  0.77327523  0.85809054  1
  H+  H192  1  0.25543968  0.64301074  0.62990800  1
  H+  H193  1  0.53230599  0.90190932  -0.00147693  1
  H+  H194  1  0.88560619  0.36049447  0.83124423  1
  H+  H195  1  0.56551137  0.88440383  0.66908166  1
  H+  H196  1  0.34610974  0.89531157  0.67575477  1
  H+  H197  1  -0.00908796  0.85092373  -0.00739752  1
  H+  H198  1  0.12044871  0.64223177  0.00201141  1
  H+  H199  1  0.87033611  0.88991478  0.48872783  1
  H+  H200  1  0.11411701  0.22076308  0.66823492  1
  H+  H201  1  0.59835139  0.66834512  0.77029829  1
  H+  H202  1  0.86281158  0.13938794  0.17402516  1
  H+  H203  1  0.65692338  0.53641377  0.33460656  1
  H+  H204  1  0.47452612  0.60921295  0.82641779  1
  H+  H205  1  0.22981794  0.12068167  0.99501888  1
  H+  H206  1  0.03027942  0.90578725  0.16464411  1
  H+  H207  1  0.12073529  0.50040836  0.83159659  1
  H+  H208  1  0.96260981  0.36181664  0.49990687  1
  H+  H209  1  0.11636682  0.64342099  0.34452686  1
  H+  H210  1  0.60989736  0.47501785  0.15876655  1
  H+  H211  1  0.02915820  0.89153503  0.34891779  1
  H+  H212  1  0.22961140  0.35449930  0.65441018  1
  H+  H213  1  0.25547198  0.64634102  0.47530376  1
  H+  H214  1  0.63091735  -0.00488984  0.99037811  1
  H+  H215  1  0.91558755  0.06166387  0.99068120  1
  H+  H216  1  0.20581390  0.35161757  0.49780643  1
  H+  H217  1  0.77151133  0.63648860  0.82019204  1
  H+  H218  1  0.63802484  0.61469709  0.17379888  1
  H+  H219  1  0.38334642  0.11232187  0.32506424  1
  H+  H220  1  0.00140721  0.62203294  0.17100263  1
  H+  H221  1  0.38549171  -0.00745174  0.82791904  1
  H+  H222  1  0.88300787  0.36417090  0.98539871  1
  H+  H223  1  0.38765719  0.98167906  0.48834353  1
  H+  H224  1  0.87686087  0.15714322  0.99862736  1
  H+  H225  1  0.02403013  0.65007837  0.50191566  1
  H+  H226  1  0.93009567  0.60432427  0.27692745  1
  H+  H227  1  0.14821888  0.11211272  0.50810440  1
  H+  H228  1  0.11315115  0.22697885  0.16571429  1
  H+  H229  1  0.10313103  0.21267194  0.49631938  1
  H+  H230  1  0.78316028  0.89131718  0.49415743  1
  H+  H231  1  0.38662408  0.87297042  0.16024140  1
  H+  H232  1  0.83443531  0.64226529  1.05887589  1
  H+  H233  1  0.90139418  0.78816122  0.65613027  1
  H+  H234  1  0.85997612  0.10095187  0.64868744  1
  H+  H235  1  0.62060117  0.89101518  -0.00411273  1
  H+  H236  1  0.85885309  0.47360557  0.81757772  1
  H+  H237  1  0.60305177  0.63421214  1.00916747  1
  H+  H238  1  0.73274872  0.11328626  0.83479754  1
  H+  H239  1  0.87614252  0.51648396  0.53885528  1
  H+  H240  1  0.85630157  0.59490727  0.15869037  1
  H+  H241  1  0.58709738  0.16223637  0.73466483  1
  H+  H242  1  0.60769866  0.47460413  0.00576646  1
  H+  H243  1  0.40363059  0.36994800  0.49830284  1
  H+  H244  1  0.92155296  0.85214275  0.28502845  1
  H+  H245  1  0.01276227  0.36721195  0.82588360  1
  H+  H246  1  0.52744234  0.14341303  0.33637696  1
  H+  H247  1  0.09774850  0.47101217  0.00643102  1
  H+  H248  1  0.64044611  0.36122809  0.84491006  1
  H+  H249  1  0.55980880  0.41156982  0.38935478  1
  H+  H250  1  0.48440971  0.11823348  -0.00789038  1
  H+  H251  1  0.00916403  0.38185002  0.00213182  1
  H+  H252  1  0.86770052  0.47410059  0.15234276  1
  H+  H253  1  0.88473294  0.76220187  0.83347324  1
  H+  H254  1  0.36791711  0.98479361  0.00028241  1
  H+  H255  1  0.09545980  0.61723791  0.80958767  1
  H+  H256  1  0.38288475  0.34329261  0.65497436  1
  H+  H257  1  0.77908455  0.64929447  0.33373946  1
  H+  H258  1  0.45984227  0.35893552  0.30588492  1
  H+  H259  1  0.36290744  0.47769255  0.15905703  1
  H+  H260  1  0.89058142  1.02424623  0.84970098  1
  H+  H261  1  0.26820981  0.61256206  0.87307812  1
  H+  H262  1  0.63886021  0.77648574  0.17799983  1
  H+  H263  1  0.36069105  0.38697966  0.15316091  1
  H+  H264  1  0.85758887  0.22154554  0.50281746  1
  H+  H265  1  0.11941658  0.97986916  0.00516703  1
  H+  H266  1  0.64336245  0.77827748  0.32854256  1
  H+  H267  1  1.00484338  0.14579053  0.99187962  1
  H+  H268  1  0.01372035  0.62908208  0.65307916  1
  H+  H269  1  0.11713222  0.13410451  0.67181165  1
  H+  H270  1  0.36523750  0.88754645  0.33250071  1
  H+  H271  1  0.10254244  0.63222379  0.66667326  1
  H+  H272  1  0.53487114  0.63673113  0.47481616  1
  H+  H273  1  0.61470371  0.38895260  0.15977887  1
  H+  H274  1  0.61239852  0.72341948  0.83028241  1
  H+  H275  1  0.32924552  0.92402606  0.09344555  1
  H+  H276  1  0.62232008  0.64112251  0.33167505  1
  H+  H277  1  0.14799463  0.86713897  0.97923638  1
  H+  H278  1  0.14027643  0.58392425  0.18043542  1
  H+  H279  1  0.63926991  0.61813453  0.84543732  1
  H+  H280  1  0.25634618  0.86735559  0.51664667  1
  H+  H281  1  0.35398220  0.79002546  0.62380106  1
  H+  H282  1  0.10683251  0.38237219  0.32409060  1
  H+  H283  1  0.67422509  0.58121387  0.26710114  1
  H+  H284  1  0.13654725  0.11151327  0.83949907  1
  H+  H285  1  0.63406644  1.02656569  0.32431162  1
  H+  H286  1  0.96889261  0.35655876  0.17329140  1
  H+  H287  1  0.64279989  0.85788930  0.50788131  1
  H+  H288  1  0.66777767  0.09125053  0.23652339  1
  H+  H289  1  0.32534439  0.39246177  0.73317068  1
  H+  H290  1  0.51357174  0.63573884  0.00986141  1
  H+  H291  1  0.86996518  0.71030410  0.00366494  1
  H+  H292  1  0.60381440  0.66717306  0.42471360  1
  H+  H293  1  0.23162931  0.61028981  0.96186516  1
  H+  H294  1  0.09176123  0.91689689  0.43882554  1
  H+  H295  1  0.16011566  0.82245159  0.87965985  1
  H+  H296  1  0.33278403  0.14680000  0.76373366  1
  H+  H297  1  0.07997345  0.15962740  0.40120717  1
  H+  H298  1  0.67097178  0.58648569  0.59402147  1
  H+  H299  1  0.77416857  0.14226614  0.67212635  1
  H+  H300  1  0.47880532  0.36844616  0.00474777  1
  H+  H301  1  0.07738704  0.90207229  0.75449351  1
  H+  H302  1  0.60246103  0.43135871  0.78685713  1
  H+  H303  1  0.40095373  0.32280256  0.21436530  1
  H+  H304  1  0.41978901  0.32793046  0.55620560  1
  H+  H305  1  0.32611404  0.40619025  0.39562054  1
  H+  H306  1  0.66375532  0.58696418  0.93933401  1
  H+  H307  1  0.38985904  0.14970426  0.48548155  1
  H+  H308  1  0.17023583  0.08925401  0.23535791  1
  H+  H309  1  0.38158399  0.66822972  0.72045810  1
  H+  H310  1  0.42862160  0.07891871  0.23998179  1
  H+  H311  1  0.34515383  0.68251943  0.09992775  1
  H+  H312  1  0.83423685  0.92230588  0.40655662  1
  H+  H313  1  0.15723382  0.32487607  0.56100363  1
  H+  H314  1  0.58852104  0.91880511  0.39666002  1
  H+  H315  1  0.58234167  0.41485400  0.06524787  1
  H+  H316  1  0.23814180  0.11328747  0.50805841  1
  H+  H317  1  0.88414039  0.27485472  0.98572349  1
  H+  H318  1  0.67233814  0.08633750  0.92538351  1
  H+  H319  1  0.73213856  0.86878581  0.33152373  1
  H+  H320  1  0.93330813  0.10283533  0.89453205  1
  H+  H321  1  0.08381571  0.16971175  0.10585807  1
  H+  H322  1  0.34059878  0.64725690  0.73921691  1
  H+  H323  1  0.16814362  0.32592089  0.26804840  1
  H+  H324  1  0.92895066  0.81476954  0.89510237  1
  H+  H325  1  0.91336234  0.32825539  0.56188000  1
  H+  H326  1  0.13603853  0.87914882  0.17088841  1
  H+  H327  1  0.83424187  0.16507505  0.73218975  1
  H+  H328  1  0.02336670  0.11917511  0.50087758  1
  H+  H329  1  0.33510306  0.93380171  0.42944760  1
  H+  H330  1  0.82906432  0.41967999  0.72885352  1
  H+  H331  1  0.60396867  0.42156474  0.66151593  1
  H+  H332  1  0.41117823  0.79905051  1.01006187  1
  H+  H333  1  0.07901577  0.67214652  0.44003554  1
  H+  H334  1  0.42072759  0.57870609  0.23268644  1
  H+  H335  1  0.33362177  0.42172494  0.06784428  1
  H+  H336  1  0.91019726  0.57512053  0.88818100  1
  H+  H337  1  0.37820940  0.53593645  0.99944750  1
  H+  H338  1  0.37618481  0.89287348  0.82761394  1
  H+  H339  1  0.16348692  0.83553129  0.26567965  1
  H+  H340  1  0.16998534  0.77594373  0.51944787  1
  H+  H341  1  0.22046631  0.10334104  0.84283017  1
  H+  H342  1  0.17227586  0.58180987  0.27446939  1
  H+  H343  1  0.44050985  0.63241642  0.52979804  1
  H+  H344  1  0.36476747  0.48724385  0.49693390  1
  H+  H345  1  0.16336450  0.33725551  0.93960891  1
  H+  H346  1  0.88749013  0.60362785  0.98281704  1
  H+  H347  1  0.35075047  0.68541331  0.39265466  1
  H+  H348  1  0.85007563  0.92760447  0.00936391  1
  H+  H349  1  0.38226351  0.36698876  1.00600616  1
  H+  H350  1  0.84799132  0.67324824  0.71904254  1
  H+  H351  1  0.67661395  0.34598428  0.23407964  1
  H+  H352  1  0.08641190  0.16629167  0.75837703  1
  H+  H353  1  0.59419028  0.91501981  0.76863545  1
  H+  H354  1  0.58330139  0.66925234  0.10552456  1
  H+  H355  1  0.59536187  0.17028832  0.06078418  1
  H+  H356  1  0.92042358  0.83866209  0.55712612  1
  H+  H357  1  0.42628001  0.09004033  0.93228876  1
  H+  H358  1  0.97631198  0.26549322  0.60695478  1
  H+  H359  1  0.12599267  0.55841655  0.56563402  1
  H+  H360  1  0.43183449  0.56993526  0.62116382  1
  H+  H361  1  0.33823967  0.92409821  0.76441778  1
  H+  H362  1  0.60251618  0.08528666  0.51645030  1
  H+  H363  1  0.83545956  0.43533570  0.44989362  1
  H+  H364  1  0.89982878  0.33748557  0.27214011  1
  H+  H365  1  0.42112242  0.87235431  0.54385833  1
  H+  H366  1  0.12033180  0.99185778  0.16193258  1
  H+  H367  1  0.14646336  0.36467915  0.65721781  1
  H+  H368  1  0.42704701  0.84075549  0.25906747  1
  H+  H369  1  0.55197900  0.20132655  0.49986739  1
  H+  H370  1  0.09286108  0.92161085  0.06403914  1
  H+  H371  1  0.45579164  0.08756625  0.59414803  1
  H+  H372  1  0.08296452  0.68037489  0.05047740  1
  H+  H373  1  0.20858812  0.27437858  0.88880262  1
  H+  H374  1  0.07173081  0.40434776  0.10224494  1
  H+  H375  1  0.06429955  0.65175829  0.75250709  1
  H+  H376  1  0.91236244  0.33320184  0.89411474  1
  H+  H377  1  0.72045065  0.60820306  0.99829009  1
  H+  H378  1  0.62578502  0.97470746  0.49119881  1
  H+  H379  1  0.12210776  0.55824108  0.88510326  1
  H+  H380  1  0.13777440  0.68541970  0.13547875  1
  H+  H381  1  0.82892406  0.91693581  0.11823077  1
  H+  H382  1  0.91902428  0.08743604  0.27355307  1
  H+  H383  1  0.83207893  0.41647071  0.05840229  1
  O2-  O384  1  0.07946664  0.16574692  0.15103833  1
  O2-  O385  1  0.08017155  0.15208577  0.48222263  1
  O2-  O386  1  0.08465922  0.16531693  0.80509875  1
  O2-  O387  1  0.07159435  0.39887477  0.14726968  1
  O2-  O388  1  0.06001188  0.40600281  0.47686049  1
  O2-  O389  1  0.07476568  0.39554559  0.81126187  1
  O2-  O390  1  0.08939529  0.69537494  0.13142661  1
  O2-  O391  1  0.08173845  0.67064877  0.48534014  1
  O2-  O392  1  0.06655049  0.65000282  0.79805039  1
  O2-  O393  1  0.08799723  0.93063313  0.14628936  1
  O2-  O394  1  0.08261102  0.91204368  0.48331487  1
  O2-  O395  1  0.07393141  0.89078189  0.80072218  1
  O2-  O396  1  0.31240378  0.11364434  0.12881314  1
  O2-  O397  1  0.34866434  0.16935457  0.47523469  1
  O2-  O398  1  0.33305679  0.14740944  0.80948806  1
  O2-  O399  1  0.32912005  0.41848348  0.14138560  1
  O2-  O400  1  0.33665312  0.42354064  0.50070049  1
  O2-  O401  1  0.32958214  0.40960300  0.80885802  1
  O2-  O402  1  0.32500722  0.64945166  0.16070304  1
  O2-  O403  1  0.31754373  0.67790960  0.48350643  1
  O2-  O404  1  0.30780008  0.64726119  0.90577760  1
  O2-  O405  1  0.32648719  0.91940585  0.13884920  1
  O2-  O406  1  0.32921663  0.94644420  0.47228708  1
  O2-  O407  1  0.35182097  0.92904344  0.81208078  1
  O2-  O408  1  0.60039432  0.18320653  0.14105622  1
  O2-  O409  1  0.49395214  0.08561308  0.53522611  1
  O2-  O410  1  0.58898861  0.16769972  0.81195635  1
  O2-  O411  1  0.58290404  0.41593514  0.14163077  1
  O2-  O412  1  0.60563186  0.46192181  0.51685248  1
  O2-  O413  1  0.58992032  0.42183478  0.83019928  1
  O2-  O414  1  0.58712072  0.66955188  0.15079548  1
  O2-  O415  1  0.59679462  0.65955153  0.47001363  1
  O2-  O416  1  0.58467165  0.66293899  0.81459209  1
  O2-  O417  1  0.60131382  0.93742966  0.15153123  1
  O2-  O418  1  0.59916623  0.91426693  0.47583548  1
  O2-  O419  1  0.58942328  0.91591476  0.81377344  1
  O2-  O420  1  0.82842107  0.16824438  0.16104730  1
  O2-  O421  1  0.83665472  0.15889413  0.50199651  1
  O2-  O422  1  0.83288245  0.16304669  0.80921871  1
  O2-  O423  1  0.83197051  0.41500777  0.13758173  1
  O2-  O424  1  0.82926446  0.42764556  0.49461593  1
  O2-  O425  1  0.83017929  0.41340864  0.80041112  1
  O2-  O426  1  0.83305853  0.62973557  0.14186933  1
  O2-  O427  1  0.81162969  0.65005525  0.50310416  1
  O2-  O428  1  0.82976944  0.66350656  0.80123158  1
  O2-  O429  1  0.82914167  0.92364414  0.16216819  1
  O2-  O430  1  0.84073223  0.92202133  0.47559549  1
  O2-  O431  1  0.83720207  0.91257630  0.86717785  1
  O2-  O432  1  0.17089676  0.08975326  0.18969869  1
  O2-  O433  1  0.17937641  0.08422283  0.52536710  1
  O2-  O434  1  0.16552587  0.08648301  0.86325313  1
  O2-  O435  1  0.16735404  0.32873830  0.18916798  1
  O2-  O436  1  0.14839445  0.31876565  0.51581234  1
  O2-  O437  1  0.18060932  0.30038683  0.86611952  1
  O2-  O438  1  0.17176837  0.55664093  0.19498757  1
  O2-  O439  1  0.14375791  0.57232935  0.52342335  1
  O2-  O440  1  0.14472419  0.56192130  0.84419808  1
  O2-  O441  1  0.16270863  0.84343405  0.18318586  1
  O2-  O442  1  0.21764113  0.81879585  0.54428918  1
  O2-  O443  1  0.15026058  0.81657265  0.83495285  1
  O2-  O444  1  0.44311011  0.06847932  0.19669754  1
  O2-  O445  1  0.49262522  0.15133538  0.49657177  1
  O2-  O446  1  0.42729475  0.08188891  0.85194031  1
  O2-  O447  1  0.40749358  0.33234358  0.17012173  1
  O2-  O448  1  0.43610774  0.34229055  0.51236638  1
  O2-  O449  1  0.41980647  0.33019785  0.81588414  1
  O2-  O450  1  0.42084698  0.57984907  0.18741933  1
  O2-  O451  1  0.41442675  0.59952152  0.49291415  1
  O2-  O452  1  0.41054993  0.57908160  0.83077508  1
  O2-  O453  1  0.42255895  0.84741434  0.17337165  1
  O2-  O454  1  0.43687177  0.86462166  0.50252541  1
  O2-  O455  1  0.41760714  0.83600666  0.86147766  1
  O2-  O456  1  0.67364938  0.09531797  0.18989985  1
  O2-  O457  1  0.65124855  0.07459248  0.52088559  1
  O2-  O458  1  0.67185557  0.08501784  0.85056425  1
  O2-  O459  1  0.67642003  0.34622376  0.18847706  1
  O2-  O460  1  0.64942455  0.29769998  0.51417819  1
  O2-  O461  1  0.67274351  0.33121603  0.85440098  1
  O2-  O462  1  0.66514946  0.58078920  0.18899025  1
  O2-  O463  1  0.60207242  0.53807120  0.53919800  1
  O2-  O464  1  0.67347870  0.59236288  0.86200785  1
  O2-  O465  1  0.67039771  0.83705518  0.19311864  1
  O2-  O466  1  0.67186032  0.82763039  0.52605411  1
  O2-  O467  1  0.66368050  0.82580670  0.85654502  1
  O2-  O468  1  0.91590035  0.09494624  0.19154979  1
  O2-  O469  1  0.92795394  0.12076536  0.57361245  1
  O2-  O470  1  0.92159379  0.08807587  0.85055155  1
  O2-  O471  1  0.90743164  0.32871507  0.18714043  1
  O2-  O472  1  0.90260893  0.33327711  0.51843235  1
  O2-  O473  1  0.91418826  0.32982621  0.84822003  1
  O2-  O474  1  0.94886743  0.57803226  0.19363667  1
  O2-  O475  1  0.90917660  0.57771475  0.55572745  1
  O2-  O476  1  0.90536015  0.57398869  0.84273454  1
  O2-  O477  1  0.92675668  0.86355376  0.20628559  1
  O2-  O478  1  0.91737080  0.83387443  0.51245563  1
  O2-  O479  1  0.92070614  0.82166835  0.85087686  1
  O2-  O480  1  0.16425794  0.08158003  0.31301062  1
  O2-  O481  1  0.16940598  0.07750811  0.64754226  1
  O2-  O482  1  0.16829504  0.09155049  0.98352390  1
  O2-  O483  1  0.16949641  0.32858493  0.31349060  1
  O2-  O484  1  0.17088711  0.33158487  0.63758045  1
  O2-  O485  1  0.16746242  0.34501790  0.98423578  1
  O2-  O486  1  0.17225446  0.59337301  0.31868396  1
  O2-  O487  1  0.16992019  0.58461423  0.67561793  1
  O2-  O488  1  0.18509006  0.58934156  0.99391400  1
  O2-  O489  1  0.16622629  0.83308298  0.31065694  1
  O2-  O490  1  0.16706027  0.83761998  0.65008577  1
  O2-  O491  1  0.17748821  0.83811379  0.96109561  1
  O2-  O492  1  0.41587973  0.08403495  0.31042249  1
  O2-  O493  1  0.43513804  0.08931067  0.63966177  1
  O2-  O494  1  0.42360136  0.09099917  0.97752342  1
  O2-  O495  1  0.39807217  0.32387346  0.30034544  1
  O2-  O496  1  0.40571920  0.31000857  0.63321286  1
  O2-  O497  1  0.41443246  0.33509961  0.99353466  1
  O2-  O498  1  0.42364006  0.58236652  0.31393612  1
  O2-  O499  1  0.43854963  0.56653282  0.66492930  1
  O2-  O500  1  0.40651128  0.59718589  0.98712819  1
  O2-  O501  1  0.42392767  0.83617642  0.30389040  1
  O2-  O502  1  0.38791252  0.85379042  0.62785575  1
  O2-  O503  1  0.43457803  0.85274006  0.98527895  1
  O2-  O504  1  0.66353106  0.08582609  0.30725220  1
  O2-  O505  1  0.67519573  0.08562125  0.64508591  1
  O2-  O506  1  0.67126897  0.08287794  0.97132210  1
  O2-  O507  1  0.67935104  0.34880831  0.31332316  1
  O2-  O508  1  0.68610018  0.30996879  0.64178817  1
  O2-  O509  1  0.66610980  0.33154573  0.97598791  1
  O2-  O510  1  0.68272759  0.59185122  0.31209612  1
  O2-  O511  1  0.69719071  0.60735988  0.63592514  1
  O2-  O512  1  0.65960675  0.58177191  0.98481303  1
  O2-  O513  1  0.67250977  0.83884521  0.31376230  1
  O2-  O514  1  0.69357275  0.83671528  0.64535105  1
  O2-  O515  1  0.64933131  0.82334767  0.97927929  1
  O2-  O516  1  0.91774832  0.08501300  0.31855097  1
  O2-  O517  1  0.86599034  0.06152633  0.61898406  1
  O2-  O518  1  0.94540727  0.11840755  0.97236711  1
  O2-  O519  1  0.90563744  0.34145135  0.31681897  1
  O2-  O520  1  0.95668998  0.29997216  0.62894171  1
  O2-  O521  1  0.91552605  0.33655454  0.96941871  1
  O2-  O522  1  0.92562801  0.60721759  0.32135651  1
  O2-  O523  1  0.90790134  0.57031502  0.62290385  1
  O2-  O524  1  0.91817251  0.57445929  0.96587085  1
  O2-  O525  1  0.91485296  0.84149749  0.32965399  1
  O2-  O526  1  0.92833349  0.84902648  0.64154199  1
  O2-  O527  1  0.93227712  0.81160564  0.97522774  1
  O2-  O528  1  0.09450094  0.18130660  0.02596102  1
  O2-  O529  1  0.08225158  0.16396720  0.35604759  1
  O2-  O530  1  0.08693929  0.16366714  0.68762050  1
  O2-  O531  1  0.06902977  0.41124370  0.02076622  1
  O2-  O532  1  0.07240137  0.41095984  0.31991272  1
  O2-  O533  1  0.09456701  0.41665896  0.68806734  1
  O2-  O534  1  0.08648657  0.67155481  0.00622135  1
  O2-  O535  1  0.08574199  0.67351545  0.35965907  1
  O2-  O536  1  0.06902144  0.66091953  0.67557231  1
  O2-  O537  1  0.09345404  0.91886778  0.01885172  1
  O2-  O538  1  0.09155708  0.91852918  0.35655033  1
  O2-  O539  1  0.08500444  0.91749519  0.68527359  1
  O2-  O540  1  0.34422227  0.17864409  0.01967268  1
  O2-  O541  1  0.32984802  0.16225861  0.35200956  1
  O2-  O542  1  0.33643778  0.15057465  0.68589010  1
  O2-  O543  1  0.33688272  0.42057229  0.02159833  1
  O2-  O544  1  0.32791966  0.41118721  0.35139025  1
  O2-  O545  1  0.33219412  0.39289984  0.68774957  1
  O2-  O546  1  0.35745033  0.70400803  0.05322497  1
  O2-  O547  1  0.34724268  0.67575220  0.34877198  1
  O2-  O548  1  0.31055538  0.68226096  0.60808480  1
  O2-  O549  1  0.33889445  0.92343791  0.01425825  1
  O2-  O550  1  0.33577234  0.91843089  0.34690307  1
  O2-  O551  1  0.32112686  0.92409766  0.70070448  1
  O2-  O552  1  0.59201393  0.16581933  0.01548395  1
  O2-  O553  1  0.58863986  0.16971668  0.34781241  1
  O2-  O554  1  0.58966046  0.16078836  0.68922756  1
  O2-  O555  1  0.57729062  0.41304238  0.01950408  1
  O2-  O556  1  0.62179093  0.44976624  0.38848441  1
  O2-  O557  1  0.58321915  0.37984766  0.62860612  1
  O2-  O558  1  0.57449881  0.66605136  0.02454933  1
  O2-  O559  1  0.59222771  0.67022726  0.34863289  1
  O2-  O560  1  0.61338884  0.67580203  0.69199594  1
  O2-  O561  1  0.59703631  0.93073949  0.00683884  1
  O2-  O562  1  0.58461407  0.91919884  0.35120606  1
  O2-  O563  1  0.61874081  0.92044233  0.69093449  1
  O2-  O564  1  0.84190416  0.18216872  0.01278769  1
  O2-  O565  1  0.83544241  0.16572741  0.34366632  1
  O2-  O566  1  0.83497690  0.16662735  0.68671515  1
  O2-  O567  1  0.83018948  0.41415237  0.01312094  1
  O2-  O568  1  0.83702363  0.43078997  0.36455663  1
  O2-  O569  1  0.82648681  0.41513295  0.68207846  1
  O2-  O570  1  0.83232527  0.64811025  0.01435147  1
  O2-  O571  1  0.84019086  0.68431640  0.35053145  1
  O2-  O572  1  0.85965557  0.68191783  0.67453027  1
  O2-  O573  1  0.82176204  0.87708460  -0.01648603  1
  O2-  O574  1  0.83348487  0.91989699  0.35938758  1
  O2-  O575  1  0.85382223  0.92867455  0.67105734  1
