# generated using pymatgen
data_H2O
_symmetry_space_group_name_H-M   'P 1'
_cell_length_a   17.99295748
_cell_length_b   17.98720424
_cell_length_c   21.99910213
_cell_angle_alpha   89.94913457
_cell_angle_beta   90.03320672
_cell_angle_gamma   120.00893937
_symmetry_Int_Tables_number   1
_chemical_formula_structural   H2O
_chemical_formula_sum   'H384 O192'
_cell_volume   6165.41767335
_cell_formula_units_Z   192
loop_
 _symmetry_equiv_pos_site_id
 _symmetry_equiv_pos_as_xyz
  1  'x, y, z'
loop_
 _atom_type_symbol
 _atom_type_oxidation_number
  H+  1.0
  O2-  -2.0
loop_
 _atom_site_type_symbol
 _atom_site_label
 _atom_site_symmetry_multiplicity
 _atom_site_fract_x
 _atom_site_fract_y
 _atom_site_fract_z
 _atom_site_occupancy
  H+  H0  1  0.63153821  0.86144730  0.32533596  1
  H+  H1  1  0.90065532  0.29407005  0.16542393  1
  H+  H2  1  0.19435582  0.81170343  0.98852952  1
  H+  H3  1  0.45106034  0.82928381  0.50105420  1
  H+  H4  1  0.28152074  0.88505847  0.32839771  1
  H+  H5  1  0.62231242  0.71784507  0.67924687  1
  H+  H6  1  0.68114778  0.30517409  0.36886354  1
  H+  H7  1  0.50427216  0.14774147  0.00904253  1
  H+  H8  1  0.48481501  0.59399991  0.66993512  1
  H+  H9  1  0.63023830  0.89064388  0.16474773  1
  H+  H10  1  0.12472212  0.36130452  0.32926448  1
  H+  H11  1  0.27281690  0.39492231  0.48952263  1
  H+  H12  1  0.90159692  0.15690308  -0.00068324  1
  H+  H13  1  0.52091545  0.15066909  0.53991056  1
  H+  H14  1  0.92877645  0.58426423  0.26046929  1
  H+  H15  1  0.57113827  0.16479606  0.10346917  1
  H+  H16  1  0.61098378  0.39029734  0.47770341  1
  H+  H17  1  0.25456331  0.39295001  0.34072546  1
  H+  H18  1  0.47517861  0.86062197  0.86565576  1
  H+  H19  1  0.86320677  0.88488870  0.83371598  1
  H+  H20  1  0.15679998  1.01277163  0.00155384  1
  H+  H21  1  0.25341423  0.93390590  0.03083598  1
  H+  H22  1  0.43373649  0.22738708  0.05056307  1
  H+  H23  1  0.37329493  0.38925177  0.00497186  1
  H+  H24  1  0.33933365  0.12834018  0.66794083  1
  H+  H25  1  0.88308055  1.01548472  0.84519217  1
  H+  H26  1  0.11392215  0.48444246  0.32790290  1
  H+  H27  1  0.38608975  0.87547648  0.01698598  1
  H+  H28  1  0.89948597  0.39338698  0.31722228  1
  H+  H29  1  0.38425340  0.85263311  0.85871977  1
  H+  H30  1  0.37757059  0.37185685  0.17079483  1
  H+  H31  1  0.45941213  0.84861587  0.64114171  1
  H+  H32  1  0.14410628  0.28412882  0.49982981  1
  H+  H33  1  0.70349734  0.12180262  0.50339907  1
  H+  H34  1  0.86042187  0.89997767  0.33578573  1
  H+  H35  1  0.90682164  0.38306056  0.66163181  1
  H+  H36  1  0.88254559  0.85851513  0.67812655  1
  H+  H37  1  0.11643795  0.13835853  0.15016131  1
  H+  H38  1  0.61022534  0.48249718  1.01960518  1
  H+  H39  1  0.64435432  0.29125137  0.00065640  1
  H+  H40  1  0.14557816  0.37063900  0.14976012  1
  H+  H41  1  0.47511038  0.36749512  0.49340956  1
  H+  H42  1  0.90190491  0.38355840  0.15930755  1
  H+  H43  1  0.96970670  0.58505383  0.85511471  1
  H+  H44  1  0.43632168  0.36229494  0.32577781  1
  H+  H45  1  0.81978367  0.20588045  0.69434519  1
  H+  H46  1  0.36048692  0.49028630  0.15068372  1
  H+  H47  1  0.67105648  0.24662243  0.67379492  1
  H+  H48  1  0.68742590  0.58761811  0.62829525  1
  H+  H49  1  0.30232253  0.70189319  0.17940502  1
  H+  H50  1  0.87783720  0.61439693  0.66864508  1
  H+  H51  1  0.23848644  0.10930910  -0.00315258  1
  H+  H52  1  0.71750862  0.51355365  0.90180077  1
  H+  H53  1  -0.00755444  0.88220128  0.16548366  1
  H+  H54  1  0.31815553  0.91639237  0.10853060  1
  H+  H55  1  0.82596737  0.15505165  0.49313162  1
  H+  H56  1  0.38877324  0.51299649  0.83613367  1
  H+  H57  1  0.83127827  0.96783004  0.68279230  1
  H+  H58  1  0.00367069  0.63011336  0.66948582  1
  H+  H59  1  1.14980079  0.21085405  0.77565111  1
  H+  H60  1  0.65614519  1.02136834  0.85510801  1
  H+  H61  1  0.56799409  0.92622790  0.50514189  1
  H+  H62  1  0.62750072  0.63194596  0.69318008  1
  H+  H63  1  0.16908058  0.51019972  0.97009039  1
  H+  H64  1  -0.01339630  0.60005367  0.01253817  1
  H+  H65  1  0.93074972  0.13750763  0.52878407  1
  H+  H66  1  0.36927700  0.84521563  0.17476558  1
  H+  H67  1  0.60252845  0.94562412  0.66755983  1
  H+  H68  1  0.61571685  0.47088292  0.68524707  1
  H+  H69  1  0.22525767  0.60440496  0.51310580  1
  H+  H70  1  0.73469778  0.35469696  0.84601621  1
  H+  H71  1  0.63142458  0.83635514  0.64950537  1
  H+  H72  1  0.37336024  0.22188557  0.82981790  1
  H+  H73  1  0.84190029  0.66487110  0.75057117  1
  H+  H74  1  0.75333842  0.11808399  0.84675822  1
  H+  H75  1  0.21271512  0.84608223  0.65887884  1
  H+  H76  1  0.86249863  0.89354451  0.00685775  1
  H+  H77  1  0.18707750  0.61013531  0.70316464  1
  H+  H78  1  0.15493898  0.12333469  0.50547477  1
  H+  H79  1  0.10279166  0.87358636  0.82425251  1
  H+  H80  1  1.03666691  0.39558443  0.67753858  1
  H+  H81  1  0.13920175  0.37087858  0.49602148  1
  H+  H82  1  0.36755638  0.97273637  0.48697906  1
  H+  H83  1  0.61084932  0.72102022  0.48449849  1
  H+  H84  1  0.90095135  0.37936505  0.99086180  1
  H+  H85  1  0.87567799  0.62737598  0.84201362  1
  H+  H86  1  0.46863409  0.10913124  0.67105369  1
  H+  H87  1  0.47550976  0.61346109  0.48654822  1
  H+  H88  1  0.95567288  0.36937425  0.83140796  1
  H+  H89  1  0.02821101  0.13717467  0.33786328  1
  H+  H90  1  0.39942304  0.11766867  0.84099374  1
  H+  H91  1  0.50516027  0.86689109  0.34146200  1
  H+  H92  1  0.38832498  0.81235054  0.59011470  1
  H+  H93  1  0.61456160  0.64132319  0.33274490  1
  H+  H94  1  0.47506085  0.37191214  -0.00388360  1
  H+  H95  1  0.10129292  0.90474750  0.38782767  1
  H+  H96  1  0.72548828  0.87030730  0.32393904  1
  H+  H97  1  0.59739470  0.16507892  0.64785564  1
  H+  H98  1  0.12596786  0.72952715  0.32061090  1
  H+  H99  1  0.32096951  0.71404980  0.05069340  1
  H+  H100  1  0.88704121  0.49904210  0.33293163  1
  H+  H101  1  0.35530439  0.22769658  0.16385451  1
  H+  H102  1  0.15527132  0.56481508  0.87194067  1
  H+  H103  1  0.27579704  0.35914214  0.82653950  1
  H+  H104  1  0.10716282  0.98770734  0.35662165  1
  H+  H105  1  0.12091275  0.63872497  0.31614104  1
  H+  H106  1  0.79738940  0.40670045  0.33477894  1
  H+  H107  1  0.86335644  0.48541298  0.49477623  1
  H+  H108  1  0.71112929  0.08420818  0.50731261  1
  H+  H109  1  0.72345574  0.08057702  0.31285590  1
  H+  H110  1  0.77161215  0.12069759  -0.00299767  1
  H+  H111  1  0.33832189  0.38578013  0.33504492  1
  H+  H112  1  0.60476385  0.72725817  0.83308363  1
  H+  H113  1  0.87441194  0.71786086  0.83875318  1
  H+  H114  1  0.32122009  -0.01542766  0.64411760  1
  H+  H115  1  0.17217722  0.08156316  0.59411492  1
  H+  H116  1  0.13313552  0.27649789  0.33227891  1
  H+  H117  1  0.41247322  0.59555737  0.22827201  1
  H+  H118  1  0.86622429  0.64000593  0.48791057  1
  H+  H119  1  0.35568358  0.71857151  0.33913944  1
  H+  H120  1  0.62953732  0.84149593  0.50839588  1
  H+  H121  1  0.12934148  0.49170310  0.14100112  1
  H+  H122  1  0.04205627  0.39185964  -0.00936099  1
  H+  H123  1  0.52766619  0.02566686  0.54279489  1
  H+  H124  1  0.63300589  0.98987616  0.15745668  1
  H+  H125  1  1.01102769  0.10270179  0.68105322  1
  H+  H126  1  0.22891759  0.36948791  0.65940793  1
  H+  H127  1  0.46637187  0.37170285  0.17763544  1
  H+  H128  1  0.90377380  1.03269035  -0.00955265  1
  H+  H129  1  0.88096102  0.44740053  0.84340383  1
  H+  H130  1  0.38675267  0.36740651  0.49930891  1
  H+  H131  1  0.24934140  0.62749382  0.02007540  1
  H+  H132  1  0.59925012  0.48419640  0.16718397  1
  H+  H133  1  0.08512994  0.10449646  0.64220859  1
  H+  H134  1  0.10981691  -0.02986121  0.66841987  1
  H+  H135  1  0.10152195  0.62584367  0.50860125  1
  H+  H136  1  0.89022236  0.24181384  -0.00263562  1
  H+  H137  1  0.89187017  0.37569868  0.50506493  1
  H+  H138  1  0.67827885  0.13602294  0.30001666  1
  H+  H139  1  0.67051735  0.10216750  0.66373375  1
  H+  H140  1  0.38475228  0.60064109  0.84834034  1
  H+  H141  1  0.38973793  0.13551987  0.99893333  1
  H+  H142  1  0.90233047  0.88312638  0.16854162  1
  H+  H143  1  0.63721746  0.86400145  -0.00301530  1
  H+  H144  1  0.22275074  0.85300460  0.50100929  1
  H+  H145  1  0.58327435  0.15516290  0.24376964  1
  H+  H146  1  0.10642675  0.87869553  0.66846121  1
  H+  H147  1  0.38067464  0.51510500  0.48891013  1
  H+  H148  1  0.39157696  0.35810194  0.84030859  1
  H+  H149  1  0.78994861  0.15618160  0.14662817  1
  H+  H150  1  0.77849815  0.64088016  0.47827123  1
  H+  H151  1  0.35173313  0.87347538  0.66796266  1
  H+  H152  1  0.85830570  0.63182142  1.05435620  1
  H+  H153  1  1.02703115  0.39801852  0.48658359  1
  H+  H154  1  0.08900141  0.62305869  0.66923815  1
  H+  H155  1  0.14691088  0.62511333  0.15536224  1
  H+  H156  1  0.10899684  0.72403010  0.15608185  1
  H+  H157  1  0.21631318  0.11282308  0.66053285  1
  H+  H158  1  -0.01448924  0.61728262  0.16668924  1
  H+  H159  1  -0.00433429  0.62286724  0.31698968  1
  H+  H160  1  0.88811820  0.02946764  0.32145696  1
  H+  H161  1  0.12065807  0.76130558  0.65645844  1
  H+  H162  1  0.99285975  0.38887753  0.31875523  1
  H+  H163  1  0.97492754  0.85824229  0.83176054  1
  H+  H164  1  0.78694825  0.39604803  0.68328698  1
  H+  H165  1  1.05629555  0.89393014  1.00738062  1
  H+  H166  1  0.60784474  0.65228277  0.16340350  1
  H+  H167  1  0.14096937  0.35611936  -0.04245188  1
  H+  H168  1  0.62169086  0.22150119  0.29745702  1
  H+  H169  1  0.36851853  0.97541627  0.33369109  1
  H+  H170  1  0.14404532  0.06599736  0.90652898  1
  H+  H171  1  0.90627681  0.29332692  0.50785260  1
  H+  H172  1  1.03881643  0.40546095  0.14543175  1
  H+  H173  1  0.64255090  0.52989602  0.32066746  1
  H+  H174  1  0.33596073  0.91485493  0.42692580  1
  H+  H175  1  0.37996842  0.52334820  0.32189455  1
  H+  H176  1  0.25186027  0.57994413  0.93237311  1
  H+  H177  1  0.39568388  0.64636976  0.17606206  1
  H+  H178  1  0.10953991  0.01219538  0.84621242  1
  H+  H179  1  0.55544125  0.38432448  0.30952719  1
  H+  H180  1  0.22251610  0.62034026  0.12126505  1
  H+  H181  1  0.61577536  0.16681866  0.53225309  1
  H+  H182  1  0.47405031  0.11037068  0.31297668  1
  H+  H183  1  0.38349636  0.49102874  1.00035642  1
  H+  H184  1  0.27232363  0.39659853  0.14568082  1
  H+  H185  1  0.85559275  0.10993662  0.66690854  1
  H+  H186  1  0.09001062  0.31605787  0.86397779  1
  H+  H187  1  0.88217782  0.74708406  0.99250540  1
  H+  H188  1  0.50989633  0.62874348  0.82830177  1
  H+  H189  1  0.34917673  0.21974402  0.33283227  1
  H+  H190  1  0.10414270  0.71497981  0.49913369  1
  H+  H191  1  0.47792916  0.35931460  0.65771859  1
  H+  H192  1  0.15913349  0.07376514  0.26594258  1
  H+  H193  1  0.36710862  0.46943512  0.67878487  1
  H+  H194  1  0.35976544  0.63153252  0.33462056  1
  H+  H195  1  0.37220704  0.01916805  0.17358994  1
  H+  H196  1  0.41403540  0.09273517  0.93839070  1
  H+  H197  1  0.56352157  0.88393817  0.43936364  1
  H+  H198  1  0.35841131  0.70829143  0.86438880  1
  H+  H199  1  0.63808771  0.29610569  0.52671605  1
  H+  H200  1  0.52365109  0.37555880  0.83385224  1
  H+  H201  1  0.13189192  0.61162907  0.82242407  1
  H+  H202  1  0.78967191  0.39653566  0.14336713  1
  H+  H203  1  0.89316235  0.11458372  0.84698143  1
  H+  H204  1  0.35804729  0.99247629  0.82602961  1
  H+  H205  1  0.58698691  0.95760940  0.35439497  1
  H+  H206  1  0.39570247  0.11648191  0.49951842  1
  H+  H207  1  0.07193373  0.69329298  0.00294845  1
  H+  H208  1  0.24116837  0.11965618  0.50621211  1
  H+  H209  1  0.34730968  0.70888757  0.48641246  1
  H+  H210  1  0.72716308  0.61526757  0.02298554  1
  H+  H211  1  0.64860853  0.37105657  0.66931173  1
  H+  H212  1  0.77462395  0.89410925  0.00344175  1
  H+  H213  1  0.37564207  0.11147166  0.17080022  1
  H+  H214  1  0.64044417  0.11331942  0.16218916  1
  H+  H215  1  0.11723855  0.48180512  0.49035523  1
  H+  H216  1  0.04132401  0.13964692  0.49299460  1
  H+  H217  1  0.48556872  0.61271242  -0.00767432  1
  H+  H218  1  0.03122513  0.14379064  0.14784052  1
  H+  H219  1  0.46256683  0.11088370  0.70472370  1
  H+  H220  1  0.23091840  0.60915078  0.31143689  1
  H+  H221  1  0.62013061  0.64752016  1.01534186  1
  H+  H222  1  0.14095946  0.27079834  0.94449327  1
  H+  H223  1  0.13610560  1.02328317  0.16767430  1
  H+  H224  1  0.61909268  0.88516309  0.84576297  1
  H+  H225  1  0.78009898  0.41064615  -0.00063580  1
  H+  H226  1  0.21264336  0.85458326  0.84193499  1
  H+  H227  1  0.76350674  0.87054818  0.68131230  1
  H+  H228  1  0.38392439  0.85830815  0.32863790  1
  H+  H229  1  0.61773226  0.22016750  0.82873114  1
  H+  H230  1  0.62754120  0.61174884  0.47873505  1
  H+  H231  1  0.64826556  0.56844928  0.53296214  1
  H+  H232  1  0.12930611  0.85188599  0.99627032  1
  H+  H233  1  0.72539206  0.85725006  0.50372262  1
  H+  H234  1  0.97219031  0.61196756  0.51161578  1
  H+  H235  1  0.58783048  0.14340927  0.00464294  1
  H+  H236  1  0.88053335  0.52610236  0.66753570  1
  H+  H237  1  1.00420408  0.11726384  0.98580883  1
  H+  H238  1  0.14757755  0.28240823  0.14896263  1
  H+  H239  1  0.64663094  0.35936705  0.84189231  1
  H+  H240  1  0.65427063  0.26995761  0.16881339  1
  H+  H241  1  0.37269844  0.23170958  0.48757998  1
  H+  H242  1  1.09315456  0.16639560  1.05122158  1
  H+  H243  1  0.26096813  0.87851329  0.16699278  1
  H+  H244  1  0.74263746  0.61606370  0.68834484  1
  H+  H245  1  0.12256369  0.12696342  0.99756892  1
  H+  H246  1  0.97119381  0.88268053  0.33499800  1
  H+  H247  1  0.72780871  0.37812571  0.50412786  1
  H+  H248  1  0.16739879  0.16519939  0.82900510  1
  H+  H249  1  0.37041591  0.84494166  0.49586386  1
  H+  H250  1  0.72034020  0.62999969  0.17966756  1
  H+  H251  1  0.12323663  0.38936414  0.67796924  1
  H+  H252  1  0.25935911  0.01154027  0.61184383  1
  H+  H253  1  0.15860608  0.86690205  0.31326359  1
  H+  H254  1  0.36007927  0.22581972  0.67066895  1
  H+  H255  1  0.50987768  0.12799672  0.16087259  1
  H+  H256  1  0.11673680  0.13741658  0.33734788  1
  H+  H257  1  0.89939254  0.62397929  0.17881100  1
  H+  H258  1  0.83787900  0.67989306  0.23804601  1
  H+  H259  1  0.86718644  0.62841968  0.32938902  1
  H+  H260  1  0.67139991  0.80849334  0.59647185  1
  H+  H261  1  0.72444720  0.85755749  0.84624553  1
  H+  H262  1  0.40831545  0.82082798  0.27036805  1
  H+  H263  1  0.61231761  0.72969877  0.32996677  1
  H+  H264  1  0.09642647  0.71406966  0.82652599  1
  H+  H265  1  0.51889417  0.65412667  0.16116702  1
  H+  H266  1  0.87313473  0.49359014  0.14589713  1
  H+  H267  1  0.07977902  0.90846290  0.76329501  1
  H+  H268  1  0.40268962  0.60327148  0.66463898  1
  H+  H269  1  0.86243966  -0.01832954  0.49935955  1
  H+  H270  1  0.86382145  0.23272049  0.83979430  1
  H+  H271  1  0.36038305  0.13601120  0.33455058  1
  H+  H272  1  0.47272562  0.61099703  0.32077246  1
  H+  H273  1  0.90480669  0.15840666  0.34376926  1
  H+  H274  1  0.14129386  0.51459279  0.67876585  1
  H+  H275  1  0.22252401  0.11350517  0.17187900  1
  H+  H276  1  0.34994704  0.99733151  0.01525972  1
  H+  H277  1  0.74827097  0.59571885  0.86283773  1
  H+  H278  1  0.65428813  0.36181330  0.33023443  1
  H+  H279  1  0.22195389  0.10574147  0.32404579  1
  H+  H280  1  0.89870846  0.12822079  0.16858429  1
  H+  H281  1  0.68833297  0.12632157  1.00269306  1
  H+  H282  1  0.37003323  0.71570554  0.66771230  1
  H+  H283  1  0.77780994  0.89629468  0.16084450  1
  H+  H284  1  0.72668050  0.05721409  0.64263519  1
  H+  H285  1  0.63351000  0.78268294  0.17246906  1
  H+  H286  1  0.62003363  0.97695275  0.01190880  1
  H+  H287  1  0.86490728  0.73127574  0.69219751  1
  H+  H288  1  0.32584446  0.91195522  0.72694413  1
  H+  H289  1  0.86021786  0.18867616  0.09406015  1
  H+  H290  1  0.37825367  0.61101670  0.48874431  1
  H+  H291  1  0.58500554  0.40887317  0.38107046  1
  H+  H292  1  0.85777899  0.89464081  0.47969042  1
  H+  H293  1  0.07107138  0.39407301  0.77384971  1
  H+  H294  1  0.92830392  0.08262317  0.91048224  1
  H+  H295  1  0.96397134  0.75709536  0.96211436  1
  H+  H296  1  0.57841460  0.66979864  0.41985845  1
  H+  H297  1  0.85670637  0.06359001  0.60581180  1
  H+  H298  1  0.88022178  0.75360348  0.18917410  1
  H+  H299  1  0.16233289  0.82612815  0.55882867  1
  H+  H300  1  0.89027676  0.77879552  0.47494784  1
  H+  H301  1  0.35870598  0.37719389  0.67520811  1
  H+  H302  1  0.33758339  0.17543523  0.10177173  1
  H+  H303  1  0.96994513  0.85669871  0.67186978  1
  H+  H304  1  0.57174819  0.41899346  0.11257089  1
  H+  H305  1  0.59714099  0.02050347  0.58552099  1
  H+  H306  1  0.32724402  0.42106572  0.42684706  1
  H+  H307  1  0.11711155  0.88908592  0.15724015  1
  H+  H308  1  0.93125595  0.36257393  0.25214616  1
  H+  H309  1  0.61529190  0.46159179  0.83522071  1
  H+  H310  1  0.42953172  0.57505690  0.93099198  1
  H+  H311  1  0.17097618  0.82967156  0.24870472  1
  H+  H312  1  0.07710428  0.78961477  0.20553888  1
  H+  H313  1  0.17232101  0.35075155  0.59929758  1
  H+  H314  1  0.89208147  0.19421660  0.43918433  1
  H+  H315  1  0.40474159  0.07941178  0.26177029  1
  H+  H316  1  0.33976891  0.16911154  0.42943074  1
  H+  H317  1  0.93592519  0.35611436  0.60011667  1
  H+  H318  1  0.68895776  0.36266805  0.60740102  1
  H+  H319  1  0.18122122  0.58246160  0.24764075  1
  H+  H320  1  0.92614683  0.09149842  0.26247773  1
  H+  H321  1  0.90458384  0.54338314  0.91440720  1
  H+  H322  1  0.64037215  0.77643611  0.99833930  1
  H+  H323  1  0.42089715  0.33472728  0.59699422  1
  H+  H324  1  0.85417703  0.18124348  0.78039377  1
  H+  H325  1  0.58377945  0.92446850  0.79573448  1
  H+  H326  1  0.27674935  0.96985587  0.78847535  1
  H+  H327  1  0.92173427  0.82308043  0.89334431  1
  H+  H328  1  0.33097741  0.40363758  0.76826999  1
  H+  H329  1  0.69392251  0.33790035  0.22202989  1
  H+  H330  1  0.83861021  0.66597434  0.38388762  1
  H+  H331  1  0.17362975  0.57728216  0.57586533  1
  H+  H332  1  0.97891298  0.10635064  0.57922375  1
  H+  H333  1  0.38416392  0.06426931  0.55938727  1
  H+  H334  1  0.82783265  0.91520222  0.77729302  1
  H+  H335  1  0.84660246  0.44470202  0.06100608  1
  H+  H336  1  0.67399671  0.34257192  0.93812792  1
  H+  H337  1  0.54801891  0.86013923  0.70806940  1
  H+  H338  1  0.39152514  0.33197918  0.25989954  1
  H+  H339  1  0.59724289  0.16738612  0.76812873  1
  H+  H340  1  0.10175114  0.41797405  0.04856136  1
  H+  H341  1  0.66537426  0.82810504  0.90637233  1
  H+  H342  1  0.84868834  0.41349353  0.74098783  1
  H+  H343  1  0.66664614  0.84299701  0.23335309  1
  H+  H344  1  0.84634246  0.20099592  0.34621591  1
  H+  H345  1  0.14956005  0.81493925  0.90012961  1
  H+  H346  1  0.10082935  0.92033883  0.09230670  1
  H+  H347  1  0.58283562  0.67919736  0.06926460  1
  H+  H348  1  0.69963999  0.08773262  0.91487001  1
  H+  H349  1  0.27209138  0.62769380  0.83913041  1
  H+  H350  1  0.40897197  0.83564585  0.96142634  1
  H+  H351  1  0.60678413  0.47491784  0.46442518  1
  H+  H352  1  0.59488903  0.18711244  0.42021994  1
  H+  H353  1  0.48404360  0.10894013  0.84275261  1
  H+  H354  1  0.93187828  0.86748487  0.26810065  1
  H+  H355  1  0.07014524  0.65792751  0.09645370  1
  H+  H356  1  0.34475904  0.42964332  0.06592689  1
  H+  H357  1  0.34286571  0.16581992  0.76976197  1
  H+  H358  1  0.09314113  0.17077487  0.43059112  1
  H+  H359  1  0.89261587  0.03610004  0.16869538  1
  H+  H360  1  0.68292550  0.58639070  0.95738278  1
  H+  H361  1  0.05966859  0.65459397  0.76748493  1
  H+  H362  1  0.52305303  0.89428846  0.01796460  1
  H+  H363  1  0.90364728  0.58352501  0.56640065  1
  H+  H364  1  0.31829462  0.64854384  0.42661831  1
  H+  H365  1  0.29503995  0.62155876  0.67472552  1
  H+  H366  1  0.91587469  0.26062615  0.68877661  1
  H+  H367  1  0.57828002  0.40320698  0.73864132  1
  H+  H368  1  0.58492852  0.66837158  0.76710306  1
  H+  H369  1  0.82514544  0.66817083  0.10587310  1
  H+  H370  1  0.58236092  0.14110954  0.42650817  1
  H+  H371  1  0.73206211  0.61694607  0.32273111  1
  H+  H372  1  0.65847989  0.59574299  0.23489054  1
  H+  H373  1  0.59426714  0.92026148  0.09975678  1
  H+  H374  1  0.39042324  0.27884713  1.00095862  1
  H+  H375  1  0.84270384  0.43068659  0.43346585  1
  H+  H376  1  0.83407866  0.92678356  0.10031270  1
  H+  H377  1  0.02696464  0.91818513  0.45868966  1
  H+  H378  1  0.07876840  0.43094257  0.39210846  1
  H+  H379  1  0.91494911  0.34757604  0.92792500  1
  H+  H380  1  0.41832320  0.33235963  0.90267940  1
  H+  H381  1  0.61263023  0.39582105  0.01378764  1
  H+  H382  1  0.82667254  0.93034442  0.39385810  1
  H+  H383  1  0.69578949  0.10104440  0.21490535  1
  O2-  O384  1  0.08962691  0.16901075  0.12977425  1
  O2-  O385  1  0.09908531  0.17641611  0.47621183  1
  O2-  O386  1  0.19152744  0.22137205  0.80757784  1
  O2-  O387  1  0.09680041  0.43074063  0.12723011  1
  O2-  O388  1  0.08605173  0.42551717  0.46851973  1
  O2-  O389  1  0.05013103  0.38245384  0.81747334  1
  O2-  O390  1  0.07981452  0.66155190  0.14225203  1
  O2-  O391  1  0.06776665  0.65136605  0.49343236  1
  O2-  O392  1  0.06348028  0.65305914  0.81260623  1
  O2-  O393  1  0.09235580  0.92314178  0.13844099  1
  O2-  O394  1  -0.00621843  0.88974049  0.49602254  1
  O2-  O395  1  0.07425657  0.90513121  0.80876993  1
  O2-  O396  1  0.32868725  0.16808434  0.14792779  1
  O2-  O397  1  0.34709938  0.17060701  0.47450881  1
  O2-  O398  1  0.35187254  0.16301366  0.81397843  1
  O2-  O399  1  0.33763964  0.43124406  0.13492762  1
  O2-  O400  1  0.33378260  0.42432358  0.47283620  1
  O2-  O401  1  0.33324938  0.40519225  0.81430516  1
  O2-  O402  1  0.36366252  0.73234265  0.16717399  1
  O2-  O403  1  0.32228806  0.64727879  0.47237541  1
  O2-  O404  1  0.32911389  0.64568273  0.85889176  1
  O2-  O405  1  0.32122531  0.90867375  0.15342017  1
  O2-  O406  1  0.33707928  0.91250522  0.47234104  1
  O2-  O407  1  0.30921643  0.94289089  0.80265254  1
  O2-  O408  1  0.57219754  0.15698102  0.14848477  1
  O2-  O409  1  0.58233575  0.18729159  0.55413663  1
  O2-  O410  1  0.58727027  0.16117615  0.81223773  1
  O2-  O411  1  0.56761517  0.42221096  0.15735166  1
  O2-  O412  1  0.57766037  0.41221788  0.45433012  1
  O2-  O413  1  0.58450330  0.40351680  0.81723360  1
  O2-  O414  1  0.58059056  0.68507426  0.14701067  1
  O2-  O415  1  0.57515818  0.66226213  0.46565793  1
  O2-  O416  1  0.57510599  0.66765111  0.81503296  1
  O2-  O417  1  0.60111908  0.92610368  0.14604239  1
  O2-  O418  1  0.55852460  0.87294038  0.48394915  1
  O2-  O419  1  0.59088107  0.92205364  0.83953989  1
  O2-  O420  1  0.85270360  0.18927806  0.13891101  1
  O2-  O421  1  0.88735188  0.19264313  0.48557466  1
  O2-  O422  1  0.84349890  0.17266210  0.82553307  1
  O2-  O423  1  0.84765986  0.43563804  0.12488449  1
  O2-  O424  1  0.83382463  0.42443310  0.47801594  1
  O2-  O425  1  0.85210475  0.38777909  0.82371931  1
  O2-  O426  1  0.84466423  0.68832226  0.19375393  1
  O2-  O427  1  0.83959386  0.67068689  0.46668283  1
  O2-  O428  1  0.84291397  0.65519694  0.82806493  1
  O2-  O429  1  0.83767050  0.92817512  0.14533838  1
  O2-  O430  1  0.82600704  0.92753485  0.47744797  1
  O2-  O431  1  0.83152830  0.91636392  0.82314985  1
  O2-  O432  1  0.16159299  0.08219305  0.18620322  1
  O2-  O433  1  0.18194933  0.09155136  0.52265610  1
  O2-  O434  1  0.11591123  0.06338840  0.86737590  1
  O2-  O435  1  0.17948599  0.34336529  0.16195423  1
  O2-  O436  1  0.17323774  0.34558726  0.51284463  1
  O2-  O437  1  0.04530537  0.30015509  0.83079103  1
  O2-  O438  1  0.18881681  0.60378674  0.16083304  1
  O2-  O439  1  0.16685937  0.57537188  0.53145931  1
  O2-  O440  1  0.16548404  0.58195573  0.82881652  1
  O2-  O441  1  0.13602009  0.81454573  0.19067638  1
  O2-  O442  1  0.16221212  0.82218717  0.51398440  1
  O2-  O443  1  0.15201038  0.81819333  0.85417249  1
  O2-  O444  1  0.40631126  0.08081980  0.18601034  1
  O2-  O445  1  0.41844596  0.08231676  0.52083380  1
  O2-  O446  1  0.42438266  0.08244273  0.85947553  1
  O2-  O447  1  0.40352290  0.33957537  0.18995201  1
  O2-  O448  1  0.41802912  0.33797518  0.51354584  1
  O2-  O449  1  0.42398101  0.33105787  0.85757096  1
  O2-  O450  1  0.41565580  0.60482531  0.18319509  1
  O2-  O451  1  0.41327321  0.58108172  0.50090045  1
  O2-  O452  1  0.42312016  0.57405087  0.85051158  1
  O2-  O453  1  0.40069858  0.81836350  0.19416350  1
  O2-  O454  1  0.38955228  0.80522416  0.51293824  1
  O2-  O455  1  0.41511131  0.82870992  0.88015134  1
  O2-  O456  1  0.67973870  0.09021090  0.17078913  1
  O2-  O457  1  0.55399078  -0.00861108  0.55290658  1
  O2-  O458  1  0.69365929  0.08370647  0.86840881  1
  O2-  O459  1  0.70647140  0.32234115  0.18257524  1
  O2-  O460  1  0.66982813  0.35967587  0.52197440  1
  O2-  O461  1  0.67600978  0.33119323  0.86240410  1
  O2-  O462  1  0.65851197  0.59927860  0.18916030  1
  O2-  O463  1  0.65782421  0.57855051  0.48946523  1
  O2-  O464  1  0.69717538  0.55123373  0.88643955  1
  O2-  O465  1  0.66733720  0.84473400  0.18704494  1
  O2-  O466  1  0.66621034  0.81607717  0.51942360  1
  O2-  O467  1  0.66295611  0.82807662  0.86027259  1
  O2-  O468  1  0.92729827  0.09646216  0.18335292  1
  O2-  O469  1  0.93559463  0.08856918  0.54510122  1
  O2-  O470  1  0.91707926  0.07759229  0.86095072  1
  O2-  O471  1  0.93065536  0.35526281  0.17969526  1
  O2-  O472  1  0.92910960  0.35377967  0.52166804  1
  O2-  O473  1  0.89498894  0.34268921  0.85024321  1
  O2-  O474  1  0.92291939  0.58477929  0.18172033  1
  O2-  O475  1  0.90753609  0.58348556  0.52134610  1
  O2-  O476  1  0.90902927  0.54669551  0.86824464  1
  O2-  O477  1  0.93408695  0.85577895  0.18548098  1
  O2-  O478  1  0.90759989  0.84102652  0.47002893  1
  O2-  O479  1  0.91423896  0.82741514  0.84901016  1
  O2-  O480  1  0.16031521  0.07538373  0.31154243  1
  O2-  O481  1  0.16111374  0.07327930  0.63986955  1
  O2-  O482  1  0.17790867  0.07431814  0.98636560  1
  O2-  O483  1  0.16207615  0.33756958  0.31907573  1
  O2-  O484  1  0.16965317  0.34874017  0.64407846  1
  O2-  O485  1  0.15261509  0.32481516  0.92534703  1
  O2-  O486  1  0.17256063  0.57937252  0.29199823  1
  O2-  O487  1  0.16990572  0.57768749  0.66518944  1
  O2-  O488  1  0.20121777  0.57092611  0.95535501  1
  O2-  O489  1  0.18755657  0.83758900  0.29735593  1
  O2-  O490  1  0.15366336  0.82221465  0.64228424  1
  O2-  O491  1  0.13882730  0.80226587  0.97457841  1
  O2-  O492  1  0.41132592  0.08152538  0.30741339  1
  O2-  O493  1  0.31952711  0.03237369  0.62166531  1
  O2-  O494  1  0.41227859  0.09453895  0.98380191  1
  O2-  O495  1  0.38192343  0.32348824  0.30631953  1
  O2-  O496  1  0.41806254  0.32989485  0.64198882  1
  O2-  O497  1  0.41436455  0.34023925  0.98151417  1
  O2-  O498  1  0.41232129  0.58385079  0.30595651  1
  O2-  O499  1  0.42648690  0.56558166  0.65298809  1
  O2-  O500  1  0.42657941  0.57485767  0.97613382  1
  O2-  O501  1  0.41120577  0.82317799  0.31596493  1
  O2-  O502  1  0.39651926  0.81880664  0.63536618  1
  O2-  O503  1  0.41671849  0.84508604  1.00601868  1
  O2-  O504  1  0.72823965  0.12879332  0.28935235  1
  O2-  O505  1  0.66797889  0.04934933  0.64754530  1
  O2-  O506  1  0.70699906  0.08806060  0.98601785  1
  O2-  O507  1  0.68363330  0.32644748  0.32754507  1
  O2-  O508  1  0.68913658  0.35343089  0.65179788  1
  O2-  O509  1  0.67771379  0.35021496  0.98374066  1
  O2-  O510  1  0.66928571  0.59139572  0.31021280  1
  O2-  O511  1  0.67984718  0.58189760  0.67215791  1
  O2-  O512  1  0.67136406  0.59092934  1.00122690  1
  O2-  O513  1  0.66488742  0.83656526  0.30701512  1
  O2-  O514  1  0.66753213  0.80968772  0.64208823  1
  O2-  O515  1  0.67033440  0.83722695  0.98121206  1
  O2-  O516  1  0.92641269  0.09031491  0.30788878  1
  O2-  O517  1  0.82387381  0.05504469  0.64419035  1
  O2-  O518  1  0.93850893  0.09071960  0.97171332  1
  O2-  O519  1  0.93040818  0.36270713  0.29869007  1
  O2-  O520  1  0.93875312  0.35511754  0.64557648  1
  O2-  O521  1  0.92329012  0.34451792  0.97249582  1
  O2-  O522  1  0.93093636  0.58833381  0.30572904  1
  O2-  O523  1  0.90417077  0.58347433  0.64792690  1
  O2-  O524  1  0.88081656  0.53393136  0.98955132  1
  O2-  O525  1  0.91740916  0.86177701  0.31179095  1
  O2-  O526  1  0.90652837  0.82213848  0.66586382  1
  O2-  O527  1  0.93015301  0.78565118  0.96608038  1
  O2-  O528  1  0.09193043  0.15981795  0.00586922  1
  O2-  O529  1  0.08791021  0.16788041  0.35454292  1
  O2-  O530  1  0.03854185  0.11967740  0.64149758  1
  O2-  O531  1  0.10178480  0.41228406  0.00339463  1
  O2-  O532  1  0.07509348  0.42636712  0.34632592  1
  O2-  O533  1  0.09264924  0.41765215  0.69926098  1
  O2-  O534  1  0.04711767  0.63880745  0.02607894  1
  O2-  O535  1  0.09071450  0.66796394  0.33192607  1
  O2-  O536  1  0.06462373  0.65738500  0.68542937  1
  O2-  O537  1  0.11489360  0.91506918  0.02180764  1
  O2-  O538  1  0.06967699  0.93485364  0.38137281  1
  O2-  O539  1  0.07976091  0.91101556  0.68634499  1
  O2-  O540  1  0.37579292  0.19864096  0.03346755  1
  O2-  O541  1  0.32633185  0.16153018  0.35090538  1
  O2-  O542  1  0.32454729  0.16758938  0.68908332  1
  O2-  O543  1  0.34790583  0.42745784  0.01896361  1
  O2-  O544  1  0.31887401  0.42376027  0.35300150  1
  O2-  O545  1  0.33068447  0.40761563  0.69305263  1
  O2-  O546  1  0.28026373  0.65364865  0.05894675  1
  O2-  O547  1  0.32465733  0.65644080  0.35098710  1
  O2-  O548  1  0.35501184  0.65986452  0.68669035  1
  O2-  O549  1  0.31014291  0.93896212  0.03331707  1
  O2-  O550  1  0.34003813  0.91494991  0.34859248  1
  O2-  O551  1  0.31973565  0.90250932  0.68239916  1
  O2-  O552  1  0.56715590  0.17763222  0.02493352  1
  O2-  O553  1  0.59373168  0.15919584  0.28769440  1
  O2-  O554  1  0.64201762  0.18327724  0.67929507  1
  O2-  O555  1  0.57751768  0.41991601  0.02955433  1
  O2-  O556  1  0.60415381  0.41649729  0.33657821  1
  O2-  O557  1  0.58259636  0.40803865  0.69327019  1
  O2-  O558  1  0.58773321  0.67825839  0.02382907  1
  O2-  O559  1  0.58075217  0.66922956  0.34546838  1
  O2-  O560  1  0.59530546  0.66264981  0.70351330  1
  O2-  O561  1  0.58610898  0.91780822  0.02779994  1
  O2-  O562  1  0.56589263  0.89646273  0.35955718  1
  O2-  O563  1  0.56757696  0.88112959  0.66708329  1
  O2-  O564  1  0.86657211  0.18228500  0.01429747  1
  O2-  O565  1  0.89407043  0.20035070  0.36678229  1
  O2-  O566  1  0.87139744  0.20429293  0.70610557  1
  O2-  O567  1  0.84406557  0.44295236  0.01151021  1
  O2-  O568  1  0.85757253  0.43637646  0.34897293  1
  O2-  O569  1  0.84841192  0.42434392  0.69695116  1
  O2-  O570  1  0.82874597  0.66443016  0.06145658  1
  O2-  O571  1  0.83010041  0.65325288  0.33962558  1
  O2-  O572  1  0.83581756  0.66752254  0.70563961  1
  O2-  O573  1  0.83600470  0.92754768  0.01806023  1
  O2-  O574  1  0.82502338  0.92761343  0.34872800  1
  O2-  O575  1  0.81919661  0.91227161  0.70080369  1
