# generated using pymatgen
data_H2O
_symmetry_space_group_name_H-M   'P 1'
_cell_length_a   17.98671649
_cell_length_b   17.99115060
_cell_length_c   22.00272013
_cell_angle_alpha   90.00395987
_cell_angle_beta   90.00159371
_cell_angle_gamma   119.99422516
_symmetry_Int_Tables_number   1
_chemical_formula_structural   H2O
_chemical_formula_sum   'H384 O192'
_cell_volume   6166.56198860
_cell_formula_units_Z   192
loop_
 _symmetry_equiv_pos_site_id
 _symmetry_equiv_pos_as_xyz
  1  'x, y, z'
loop_
 _atom_type_symbol
 _atom_type_oxidation_number
  H+  1.0
  O2-  -2.0
loop_
 _atom_site_type_symbol
 _atom_site_label
 _atom_site_symmetry_multiplicity
 _atom_site_fract_x
 _atom_site_fract_y
 _atom_site_fract_z
 _atom_site_occupancy
  H+  H0  1  0.96449124  0.84979430  0.33139762  1
  H+  H1  1  0.88873320  1.01571575  0.66641217  1
  H+  H2  1  0.13089227  0.53057713  0.50270145  1
  H+  H3  1  0.62778819  0.39631607  0.49954670  1
  H+  H4  1  0.88801151  0.62426660  0.32064183  1
  H+  H5  1  0.72460199  0.61633111  0.66026772  1
  H+  H6  1  0.47947419  0.88309047  0.65585459  1
  H+  H7  1  0.36449650  0.37624209  0.17011061  1
  H+  H8  1  0.36265449  0.22943816  0.67938450  1
  H+  H9  1  0.11044000  0.96668683  0.00828655  1
  H+  H10  1  0.36339961  0.89256597  0.82670859  1
  H+  H11  1  0.13124161  1.01870587  0.16302373  1
  H+  H12  1  0.37822316  0.37748594  0.49607986  1
  H+  H13  1  0.37860440  0.90651247  0.16888022  1
  H+  H14  1  0.10125990  0.88265384  0.34305293  1
  H+  H15  1  0.88663490  0.85200972  0.83003115  1
  H+  H16  1  0.13938445  0.38546568  0.33766860  1
  H+  H17  1  0.71254358  0.86413914  0.50528778  1
  H+  H18  1  0.02742217  0.63745994  0.83430293  1
  H+  H19  1  0.35327328  0.23136149  0.33844138  1
  H+  H20  1  0.37621208  0.46483960  0.49757494  1
  H+  H21  1  0.10086829  0.46250267  0.16465106  1
  H+  H22  1  0.52886859  0.88925415  0.00597571  1
  H+  H23  1  0.60245512  0.13125560  0.33890230  1
  H+  H24  1  0.60977058  0.38406909  0.16941490  1
  H+  H25  1  0.62331945  0.35789085  0.33052704  1
  H+  H26  1  0.27853741  0.64399044  0.83807690  1
  H+  H27  1  0.36567967  0.64263250  0.83598422  1
  H+  H28  1  0.38256516  0.25698976  0.98859925  1
  H+  H29  1  0.99485549  0.16601221  0.17938147  1
  H+  H30  1  0.49446757  0.10538022  0.50160886  1
  H+  H31  1  0.89378571  0.76857131  0.83460643  1
  H+  H32  1  0.65278813  0.82113211  0.90017429  1
  H+  H33  1  0.62353181  0.13923596  0.48993940  1
  H+  H34  1  0.12174746  0.50655579  0.99484051  1
  H+  H35  1  0.11927427  0.25248167  -0.00447572  1
  H+  H36  1  0.13122718  0.52324699  0.66259794  1
  H+  H37  1  0.13519010  0.35761826  0.17000465  1
  H+  H38  1  0.74210942  0.12058022  0.85323251  1
  H+  H39  1  0.78002001  0.37566191  0.83382413  1
  H+  H40  1  0.80057162  0.01230921  0.89202521  1
  H+  H41  1  0.88267208  0.61785834  0.17202542  1
  H+  H42  1  0.48475422  0.62106849  0.99449175  1
  H+  H43  1  0.02124070  0.63379720  0.48574411  1
  H+  H44  1  1.01121278  0.38389981  0.67819475  1
  H+  H45  1  0.68555285  0.52210637  0.17163142  1
  H+  H46  1  0.46813802  0.60819801  0.33438993  1
  H+  H47  1  0.21538880  0.33578100  0.32144228  1
  H+  H48  1  0.90126144  0.35714406  0.85349741  1
  H+  H49  1  0.34927387  0.69159864  0.53636931  1
  H+  H50  1  0.60773366  0.97396759  0.34053155  1
  H+  H51  1  0.48060597  0.96075206  0.21880330  1
  H+  H52  1  0.84597430  0.21286351  0.33863145  1
  H+  H53  1  0.76174358  0.39752439  0.64937829  1
  H+  H54  1  0.14548887  0.02901661  0.65939103  1
  H+  H55  1  0.41412355  0.32847161  0.24153178  1
  H+  H56  1  0.38684527  0.87516390  0.65709838  1
  H+  H57  1  0.13240535  0.77807404  0.32607750  1
  H+  H58  1  0.37956256  0.73809037  0.15239559  1
  H+  H59  1  0.83074946  0.82198064  0.47682871  1
  H+  H60  1  0.61508352  0.63209437  0.67897557  1
  H+  H61  1  0.52035753  0.90264396  0.49002209  1
  H+  H62  1  0.81848504  0.39306111  0.40314025  1
  H+  H63  1  1.03134647  0.38381847  0.83847250  1
  H+  H64  1  0.38031839  0.81642366  0.50026961  1
  H+  H65  1  0.62999452  0.10789270  0.17383156  1
  H+  H66  1  0.39358441  0.36180301  0.66846332  1
  H+  H67  1  0.71394617  0.35194098  0.17696006  1
  H+  H68  1  0.38018728  0.36415164  0.33316933  1
  H+  H69  1  0.83131757  0.73008129  0.18099166  1
  H+  H70  1  0.02990207  0.88496883  0.82212025  1
  H+  H71  1  0.03099229  0.64514991  0.67204945  1
  H+  H72  1  0.42624299  0.56366631  0.60278647  1
  H+  H73  1  0.20943228  0.45758590  0.37634798  1
  H+  H74  1  0.86473957  0.62484733  0.83616331  1
  H+  H75  1  0.38044296  0.11421735  0.32501434  1
  H+  H76  1  0.01104533  0.37647922  0.16486716  1
  H+  H77  1  0.13107884  1.02383041  0.84123348  1
  H+  H78  1  0.75644467  0.36633991  0.34461703  1
  H+  H79  1  0.38911009  0.49766056  0.66829957  1
  H+  H80  1  0.39595473  0.95581745  0.49110654  1
  H+  H81  1  0.38695957  0.50480520  0.18014345  1
  H+  H82  1  0.15501454  0.32538964  0.93197259  1
  H+  H83  1  0.17027990  0.83458045  0.90006614  1
  H+  H84  1  0.71789962  0.60794883  1.00117190  1
  H+  H85  1  0.87025487  0.73245676  0.64019835  1
  H+  H86  1  0.76655559  0.64363501  0.10240621  1
  H+  H87  1  0.67491317  0.31316149  0.68750927  1
  H+  H88  1  0.64158672  0.26412851  0.83932084  1
  H+  H89  1  0.62301956  0.85248200  0.32842607  1
  H+  H90  1  0.27319907  0.38181066  0.83287272  1
  H+  H91  1  0.34200050  0.68283876  0.40311172  1
  H+  H92  1  0.77410448  0.14287701  0.68114000  1
  H+  H93  1  0.79856679  0.13387272  0.02002563  1
  H+  H94  1  0.14082595  0.86206360  0.99570636  1
  H+  H95  1  0.36608640  0.88663584  1.00381738  1
  H+  H96  1  0.13209072  0.89695441  0.67235704  1
  H+  H97  1  0.09393711  0.11310157  0.33337736  1
  H+  H98  1  0.14077138  0.10962805  0.99767505  1
  H+  H99  1  1.01522903  0.63777824  0.15939207  1
  H+  H100  1  0.37898861  1.02183410  0.17131022  1
  H+  H101  1  0.86306890  0.34751978  0.33186062  1
  H+  H102  1  0.37668234  0.23537804  0.82734589  1
  H+  H103  1  0.60513044  0.89341688  0.67213857  1
  H+  H104  1  0.14023187  0.86430062  0.84010996  1
  H+  H105  1  0.40053037  0.77627115  -0.02314850  1
  H+  H106  1  0.48674480  0.59558445  0.66742955  1
  H+  H107  1  0.91626710  0.58125374  0.91086782  1
  H+  H108  1  0.95333436  0.34802316  0.33047162  1
  H+  H109  1  0.87908857  0.36889527  0.65377030  1
  H+  H110  1  0.88674203  0.22033908  0.01026316  1
  H+  H111  1  0.60234391  0.22120653  0.34049043  1
  H+  H112  1  0.61470575  0.37448906  0.82971724  1
  H+  H113  1  0.87309397  0.17524396  0.16931875  1
  H+  H114  1  0.59400532  0.22288872  0.65151806  1
  H+  H115  1  0.62341032  0.60299674  0.33038921  1
  H+  H116  1  0.63677473  0.27132561  0.50845410  1
  H+  H117  1  0.36220614  0.38082036  0.82788922  1
  H+  H118  1  0.97073592  0.84886388  0.58865784  1
  H+  H119  1  0.89660693  0.53799126  0.64034793  1
  H+  H120  1  0.38709255  0.51658665  0.84233635  1
  H+  H121  1  0.59455371  0.71068367  0.66831826  1
  H+  H122  1  0.64570905  0.02406670  1.01364351  1
  H+  H123  1  0.62090382  0.13786291  1.01449147  1
  H+  H124  1  0.14289942  0.36333536  0.84427064  1
  H+  H125  1  0.23525874  0.62707601  0.32907751  1
  H+  H126  1  0.52484252  0.90260535  0.17197006  1
  H+  H127  1  0.38174829  1.02215433  0.83825460  1
  H+  H128  1  0.72606788  0.86059259  0.98769618  1
  H+  H129  1  0.39218371  0.02129618  0.99125599  1
  H+  H130  1  0.59699792  0.71943791  0.33918518  1
  H+  H131  1  0.77323217  0.14976393  0.16729411  1
  H+  H132  1  0.60414658  0.47512462  0.34248072  1
  H+  H133  1  0.27742515  0.88702370  0.00509740  1
  H+  H134  1  0.71022893  0.84336775  0.83870196  1
  H+  H135  1  0.50540504  0.62853659  0.82929592  1
  H+  H136  1  0.85190867  0.96570979  0.49470911  1
  H+  H137  1  -0.02822191  0.84482401  0.00457833  1
  H+  H138  1  0.38912046  0.78268170  0.32040413  1
  H+  H139  1  0.11520862  0.64526056  0.49187987  1
  H+  H140  1  0.87422908  0.28028625  0.17408305  1
  H+  H141  1  0.89256385  0.51995555  0.85265537  1
  H+  H142  1  0.21232521  0.10396107  0.31142137  1
  H+  H143  1  0.61358307  0.63739924  0.15468334  1
  H+  H144  1  0.92269333  0.74536578  0.18681756  1
  H+  H145  1  0.41722973  0.08377087  0.89785414  1
  H+  H146  1  0.61808757  0.38324868  0.67503668  1
  H+  H147  1  0.84941782  0.83989726  0.14980512  1
  H+  H148  1  0.11249815  0.13621630  0.15007975  1
  H+  H149  1  0.72390296  0.59790854  0.85120655  1
  H+  H150  1  0.48015131  0.87182611  0.83474619  1
  H+  H151  1  0.27734328  0.39257599  0.67349826  1
  H+  H152  1  0.35886096  0.13346277  0.16045732  1
  H+  H153  1  0.23758301  0.34918059  0.50581195  1
  H+  H154  1  0.90890996  0.15809042  0.64715835  1
  H+  H155  1  0.86687650  0.96615267  0.00544241  1
  H+  H156  1  0.85720481  0.36851471  0.49875517  1
  H+  H157  1  0.77580717  0.12772074  0.49277052  1
  H+  H158  1  0.71064210  0.83711296  0.67782761  1
  H+  H159  1  0.23944121  0.57674697  0.16302376  1
  H+  H160  1  0.21229660  0.44205864  0.62115186  1
  H+  H161  1  0.22105026  0.86741741  0.32679753  1
  H+  H162  1  0.46822017  0.60129732  0.17498568  1
  H+  H163  1  0.41232420  0.27348345  0.51798734  1
  H+  H164  1  0.12317163  0.23069993  0.15116835  1
  H+  H165  1  0.59936105  0.71745738  0.16057667  1
  H+  H166  1  0.39166786  0.13031399  0.50995290  1
  H+  H167  1  0.80624021  0.90538737  0.66838542  1
  H+  H168  1  0.48909781  0.61013312  0.51385450  1
  H+  H169  1  0.89293684  0.51482251  0.49887306  1
  H+  H170  1  0.22073124  0.10885953  0.16423442  1
  H+  H171  1  0.84713781  0.62598752  0.02380252  1
  H+  H172  1  0.22687996  0.87103201  0.17620754  1
  H+  H173  1  0.25786070  0.11584244  0.50737504  1
  H+  H174  1  0.85386242  0.72233394  0.34046156  1
  H+  H175  1  0.39683512  0.60266655  0.51882199  1
  H+  H176  1  0.02994822  0.13455817  0.00192379  1
  H+  H177  1  0.13721166  0.61181742  0.84534877  1
  H+  H178  1  0.35241544  -0.02611145  0.33627508  1
  H+  H179  1  0.27240550  0.88942210  0.82897802  1
  H+  H180  1  0.61352244  0.88872571  0.82899531  1
  H+  H181  1  0.61065784  0.72854099  0.49490557  1
  H+  H182  1  0.36999521  0.10716164  0.66673888  1
  H+  H183  1  0.46918222  0.11353712  0.32716984  1
  H+  H184  1  0.00327197  0.36928207  0.00966451  1
  H+  H185  1  0.91202192  -0.00124260  0.64718640  1
  H+  H186  1  0.59966450  0.73020022  0.82984879  1
  H+  H187  1  0.86467538  0.12567166  0.48775269  1
  H+  H188  1  0.54024171  0.39682447  0.50345095  1
  H+  H189  1  0.35560767  -0.02270801  0.67324321  1
  H+  H190  1  0.37211424  0.13660848  0.82668697  1
  H+  H191  1  0.22597002  0.10346080  0.99688244  1
  H+  H192  1  0.14586269  0.26367507  0.50761419  1
  H+  H193  1  0.36479451  0.12913436  1.00660870  1
  H+  H194  1  0.85029107  0.92632255  0.15781000  1
  H+  H195  1  0.45514140  0.10502074  0.65135809  1
  H+  H196  1  0.63640335  0.77238236  -0.00756488  1
  H+  H197  1  0.08341367  0.67120713  0.39791628  1
  H+  H198  1  0.11759617  0.88465807  0.16432112  1
  H+  H199  1  0.58681341  0.11796577  0.79437775  1
  H+  H200  1  0.57792339  0.42494389  0.11690710  1
  H+  H201  1  0.11350445  0.34882890  -0.00639488  1
  H+  H202  1  0.63631074  0.50948514  0.85034405  1
  H+  H203  1  0.13195393  0.60236916  0.17495978  1
  H+  H204  1  0.37592176  0.74301272  0.62756254  1
  H+  H205  1  0.74691086  0.36852406  0.99705789  1
  H+  H206  1  0.35455091  0.88736510  0.33657221  1
  H+  H207  1  0.99971590  0.16438605  0.64301968  1
  H+  H208  1  0.11438549  0.14139072  0.83215623  1
  H+  H209  1  0.88411687  0.84646445  0.99779457  1
  H+  H210  1  0.10952969  0.63094092  1.00434833  1
  H+  H211  1  0.12040365  0.14468955  0.66835381  1
  H+  H212  1  0.61461288  0.47209328  0.68080531  1
  H+  H213  1  0.39103929  0.78054209  0.83908486  1
  H+  H214  1  0.51164897  0.13120823  0.81979626  1
  H+  H215  1  0.63629279  0.12038516  0.65253989  1
  H+  H216  1  0.64026604  0.03454521  0.66022521  1
  H+  H217  1  0.39163804  0.35038732  0.98933561  1
  H+  H218  1  0.33932059  0.57459538  0.16217533  1
  H+  H219  1  0.53657218  0.77381582  0.62410410  1
  H+  H220  1  0.38942053  0.60825962  0.99613579  1
  H+  H221  1  0.09413550  0.96554030  0.33766359  1
  H+  H222  1  0.22868494  0.36314976  0.16964619  1
  H+  H223  1  0.11241554  0.64164354  0.33827836  1
  H+  H224  1  0.48105085  0.11121811  -0.00860644  1
  H+  H225  1  0.47027351  0.36387442  0.33665449  1
  H+  H226  1  0.14241177  0.77424926  -0.00620019  1
  H+  H227  1  0.18325777  0.35325969  0.58920099  1
  H+  H228  1  0.14105352  0.77791865  0.66235662  1
  H+  H229  1  0.59398154  0.48902620  0.01912320  1
  H+  H230  1  -0.02706411  0.61511193  0.00037552  1
  H+  H231  1  0.01017262  0.55656748  0.12958235  1
  H+  H232  1  0.14049544  0.27139494  0.84309420  1
  H+  H233  1  0.26881688  0.14210558  0.67803064  1
  H+  H234  1  0.47883347  0.36378739  0.18529371  1
  H+  H235  1  0.17517084  0.02618452  0.50055134  1
  H+  H236  1  0.47933047  0.35610366  0.83797580  1
  H+  H237  1  0.15618219  0.53348242  0.32787212  1
  H+  H238  1  0.62264683  -0.01813326  0.83400841  1
  H+  H239  1  0.81074842  0.65601343  0.59545163  1
  H+  H240  1  0.85782596  0.38477146  0.17014439  1
  H+  H241  1  0.40232530  0.48622274  0.01568459  1
  H+  H242  1  0.26984064  0.65649381  0.49539750  1
  H+  H243  1  0.98081120  0.63140033  0.31981955  1
  H+  H244  1  0.81938103  0.01334601  0.17911722  1
  H+  H245  1  0.63839867  0.02409305  0.50407509  1
  H+  H246  1  0.13959854  0.61532962  0.66138601  1
  H+  H247  1  0.24918949  0.61219398  0.01114486  1
  H+  H248  1  0.95283272  0.09063979  0.32790471  1
  H+  H249  1  0.04403870  0.89682236  0.67224470  1
  H+  H250  1  0.51765622  0.88698922  0.34151121  1
  H+  H251  1  0.13943024  0.52333249  0.84395894  1
  H+  H252  1  0.35306173  0.47288724  0.34548308  1
  H+  H253  1  0.85549109  0.08853965  0.84838906  1
  H+  H254  1  0.02112218  0.45549016  0.44137357  1
  H+  H255  1  0.71180893  0.60291899  0.32956977  1
  H+  H256  1  0.87457049  0.22679278  0.83990468  1
  H+  H257  1  0.23141314  0.86513157  0.65847496  1
  H+  H258  1  0.58893926  0.92860481  0.73481172  1
  H+  H259  1  0.87260213  0.38752893  0.01208462  1
  H+  H260  1  0.61496773  0.88485138  0.00864807  1
  H+  H261  1  0.61354876  0.63746213  0.00603501  1
  H+  H262  1  0.13505140  0.23822296  0.67417258  1
  H+  H263  1  0.62365485  0.85274467  0.17197607  1
  H+  H264  1  0.42609925  0.84367668  0.92430584  1
  H+  H265  1  0.65686911  0.12152828  0.87189070  1
  H+  H266  1  0.91821844  0.87481913  0.63386059  1
  H+  H267  1  0.10063714  0.38550315  0.67501797  1
  H+  H268  1  0.12275512  0.12847085  0.48663123  1
  H+  H269  1  0.71336492  0.10632587  0.32917856  1
  H+  H270  1  0.15987097  0.58243415  0.56612917  1
  H+  H271  1  0.85702066  0.23472888  0.68419718  1
  H+  H272  1  0.80712875  0.92163909  0.43241401  1
  H+  H273  1  0.36478666  0.64145334  0.34674436  1
  H+  H274  1  0.77262283  0.37682184  0.49987508  1
  H+  H275  1  0.02542581  0.88096960  0.16051709  1
  H+  H276  1  0.29586485  0.64930181  0.62848369  1
  H+  H277  1  0.84243632  0.46533903  0.17312699  1
  H+  H278  1  0.90239586  0.10543017  0.99645807  1
  H+  H279  1  0.36064130  0.22312154  0.16177724  1
  H+  H280  1  0.51745713  0.38961243  0.01488655  1
  H+  H281  1  0.86172574  1.03092721  0.16262815  1
  H+  H282  1  0.62369249  0.26410406  0.17539012  1
  H+  H283  1  0.97840014  0.10149572  0.49674542  1
  H+  H284  1  0.70661784  0.83982916  0.16969493  1
  H+  H285  1  0.40409570  0.73274876  0.17806518  1
  H+  H286  1  0.85316471  0.71765401  1.02157334  1
  H+  H287  1  0.11907194  0.77295634  0.50539855  1
  H+  H288  1  0.79723315  0.87939017  0.76650287  1
  H+  H289  1  0.92183738  0.06677528  0.93755191  1
  H+  H290  1  0.82970394  0.64524889  0.77601609  1
  H+  H291  1  0.08501969  0.66909790  0.73473523  1
  H+  H292  1  0.11603679  0.72665282  0.83113309  1
  H+  H293  1  0.43132006  0.33470506  0.57511017  1
  H+  H294  1  0.67676934  0.32353215  0.89974027  1
  H+  H295  1  0.84027015  0.28103313  0.97955507  1
  H+  H296  1  0.15752743  0.07865475  0.90148861  1
  H+  H297  1  0.67128250  0.08560354  0.56328078  1
  H+  H298  1  0.90988237  0.32541990  0.60417343  1
  H+  H299  1  0.58614919  0.40703854  0.77099488  1
  H+  H300  1  0.15934155  0.57092579  0.93654826  1
  H+  H301  1  0.58645624  0.16618119  0.43179785  1
  H+  H302  1  0.06567060  0.39940992  0.06758484  1
  H+  H303  1  0.42085016  0.57783507  0.90212322  1
  H+  H304  1  0.09381724  0.20074701  0.33579950  1
  H+  H305  1  0.93847583  0.13799978  0.23961530  1
  H+  H306  1  0.48356886  0.36176571  0.67017726  1
  H+  H307  1  0.57322696  0.66185382  0.39996101  1
  H+  H308  1  0.02857189  -0.08895938  0.50180026  1
  H+  H309  1  0.92325125  0.32778806  0.91605373  1
  H+  H310  1  0.92699434  0.58454019  0.55186754  1
  H+  H311  1  0.82232998  0.15531458  0.39878248  1
  H+  H312  1  0.33507614  0.16143947  0.06564598  1
  H+  H313  1  0.90726214  0.33659667  0.23563549  1
  H+  H314  1  0.45868506  0.44950423  0.04502903  1
  H+  H315  1  0.63720243  1.02206554  0.17414463  1
  H+  H316  1  0.33780479  0.91781492  0.10485760  1
  H+  H317  1  0.08204395  0.41333183  0.77509825  1
  H+  H318  1  0.88451747  0.25586918  0.50884452  1
  H+  H319  1  0.65176618  0.32644768  0.27099704  1
  H+  H320  1  0.83658656  0.17152392  0.77752239  1
  H+  H321  1  0.57195473  0.66624351  0.76611707  1
  H+  H322  1  0.62126474  0.22656528  0.00835162  1
  H+  H323  1  0.65589698  0.57973953  0.60916138  1
  H+  H324  1  0.15134117  0.07315880  0.25372082  1
  H+  H325  1  0.82476782  0.45079419  0.70240257  1
  H+  H326  1  0.40746191  0.57684641  0.27556498  1
  H+  H327  1  0.51379197  0.13170278  0.16084002  1
  H+  H328  1  0.88751369  0.52325057  1.00377405  1
  H+  H329  1  0.32859126  0.40983657  0.40350431  1
  H+  H330  1  0.68473233  0.08394323  0.95667856  1
  H+  H331  1  0.15900006  0.31386615  0.26091399  1
  H+  H332  1  0.89979398  0.62780554  0.63861347  1
  H+  H333  1  0.83201944  0.94661686  0.82331903  1
  H+  H334  1  0.41530517  0.32224533  0.89604569  1
  H+  H335  1  0.33638855  0.16902758  0.76414994  1
  H+  H336  1  0.62229100  0.86361456  0.50013667  1
  H+  H337  1  0.96863301  0.34887052  0.50738416  1
  H+  H338  1  0.08965403  0.17405447  0.06333644  1
  H+  H339  1  0.65652670  0.07868858  0.26858809  1
  H+  H340  1  0.38242166  0.17109951  0.45046371  1
  H+  H341  1  0.56689041  0.17026813  0.71282150  1
  H+  H342  1  0.33084097  0.91628031  0.73231990  1
  H+  H343  1  0.83694817  0.41482950  0.07257454  1
  H+  H344  1  0.08472448  0.15289782  0.42927590  1
  H+  H345  1  0.40973895  0.08321720  0.23071929  1
  H+  H346  1  0.57976909  0.92068987  0.43071982  1
  H+  H347  1  0.66085385  0.57481140  0.93919621  1
  H+  H348  1  0.86857773  0.09878751  0.32486749  1
  H+  H349  1  0.15156543  0.83099455  0.56562009  1
  H+  H350  1  0.82434320  0.65961315  0.39739311  1
  H+  H351  1  0.31861800  0.69691955  0.04644227  1
  H+  H352  1  0.16955944  0.58544602  0.23801360  1
  H+  H353  1  0.09791523  0.92209084  0.76783975  1
  H+  H354  1  0.57671800  0.16341053  0.10280643  1
  H+  H355  1  0.29664842  0.59509334  0.09750915  1
  H+  H356  1  0.93607130  0.63902512  0.23433883  1
  H+  H357  1  0.64715025  0.81788690  0.26916630  1
  H+  H358  1  0.17865993  0.08673003  0.59907343  1
  H+  H359  1  0.05974402  0.84301734  0.52059997  1
  H+  H360  1  0.62141377  0.64465072  0.49758260  1
  H+  H361  1  0.78666275  0.68722918  0.50515940  1
  H+  H362  1  0.09119918  0.17650252  0.77272386  1
  H+  H363  1  0.58155193  0.41786534  0.40303574  1
  H+  H364  1  0.57870849  0.91224496  0.10818938  1
  H+  H365  1  0.42746217  0.85804077  0.26639117  1
  H+  H366  1  0.64784414  0.52938017  0.51222144  1
  H+  H367  1  0.32887946  0.41094975  0.73905745  1
  H+  H368  1  0.62318289  0.81343109  0.58550030  1
  H+  H369  1  0.35315938  0.41562539  0.10807483  1
  H+  H370  1  0.85279332  0.40435078  0.78310667  1
  H+  H371  1  0.66415385  0.32664103  0.57024211  1
  H+  H372  1  0.90405124  0.79863951  0.48791370  1
  H+  H373  1  0.29189061  0.16251936  0.38732734  1
  H+  H374  1  0.92874889  0.10150460  0.55566135  1
  H+  H375  1  0.08495124  0.90815308  0.06779636  1
  H+  H376  1  0.16508106  0.84185137  0.23459798  1
  H+  H377  1  0.08901849  0.42834005  0.42533707  1
  H+  H378  1  0.41972689  0.87143280  0.55991084  1
  H+  H379  1  0.90515955  0.81226351  0.27247054  1
  H+  H380  1  0.58146312  0.66691206  0.06505451  1
  H+  H381  1  0.82530158  0.89541047  0.05873500  1
  H+  H382  1  0.08010119  0.65857190  0.06379873  1
  H+  H383  1  0.66014462  0.37048146  0.99034120  1
  O2-  O384  1  0.08833497  0.17173077  0.13350156  1
  O2-  O385  1  0.09034680  0.15707660  0.47491969  1
  O2-  O386  1  0.09213964  0.17996192  0.81741846  1
  O2-  O387  1  0.07132121  0.40372432  0.14788173  1
  O2-  O388  1  0.05697932  0.43520525  0.45999579  1
  O2-  O389  1  0.09038382  0.41646589  0.82001990  1
  O2-  O390  1  0.05182133  0.61616440  0.13917538  1
  O2-  O391  1  0.08395986  0.67248493  0.47378919  1
  O2-  O392  1  0.08632564  0.66544012  0.81683361  1
  O2-  O393  1  0.08420904  0.91306646  0.14530479  1
  O2-  O394  1  0.00834082  0.85609220  0.52188282  1
  O2-  O395  1  0.09334736  0.91749872  0.81292804  1
  O2-  O396  1  0.32946371  0.16453931  0.14380309  1
  O2-  O397  1  0.36728710  0.16694521  0.49343793  1
  O2-  O398  1  0.34599286  0.17229275  0.81106026  1
  O2-  O399  1  0.33750469  0.40907740  0.15233653  1
  O2-  O400  1  0.34634763  0.40610903  0.48048419  1
  O2-  O401  1  0.33270443  0.41260265  0.81445106  1
  O2-  O402  1  0.28395342  0.56651538  0.13904526  1
  O2-  O403  1  0.33362607  0.69162377  0.49234681  1
  O2-  O404  1  0.33939549  0.67726343  0.82475726  1
  O2-  O405  1  0.33477570  0.92158198  0.14950389  1
  O2-  O406  1  0.38804163  1.00361037  0.47493499  1
  O2-  O407  1  0.33305773  0.92334372  0.81295309  1
  O2-  O408  1  0.57577981  0.16218036  0.14806557  1
  O2-  O409  1  0.59028637  0.16795115  0.47761480  1
  O2-  O410  1  0.57073539  0.16177907  0.80037567  1
  O2-  O411  1  0.58815355  0.42501520  0.16139730  1
  O2-  O412  1  0.59980252  0.43007285  0.48687014  1
  O2-  O413  1  0.58207376  0.40279399  0.81664809  1
  O2-  O414  1  0.57238174  0.65617560  0.14434789  1
  O2-  O415  1  0.58262898  0.66591539  0.48408402  1
  O2-  O416  1  0.56795207  0.66774829  0.81192540  1
  O2-  O417  1  0.58400372  0.91442513  0.15300415  1
  O2-  O418  1  0.58064514  0.92211197  0.47707842  1
  O2-  O419  1  0.59014811  0.92524597  0.81351747  1
  O2-  O420  1  0.83106661  0.19009653  0.15094107  1
  O2-  O421  1  0.83563522  0.15889082  0.47611849  1
  O2-  O422  1  0.83658780  0.16710952  0.82311353  1
  O2-  O423  1  0.82222350  0.41057456  0.15262189  1
  O2-  O424  1  0.83163834  0.40232051  0.48234289  1
  O2-  O425  1  0.84381769  0.40987952  0.82611830  1
  O2-  O426  1  0.73826612  0.64078080  0.14306598  1
  O2-  O427  1  0.76303550  0.62766351  0.52697186  1
  O2-  O428  1  0.83101104  0.65162782  0.82000382  1
  O2-  O429  1  0.81925043  0.87079870  0.13727011  1
  O2-  O430  1  0.81066206  0.90868283  0.47672702  1
  O2-  O431  1  0.80487500  0.88506786  0.81142857  1
  O2-  O432  1  0.15901023  0.08019457  0.17664571  1
  O2-  O433  1  0.19478526  0.08375547  0.51623972  1
  O2-  O434  1  0.15498723  0.08328608  0.85684959  1
  O2-  O435  1  0.16799157  0.32954264  0.18396997  1
  O2-  O436  1  0.17869327  0.32374991  0.52275612  1
  O2-  O437  1  0.17203889  0.33290307  0.86155927  1
  O2-  O438  1  0.16535886  0.57672618  0.19233026  1
  O2-  O439  1  0.16389880  0.58865300  0.52071862  1
  O2-  O440  1  0.16740313  0.58217939  0.86222177  1
  O2-  O441  1  0.16570591  0.84342567  0.18894669  1
  O2-  O442  1  0.13420255  0.83029714  0.52258519  1
  O2-  O443  1  0.17052814  0.83296253  0.85459147  1
  O2-  O444  1  0.41016059  0.08410469  0.18513532  1
  O2-  O445  1  0.43442976  0.07102616  0.52015426  1
  O2-  O446  1  0.41488673  0.08456404  0.85196835  1
  O2-  O447  1  0.41659680  0.32882359  0.19606142  1
  O2-  O448  1  0.43497893  0.33458642  0.52972148  1
  O2-  O449  1  0.41669322  0.32533830  0.84996796  1
  O2-  O450  1  0.40842802  0.56722314  0.19165042  1
  O2-  O451  1  0.42868595  0.57426791  0.53174672  1
  O2-  O452  1  0.42006998  0.57784489  0.85642649  1
  O2-  O453  1  0.45103847  0.90214145  0.20311597  1
  O2-  O454  1  0.41785188  0.87596257  0.51454878  1
  O2-  O455  1  0.42065001  0.84343113  0.85124707  1
  O2-  O456  1  0.66339892  0.08204213  0.19055156  1
  O2-  O457  1  0.67238263  0.08548472  0.51794054  1
  O2-  O458  1  0.68270750  0.08509997  0.87234732  1
  O2-  O459  1  0.65347214  0.32449215  0.19144028  1
  O2-  O460  1  0.66717585  0.33108247  0.52514662  1
  O2-  O461  1  0.67603471  0.32395087  0.85423151  1
  O2-  O462  1  0.74582154  0.57216209  0.17408957  1
  O2-  O463  1  0.66903031  0.58861715  0.53170766  1
  O2-  O464  1  0.66448588  0.56834033  0.86725275  1
  O2-  O465  1  0.64730730  0.81430174  0.18491015  1
  O2-  O466  1  0.65004586  0.83141868  0.51804501  1
  O2-  O467  1  0.64881362  0.81916973  0.85407939  1
  O2-  O468  1  0.95839186  0.17944866  0.20505398  1
  O2-  O469  1  0.91934965  0.07600034  0.51372861  1
  O2-  O470  1  0.85312677  0.03688882  0.86793870  1
  O2-  O471  1  0.91025450  0.34312110  0.19042097  1
  O2-  O472  1  0.91170487  0.31559887  0.52658936  1
  O2-  O473  1  0.93095682  0.32699828  0.86852172  1
  O2-  O474  1  0.94051162  0.65609213  0.18776623  1
  O2-  O475  1  0.92439749  0.57746121  0.50712046  1
  O2-  O476  1  0.91963243  0.58090661  0.86515682  1
  O2-  O477  1  0.89081770  0.77772879  0.18821880  1
  O2-  O478  1  0.84285577  0.77360750  0.47638726  1
  O2-  O479  1  0.92680643  0.83150297  0.83927424  1
  O2-  O480  1  0.15134040  0.07257972  0.29931299  1
  O2-  O481  1  0.17305423  0.08995746  0.64372766  1
  O2-  O482  1  0.16448024  0.07324472  0.98404621  1
  O2-  O483  1  0.15554450  0.30976320  0.30647222  1
  O2-  O484  1  0.19279050  0.38225390  0.63151109  1
  O2-  O485  1  0.14662359  0.32023756  0.97855439  1
  O2-  O486  1  0.17548703  0.59194994  0.31220583  1
  O2-  O487  1  0.16414737  0.58096637  0.64374270  1
  O2-  O488  1  0.15728888  0.56820622  0.98269369  1
  O2-  O489  1  0.15961769  0.83840831  0.31142442  1
  O2-  O490  1  0.16984982  0.83711981  0.64482729  1
  O2-  O491  1  0.17384597  0.83471163  0.97923582  1
  O2-  O492  1  0.41042311  0.08529366  0.30858459  1
  O2-  O493  1  0.39185019  0.07140404  0.64881379  1
  O2-  O494  1  0.42133844  0.08161026  0.97484669  1
  O2-  O495  1  0.40972241  0.33242027  0.31985932  1
  O2-  O496  1  0.42284409  0.33094962  0.65370757  1
  O2-  O497  1  0.41449782  0.31605108  0.96996714  1
  O2-  O498  1  0.40545295  0.57759452  0.32055453  1
  O2-  O499  1  0.42587823  0.55998287  0.64951359  1
  O2-  O500  1  0.42351813  0.58409961  0.97939101  1
  O2-  O501  1  0.42016726  0.84492977  0.31262215  1
  O2-  O502  1  0.42234569  0.85337154  0.63605764  1
  O2-  O503  1  0.42569239  0.83778282  0.97042396  1
  O2-  O504  1  0.65251534  0.07802757  0.31404782  1
  O2-  O505  1  0.67230687  0.09397604  0.64352665  1
  O2-  O506  1  0.67924689  0.08604122  1.00124080  1
  O2-  O507  1  0.65102755  0.32463542  0.31634128  1
  O2-  O508  1  0.66611630  0.33840547  0.65090550  1
  O2-  O509  1  0.68669333  0.33693386  0.97833473  1
  O2-  O510  1  0.65040455  0.56918484  0.31736037  1
  O2-  O511  1  0.66074927  0.58312417  0.65469833  1
  O2-  O512  1  0.65753255  0.58017392  0.98522817  1
  O2-  O513  1  0.64345337  0.81338613  0.31392731  1
  O2-  O514  1  0.59846483  0.79738414  0.62922957  1
  O2-  O515  1  0.66417075  0.83146035  0.97432360  1
  O2-  O516  1  0.90022575  0.07383718  0.30375111  1
  O2-  O517  1  0.95322724  0.16320929  0.61830366  1
  O2-  O518  1  0.93213227  0.07255644  0.98191971  1
  O2-  O519  1  0.89612127  0.31893902  0.31281969  1
  O2-  O520  1  0.90835108  0.33477519  0.64903111  1
  O2-  O521  1  0.90056876  0.32559005  0.98232312  1
  O2-  O522  1  0.92576852  0.60870482  0.29713230  1
  O2-  O523  1  0.93560869  0.60024658  0.63222776  1
  O2-  O524  1  0.91127175  0.58330363  0.98817183  1
  O2-  O525  1  0.90351421  0.81555426  0.31697613  1
  O2-  O526  1  0.94612266  0.84040691  0.63157640  1
  O2-  O527  1  0.90954987  0.80894766  0.99549817  1
  O2-  O528  1  0.09109928  0.17452072  0.01643894  1
  O2-  O529  1  0.06565482  0.14237228  0.35381840  1
  O2-  O530  1  0.09469634  0.17874563  0.68467310  1
  O2-  O531  1  0.06525138  0.39864180  0.02202446  1
  O2-  O532  1  0.15092782  0.43786591  0.36213130  1
  O2-  O533  1  0.07156961  0.41360147  0.69424698  1
  O2-  O534  1  0.08391262  0.66566510  0.01887791  1
  O2-  O535  1  0.08196517  0.67146591  0.35215144  1
  O2-  O536  1  0.09024209  0.67268133  0.68958656  1
  O2-  O537  1  0.08352190  0.90581608  0.02229611  1
  O2-  O538  1  0.06742900  0.90921889  0.35808382  1
  O2-  O539  1  0.10391484  0.93006982  0.68766819  1
  O2-  O540  1  0.33334712  0.15890426  0.02006181  1
  O2-  O541  1  0.31970478  0.16768935  0.34839638  1
  O2-  O542  1  0.32804945  0.16991087  0.69662880  1
  O2-  O543  1  0.39824386  0.43589904  0.03760091  1
  O2-  O544  1  0.31998077  0.41121950  0.35868020  1
  O2-  O545  1  0.33495947  0.41292522  0.69308848  1
  O2-  O546  1  0.30835729  0.64099392  0.03253338  1
  O2-  O547  1  0.33588695  0.67451394  0.35872529  1
  O2-  O548  1  0.35522384  0.68322157  0.61316613  1
  O2-  O549  1  0.33868298  0.91872131  0.01946772  1
  O2-  O550  1  0.31983230  0.91349731  0.34974363  1
  O2-  O551  1  0.33120056  0.91517429  0.68708241  1
  O2-  O552  1  0.58627823  0.16648689  0.02261566  1
  O2-  O553  1  0.57217794  0.16073200  0.35630433  1
  O2-  O554  1  0.56777433  0.16341496  0.66831082  1
  O2-  O555  1  0.55049906  0.43765186  0.04327324  1
  O2-  O556  1  0.57284581  0.41287795  0.35840356  1
  O2-  O557  1  0.58491610  0.41131756  0.69412323  1
  O2-  O558  1  0.58362331  0.66980134  0.01962256  1
  O2-  O559  1  0.56676947  0.65757862  0.35527632  1
  O2-  O560  1  0.57702857  0.65699140  0.69209365  1
  O2-  O561  1  0.58629633  0.91564709  0.02553820  1
  O2-  O562  1  0.57844474  0.91437716  0.35750347  1
  O2-  O563  1  0.58579250  0.93139543  0.68952056  1
  O2-  O564  1  0.86128715  0.15796904  0.01740776  1
  O2-  O565  1  0.81607037  0.15247408  0.35350406  1
  O2-  O566  1  0.83241543  0.17475471  0.69971611  1
  O2-  O567  1  0.84118385  0.41910765  0.02739292  1
  O2-  O568  1  0.81695347  0.38971006  0.35796782  1
  O2-  O569  1  0.82778599  0.43333207  0.66100509  1
  O2-  O570  1  0.81498521  0.65523557  0.03578559  1
  O2-  O571  1  0.82206706  0.65845877  0.35317879  1
  O2-  O572  1  0.83146195  0.66889985  0.63892700  1
  O2-  O573  1  0.82723737  0.90385323  0.01392431  1
  O2-  O574  1  0.80275047  0.94970977  0.35967861  1
  O2-  O575  1  0.76869595  0.85195302  0.69016709  1
