# generated using pymatgen
data_H2O
_symmetry_space_group_name_H-M   'P 1'
_cell_length_a   17.99008854
_cell_length_b   17.97767748
_cell_length_c   21.98724856
_cell_angle_alpha   90.03060371
_cell_angle_beta   89.98128776
_cell_angle_gamma   119.99193601
_symmetry_Int_Tables_number   1
_chemical_formula_structural   H2O
_chemical_formula_sum   'H384 O192'
_cell_volume   6158.90669353
_cell_formula_units_Z   192
loop_
 _symmetry_equiv_pos_site_id
 _symmetry_equiv_pos_as_xyz
  1  'x, y, z'
loop_
 _atom_type_symbol
 _atom_type_oxidation_number
  H+  1.0
  O2-  -2.0
loop_
 _atom_site_type_symbol
 _atom_site_label
 _atom_site_symmetry_multiplicity
 _atom_site_fract_x
 _atom_site_fract_y
 _atom_site_fract_z
 _atom_site_occupancy
  H+  H0  1  0.60589124  0.39899157  0.49925144  1
  H+  H1  1  0.92279502  0.09328245  0.27592087  1
  H+  H2  1  0.10544860  0.13304484  0.50153560  1
  H+  H3  1  0.74152178  0.62397963  0.50957975  1
  H+  H4  1  0.61942505  0.62624086  0.82674345  1
  H+  H5  1  0.48596206  0.35977755  0.99224762  1
  H+  H6  1  0.61514017  0.83597944  0.65655337  1
  H+  H7  1  0.11490432  0.88700748  0.54173680  1
  H+  H8  1  0.21909347  0.61541857  0.32360377  1
  H+  H9  1  0.47954494  0.36130631  0.84200222  1
  H+  H10  1  0.63707286  0.12118971  0.66193295  1
  H+  H11  1  0.14185936  0.85896148  0.99606193  1
  H+  H12  1  0.61362065  0.14010668  1.00924863  1
  H+  H13  1  0.63097579  1.03207172  0.67034998  1
  H+  H14  1  0.64722813  0.11369153  0.51226898  1
  H+  H15  1  0.61150592  0.46714169  0.67551684  1
  H+  H16  1  0.64163251  0.51315824  0.84082964  1
  H+  H17  1  0.35673923  0.71747626  0.66482715  1
  H+  H18  1  0.61319259  0.75415559  0.68566718  1
  H+  H19  1  0.58046180  0.85725661  0.48686402  1
  H+  H20  1  0.63627430  0.02587089  0.99333746  1
  H+  H21  1  0.37776797  0.37148533  0.51444858  1
  H+  H22  1  0.88342995  0.86420175  0.33570296  1
  H+  H23  1  0.01386501  0.38537196  0.49163246  1
  H+  H24  1  0.85818855  0.23068692  0.67111629  1
  H+  H25  1  0.71877355  0.34114224  0.32226523  1
  H+  H26  1  0.34852597  0.72765402  0.34263932  1
  H+  H27  1  0.03178032  0.14263768  0.16146058  1
  H+  H28  1  0.89477514  0.31416033  0.22037801  1
  H+  H29  1  0.09260736  0.67818834  0.74872827  1
  H+  H30  1  0.71950594  0.35906126  0.65279316  1
  H+  H31  1  0.13509022  0.78040105  0.16565373  1
  H+  H32  1  0.14894611  0.78043796  0.31579694  1
  H+  H33  1  0.51782323  0.89141574  0.00444890  1
  H+  H34  1  0.52102200  0.13347300  0.67264726  1
  H+  H35  1  0.13139877  1.02498995  0.17717622  1
  H+  H36  1  0.10231486  0.47420138  0.49242139  1
  H+  H37  1  0.45698933  0.10242502  0.50779104  1
  H+  H38  1  0.70777359  0.33945161  0.83688633  1
  H+  H39  1  0.25934729  0.62825256  0.49633280  1
  H+  H40  1  0.95868722  0.23522845  0.78639937  1
  H+  H41  1  0.78786277  0.65173738  0.83301750  1
  H+  H42  1  0.59953450  0.48395473  0.34453778  1
  H+  H43  1  0.60607410  0.95544820  0.47926242  1
  H+  H44  1  0.38598100  0.02041995  0.00143794  1
  H+  H45  1  0.64090263  0.27267701  0.16987189  1
  H+  H46  1  0.15073037  0.58154978  0.56493037  1
  H+  H47  1  1.01906466  0.39160028  0.83707760  1
  H+  H48  1  0.81683095  0.89036245  0.07459033  1
  H+  H49  1  0.51023767  0.61603665  0.67329276  1
  H+  H50  1  0.63485125  0.27117021  0.99797994  1
  H+  H51  1  0.57127951  0.92123027  0.87451932  1
  H+  H52  1  0.47067108  0.36861321  0.33566594  1
  H+  H53  1  0.39334500  0.26831978  0.66065380  1
  H+  H54  1  0.09987967  0.48329221  0.67920942  1
  H+  H55  1  0.21945491  0.61048529  0.65918172  1
  H+  H56  1  0.97798786  0.11740850  0.33877149  1
  H+  H57  1  0.12810600  0.36283177  0.50042348  1
  H+  H58  1  1.03356947  0.88967307  0.34302123  1
  H+  H59  1  0.88933465  0.10624227  0.17419580  1
  H+  H60  1  0.76993141  0.14110495  0.67836907  1
  H+  H61  1  0.03301075  0.88577746  0.74399941  1
  H+  H62  1  0.88237809  0.27336804  0.50944108  1
  H+  H63  1  0.35160714  0.87639449  0.48886719  1
  H+  H64  1  0.57807760  0.15258120  0.43950911  1
  H+  H65  1  0.10639006  0.72071328  0.48512541  1
  H+  H66  1  0.41478802  0.07676229  0.90549864  1
  H+  H67  1  0.37643160  0.90604264  0.34102335  1
  H+  H68  1  0.74171319  0.10761715  0.32233430  1
  H+  H69  1  0.27151172  0.33460315  0.70176653  1
  H+  H70  1  0.10707953  0.63641091  0.32832267  1
  H+  H71  1  0.74348695  0.85963080  0.83082464  1
  H+  H72  1  0.11780271  0.01634976  0.52947231  1
  H+  H73  1  0.50648140  0.96976352  0.72629133  1
  H+  H74  1  0.14807243  0.86499968  0.66191222  1
  H+  H75  1  0.26106857  0.37332997  0.50089665  1
  H+  H76  1  0.87731431  0.65608263  0.82794279  1
  H+  H77  1  0.63628893  0.02438289  0.17102109  1
  H+  H78  1  0.11109533  0.22614385  0.50103077  1
  H+  H79  1  0.36140609  0.37268462  0.18722523  1
  H+  H80  1  0.28722761  0.13434533  0.33739517  1
  H+  H81  1  0.40189122  0.11568161  0.19090371  1
  H+  H82  1  0.87079918  0.64698563  -0.03765400  1
  H+  H83  1  0.50971161  0.62825499  0.00700415  1
  H+  H84  1  0.45177377  0.59433898  0.49907703  1
  H+  H85  1  0.36302820  0.97149819  0.67507600  1
  H+  H86  1  0.47395258  0.10910051  -0.00287740  1
  H+  H87  1  0.47210026  0.34748328  0.18729472  1
  H+  H88  1  0.89709001  0.99527009  0.49188822  1
  H+  H89  1  0.82504790  0.66184112  0.73994866  1
  H+  H90  1  0.42054516  0.05694543  0.34583555  1
  H+  H91  1  0.70483830  0.84720085  -0.00305879  1
  H+  H92  1  0.10845546  0.39168579  0.00511847  1
  H+  H93  1  1.01831237  0.63815633  0.33598177  1
  H+  H94  1  0.61014021  0.37618755  0.16395050  1
  H+  H95  1  0.13463715  0.61768333  0.66518060  1
  H+  H96  1  0.95190973  0.05375125  0.81582967  1
  H+  H97  1  0.88252519  0.02186512  0.98764585  1
  H+  H98  1  0.34006153  0.41228836  0.77705240  1
  H+  H99  1  0.87705093  0.10752443  0.66456162  1
  H+  H100  1  0.12022635  0.64085260  0.83047721  1
  H+  H101  1  0.21858596  0.85477291  0.50433042  1
  H+  H102  1  0.37223711  0.86330528  0.83974151  1
  H+  H103  1  0.90501213  0.03005863  0.18697826  1
  H+  H104  1  0.10160891  0.22387110  0.34784226  1
  H+  H105  1  0.28598969  0.14155222  0.67280028  1
  H+  H106  1  0.77967489  0.13460487  0.49972976  1
  H+  H107  1  0.58079613  0.40680378  0.76866158  1
  H+  H108  1  0.93220259  0.59601586  0.89638576  1
  H+  H109  1  0.48604622  0.61171385  0.84725617  1
  H+  H110  1  0.89106074  0.53224976  0.99065754  1
  H+  H111  1  0.62000495  0.85512875  0.99116221  1
  H+  H112  1  0.45301211  0.84842347  0.84120913  1
  H+  H113  1  0.60295135  0.86772080  0.83707971  1
  H+  H114  1  1.03593884  0.88674688  0.98047606  1
  H+  H115  1  0.09880185  0.64566006  0.18481291  1
  H+  H116  1  0.90894724  0.58141180  0.40315106  1
  H+  H117  1  0.16700555  0.61363464  0.14200481  1
  H+  H118  1  0.89547754  0.53309349  0.68016020  1
  H+  H119  1  0.62310745  0.14117197  0.16186218  1
  H+  H120  1  0.60529611  0.37181411  0.82800845  1
  H+  H121  1  0.21657913  0.61308305  0.83780603  1
  H+  H122  1  0.12557371  0.38472327  0.66197400  1
  H+  H123  1  0.84171594  0.71486783  0.67881468  1
  H+  H124  1  0.87049734  0.14129765  0.34497892  1
  H+  H125  1  0.12542659  0.61002907  0.50182134  1
  H+  H126  1  0.61558845  0.88919122  0.15907436  1
  H+  H127  1  0.23172745  0.85355742  0.66590046  1
  H+  H128  1  0.83572280  0.95213019  0.82904238  1
  H+  H129  1  0.09148316  0.91993021  0.60361966  1
  H+  H130  1  0.63232051  0.26851211  0.65584834  1
  H+  H131  1  0.11932632  0.13932113  0.15848085  1
  H+  H132  1  0.85273851  0.37357230  0.32829247  1
  H+  H133  1  0.13389915  0.03368485  0.83964511  1
  H+  H134  1  0.62989180  0.73051554  0.15813310  1
  H+  H135  1  0.72600566  0.11556124  -0.00670354  1
  H+  H136  1  0.35148329  0.48670203  -0.01484043  1
  H+  H137  1  0.38940889  0.36312780  0.84582717  1
  H+  H138  1  0.66259103  1.04346932  0.83821514  1
  H+  H139  1  0.90512400  0.54359767  0.83385689  1
  H+  H140  1  0.62880753  0.51034711  0.17369265  1
  H+  H141  1  0.77188858  0.39706720  0.16105522  1
  H+  H142  1  0.36550944  0.59859753  0.50691769  1
  H+  H143  1  0.87066670  0.35070290  0.16524305  1
  H+  H144  1  0.83406330  0.86815247  0.68263853  1
  H+  H145  1  0.13442650  0.25520196  0.83534299  1
  H+  H146  1  0.88308183  0.28151023  1.00378458  1
  H+  H147  1  0.81305432  0.43435551  0.87080270  1
  H+  H148  1  0.96706082  0.60457939  0.46289840  1
  H+  H149  1  0.39101470  0.10718266  0.66414814  1
  H+  H150  1  0.37876982  0.27778657  0.99584118  1
  H+  H151  1  0.85976462  0.38732767  0.84387906  1
  H+  H152  1  0.14959901  0.78524911  0.84679052  1
  H+  H153  1  0.11627867  0.73002653  0.01533125  1
  H+  H154  1  0.35324407  0.62631779  0.66843214  1
  H+  H155  1  0.35953536  0.45949906  0.19942366  1
  H+  H156  1  0.38647426  0.62629627  0.99564526  1
  H+  H157  1  0.88094873  0.77257376  0.33544661  1
  H+  H158  1  0.44641698  0.10579084  0.24973634  1
  H+  H159  1  0.13431884  0.11272241  -0.00445397  1
  H+  H160  1  0.36967763  0.23156672  0.34205146  1
  H+  H161  1  0.48192269  0.35938709  0.66263657  1
  H+  H162  1  0.28163933  0.39207855  0.83616357  1
  H+  H163  1  0.04574993  0.16885939  0.83422054  1
  H+  H164  1  0.10954211  0.47785282  0.33431011  1
  H+  H165  1  0.22619727  0.10920432  0.17588757  1
  H+  H166  1  0.27669377  0.13727931  0.82694848  1
  H+  H167  1  0.11991246  0.74066461  0.68105159  1
  H+  H168  1  0.60884417  0.27805142  0.49152218  1
  H+  H169  1  0.98102122  0.12060508  0.51609246  1
  H+  H170  1  0.75926245  0.10089072  0.15180987  1
  H+  H171  1  0.37835781  0.00650246  0.51376759  1
  H+  H172  1  1.01718641  0.88578239  0.18018940  1
  H+  H173  1  0.90043785  0.78640787  0.94236918  1
  H+  H174  1  0.89062036  0.62035658  0.68169787  1
  H+  H175  1  0.31311052  0.66401079  0.76268782  1
  H+  H176  1  0.88308532  0.37148921  1.00288133  1
  H+  H177  1  0.46476641  0.85357557  0.49503800  1
  H+  H178  1  0.13942052  0.39829498  0.16283755  1
  H+  H179  1  0.77236290  0.39683342  0.00844594  1
  H+  H180  1  0.28913073  0.90647159  0.33565356  1
  H+  H181  1  0.88656214  0.27374224  0.32594330  1
  H+  H182  1  0.59932555  0.71555386  0.00252831  1
  H+  H183  1  0.36633204  0.21684638  0.17728265  1
  H+  H184  1  0.40279015  0.56548334  0.59885955  1
  H+  H185  1  0.02350115  0.39743223  0.01300337  1
  H+  H186  1  0.75879248  0.62230378  0.17675386  1
  H+  H187  1  0.62538597  0.75197578  0.83951947  1
  H+  H188  1  0.37491828  0.50742512  0.65918214  1
  H+  H189  1  1.02402569  0.13606288  1.00627416  1
  H+  H190  1  0.78297141  0.64808417  0.96630641  1
  H+  H191  1  0.57097998  0.72888197  0.50544024  1
  H+  H192  1  0.37520375  0.85295158  0.65671774  1
  H+  H193  1  0.74254066  0.86807626  0.69132671  1
  H+  H194  1  0.61846701  0.25115036  0.83867732  1
  H+  H195  1  0.27620391  0.64958792  1.01064965  1
  H+  H196  1  0.68785041  0.58686010  1.03809646  1
  H+  H197  1  0.90686398  0.87695777  -0.04784955  1
  H+  H198  1  0.87093784  0.14041892  0.50107647  1
  H+  H199  1  0.98215006  0.62019173  0.99337429  1
  H+  H200  1  0.87359899  0.76478217  0.19436595  1
  H+  H201  1  0.57641425  0.60351526  0.47432748  1
  H+  H202  1  0.87989026  0.88314902  0.17190308  1
  H+  H203  1  0.39632822  0.52691773  0.85000496  1
  H+  H204  1  0.14046575  0.37703456  0.84133604  1
  H+  H205  1  1.03533600  0.65060283  0.82849904  1
  H+  H206  1  0.92284710  0.80461428  0.80604122  1
  H+  H207  1  0.21656639  0.36606232  0.98452916  1
  H+  H208  1  0.63689481  0.80267923  0.54747562  1
  H+  H209  1  0.15551231  0.02162068  0.32854494  1
  H+  H210  1  0.73571455  0.87548400  0.18140406  1
  H+  H211  1  0.72002779  0.61420751  0.32520199  1
  H+  H212  1  0.85658830  0.38819602  0.67434473  1
  H+  H213  1  0.62205804  0.60545319  1.00403017  1
  H+  H214  1  0.38336963  0.87267432  1.00457698  1
  H+  H215  1  0.14872273  0.26793664  0.67814167  1
  H+  H216  1  1.00846611  0.63897485  0.17909334  1
  H+  H217  1  0.86906613  0.71595361  0.49611674  1
  H+  H218  1  0.46371141  0.85848901  0.66143509  1
  H+  H219  1  0.27119730  0.89013662  0.83089949  1
  H+  H220  1  0.86835579  1.01573264  0.66718795  1
  H+  H221  1  0.63691315  0.60537837  0.17034759  1
  H+  H222  1  0.61573660  0.88844318  0.38250563  1
  H+  H223  1  0.39555968  0.87573029  0.16393105  1
  H+  H224  1  0.33849414  0.72293910  0.82262259  1
  H+  H225  1  0.10708501  0.48106974  0.83323030  1
  H+  H226  1  0.26178718  0.37144749  0.34467205  1
  H+  H227  1  0.73203898  0.88280815  0.33653187  1
  H+  H228  1  0.82767125  0.15270810  0.06120480  1
  H+  H229  1  0.86150246  0.48433631  0.16896618  1
  H+  H230  1  0.12017153  0.88772926  0.33618027  1
  H+  H231  1  0.25396120  0.13938687  0.48697765  1
  H+  H232  1  0.13793745  0.61937420  -0.00079911  1
  H+  H233  1  0.39455065  0.78799730  0.17230058  1
  H+  H234  1  0.51527596  0.12409016  0.82945461  1
  H+  H235  1  0.85646347  0.63203550  0.33985719  1
  H+  H236  1  0.12920636  0.27433883  0.99303012  1
  H+  H237  1  0.13033922  0.36056947  0.32915626  1
  H+  H238  1  0.35731215  0.40186944  -0.00833914  1
  H+  H239  1  0.60207779  0.61975057  0.67381143  1
  H+  H240  1  -0.02748163  0.36446361  0.32129871  1
  H+  H241  1  0.60143609  0.46220761  0.00786288  1
  H+  H242  1  0.26171424  0.15768990  1.01446016  1
  H+  H243  1  0.72073053  0.89582901  0.45463010  1
  H+  H244  1  0.70953962  0.85025308  0.44955300  1
  H+  H245  1  0.61056074  0.37714783  0.67173577  1
  H+  H246  1  0.89010169  0.27861257  0.85034079  1
  H+  H247  1  0.14120051  0.27475844  0.17554402  1
  H+  H248  1  0.66681922  0.07824446  0.57144431  1
  H+  H249  1  0.94003274  0.84394117  0.67359875  1
  H+  H250  1  0.29140989  0.65175755  0.16221243  1
  H+  H251  1  0.16758461  0.14298620  0.66895313  1
  H+  H252  1  0.96586534  0.36743333  0.66175575  1
  H+  H253  1  0.60633737  0.37390334  1.00244835  1
  H+  H254  1  0.60931416  0.64127166  0.33451372  1
  H+  H255  1  0.38724308  0.10986870  0.84554651  1
  H+  H256  1  0.61511494  0.49305869  0.50480683  1
  H+  H257  1  0.35993564  0.97332269  0.11596144  1
  H+  H258  1  0.14865824  0.04388130  0.66590982  1
  H+  H259  1  0.88133256  0.61305486  0.19731038  1
  H+  H260  1  0.14350915  0.12657206  0.84173618  1
  H+  H261  1  0.23309503  0.35890519  0.18720278  1
  H+  H262  1  0.71985286  0.60137829  0.67106150  1
  H+  H263  1  0.87549940  0.35883437  0.50414273  1
  H+  H264  1  0.86421402  0.14498992  0.99790876  1
  H+  H265  1  0.22073233  0.40212892  0.65200726  1
  H+  H266  1  0.83214746  0.66349694  0.12576998  1
  H+  H267  1  0.14019564  0.53179595  -0.00311694  1
  H+  H268  1  0.60916876  0.13077791  0.82773108  1
  H+  H269  1  0.48347199  0.38862971  0.51488163  1
  H+  H270  1  0.99015053  0.84071893  0.55003238  1
  H+  H271  1  0.41425188  0.32069808  0.24921375  1
  H+  H272  1  0.86657341  0.18208992  0.75887914  1
  H+  H273  1  1.01823650  0.64413507  0.68956925  1
  H+  H274  1  0.34816613  0.46482855  0.49942078  1
  H+  H275  1  0.47989530  0.85975233  0.32503399  1
  H+  H276  1  0.75968731  0.38139324  0.48360029  1
  H+  H277  1  0.53422883  0.14093529  0.16826407  1
  H+  H278  1  0.52725699  0.89118501  0.15878572  1
  H+  H279  1  0.85821444  0.62642030  0.47126054  1
  H+  H280  1  0.37476960  0.35716132  0.33278478  1
  H+  H281  1  0.36642142  0.37389890  0.68016258  1
  H+  H282  1  0.40855532  0.14092701  0.34477622  1
  H+  H283  1  0.36257144  -0.02203133  0.82818441  1
  H+  H284  1  0.89343639  0.90459994  0.49071759  1
  H+  H285  1  0.40742340  0.65102352  0.18106082  1
  H+  H286  1  0.87746255  0.52258087  0.32954819  1
  H+  H287  1  0.36584013  0.22453571  0.82974527  1
  H+  H288  1  0.28787297  0.23232255  0.06231884  1
  H+  H289  1  0.07596888  0.66679158  0.07325147  1
  H+  H290  1  0.16810655  0.09675566  0.57030516  1
  H+  H291  1  0.80622824  0.89411014  0.76045201  1
  H+  H292  1  0.41894206  0.59625651  0.93537706  1
  H+  H293  1  0.57085967  0.39835030  0.10602959  1
  H+  H294  1  0.66380860  0.32655195  0.23117482  1
  H+  H295  1  0.32783807  0.91696714  0.43233366  1
  H+  H296  1  0.94318624  0.74396874  0.57037040  1
  H+  H297  1  0.56926054  0.43083867  0.40601470  1
  H+  H298  1  0.64851134  0.32438961  0.55582234  1
  H+  H299  1  0.15980258  0.32584797  0.27261812  1
  H+  H300  1  0.95359941  0.55154047  0.56617252  1
  H+  H301  1  0.67292409  0.00921161  0.31183393  1
  H+  H302  1  0.50461956  0.16281842  0.41367149  1
  H+  H303  1  0.75290476  0.85948144  0.57580948  1
  H+  H304  1  0.84219001  0.74561111  0.06085299  1
  H+  H305  1  0.15537413  0.34292905  0.56432194  1
  H+  H306  1  0.66851686  0.57074892  0.90020759  1
  H+  H307  1  0.83169253  0.43323767  0.06798761  1
  H+  H308  1  0.68068078  0.08227677  0.23014398  1
  H+  H309  1  0.34894868  0.68529882  0.10209664  1
  H+  H310  1  0.45120421  0.47264259  0.07120937  1
  H+  H311  1  0.12010658  0.97055011  0.00094071  1
  H+  H312  1  0.10735672  0.42818082  0.10312766  1
  H+  H313  1  0.91642295  0.58825977  0.25645232  1
  H+  H314  1  0.16734449  0.58442752  0.26090304  1
  H+  H315  1  0.65693854  0.57850295  0.26786290  1
  H+  H316  1  0.58098295  0.65020847  0.76805430  1
  H+  H317  1  0.81527403  0.39327466  0.38817869  1
  H+  H318  1  0.41386551  0.82984820  0.55886219  1
  H+  H319  1  0.84951469  0.46641943  0.46696452  1
  H+  H320  1  0.77743318  0.03691035  0.11454479  1
  H+  H321  1  0.92627644  0.95791170  0.12457926  1
  H+  H322  1  0.07216092  0.16542889  0.40794765  1
  H+  H323  1  0.17318460  0.09022921  0.93765650  1
  H+  H324  1  0.94474462  0.50711952  0.57361560  1
  H+  H325  1  0.65814072  0.32296313  0.93502816  1
  H+  H326  1  0.16458074  0.34424885  0.90239263  1
  H+  H327  1  0.74667041  0.81515574  0.58047783  1
  H+  H328  1  0.89051511  0.76561365  0.06128231  1
  H+  H329  1  0.41956026  0.34272700  0.57736586  1
  H+  H330  1  0.16345158  0.58804633  0.90195473  1
  H+  H331  1  0.07075339  0.42241661  0.73902134  1
  H+  H332  1  0.16119233  0.52619985  0.16491967  1
  H+  H333  1  0.42158977  0.33059640  0.92518062  1
  H+  H334  1  0.31977312  0.39564900  0.40388813  1
  H+  H335  1  0.66924382  0.57774719  0.60828216  1
  H+  H336  1  0.42138815  0.84495963  0.26797683  1
  H+  H337  1  0.83776431  0.17113651  0.40263247  1
  H+  H338  1  0.41663010  0.46057938  0.09482186  1
  H+  H339  1  0.90809958  0.33755651  0.60062317  1
  H+  H340  1  0.23119475  0.85942626  1.00845235  1
  H+  H341  1  0.67509048  0.65298520  0.53026517  1
  H+  H342  1  0.80063538  0.81683606  0.03059319  1
  H+  H343  1  0.82138628  0.66533943  0.39477009  1
  H+  H344  1  0.91613794  0.07329750  0.92643719  1
  H+  H345  1  0.67222665  0.84395267  0.23704909  1
  H+  H346  1  0.36402500  0.74028313  0.00933013  1
  H+  H347  1  0.18326394  0.84403228  0.25878368  1
  H+  H348  1  0.58071289  0.91633352  0.06205225  1
  H+  H349  1  0.22326449  0.86354238  0.14695786  1
  H+  H350  1  0.13844151  0.21845064  0.74095350  1
  H+  H351  1  0.35073733  0.71537592  0.49517879  1
  H+  H352  1  0.91101969  0.33474283  0.91244781  1
  H+  H353  1  0.56110987  0.65144331  0.41749460  1
  H+  H354  1  0.18088249  0.08277567  0.27002624  1
  H+  H355  1  0.57984901  0.16538906  0.73249206  1
  H+  H356  1  0.55840176  0.93112671  0.75589007  1
  H+  H357  1  0.86421887  0.98507157  0.33767751  1
  H+  H358  1  0.84485857  0.92825145  0.39673368  1
  H+  H359  1  0.10695449  0.89319295  0.16472904  1
  H+  H360  1  0.58534159  0.16888489  0.06997605  1
  H+  H361  1  0.34403160  0.16840188  0.73285997  1
  H+  H362  1  0.91608904  0.08190415  0.57385236  1
  H+  H363  1  0.31580676  0.66374321  0.39919944  1
  H+  H364  1  0.41797132  0.07068261  0.60598325  1
  H+  H365  1  0.40415458  0.84193441  0.93951262  1
  H+  H366  1  0.34304071  0.16319002  0.11577527  1
  H+  H367  1  0.67136978  0.09224654  0.90027354  1
  H+  H368  1  0.88898187  0.81061748  0.61244424  1
  H+  H369  1  0.90124042  0.10565272  0.82262287  1
  H+  H370  1  0.07782226  0.41984920  0.39469898  1
  H+  H371  1  0.61038660  0.73068251  0.34101461  1
  H+  H372  1  0.08818943  0.66908766  0.42153765  1
  H+  H373  1  0.97570687  0.87526514  0.85233305  1
  H+  H374  1  0.65141922  0.81251550  0.90066103  1
  H+  H375  1  0.56707454  0.19237922  0.32162794  1
  H+  H376  1  0.81980550  0.41074421  0.73308913  1
  H+  H377  1  0.59403415  0.67084386  0.09857074  1
  H+  H378  1  0.16893866  0.81448842  0.56653845  1
  H+  H379  1  0.08337231  0.16678317  0.06663165  1
  H+  H380  1  0.90812093  0.83044811  0.25215241  1
  H+  H381  1  0.18219961  0.83854840  0.90786817  1
  H+  H382  1  0.33117663  0.91260370  0.73525578  1
  H+  H383  1  0.32271169  0.17640636  0.43524287  1
  O2-  O384  1  0.08897421  0.16935809  0.14119677  1
  O2-  O385  1  0.07618596  0.16547141  0.48746006  1
  O2-  O386  1  0.10465874  0.19265343  0.81985260  1
  O2-  O387  1  0.11971399  0.43796902  0.14720532  1
  O2-  O388  1  0.07406377  0.41433352  0.47599434  1
  O2-  O389  1  0.07697625  0.41972234  0.81785075  1
  O2-  O390  1  0.06874018  0.66790462  0.16047198  1
  O2-  O391  1  0.08030991  0.66209005  0.46707563  1
  O2-  O392  1  0.09586162  0.67694235  0.81291057  1
  O2-  O393  1  0.07310815  0.92253972  0.16036514  1
  O2-  O394  1  0.08001345  0.91225409  0.55714166  1
  O2-  O395  1  0.03195389  0.86492329  0.70183794  1
  O2-  O396  1  0.33799976  0.15616532  0.16003103  1
  O2-  O397  1  0.31299696  0.18461718  0.47839464  1
  O2-  O398  1  0.33734485  0.16523581  0.81302430  1
  O2-  O399  1  0.33287224  0.40570342  0.17537103  1
  O2-  O400  1  0.32350044  0.40236357  0.48900457  1
  O2-  O401  1  0.34198186  0.41441111  0.82242062  1
  O2-  O402  1  0.35235878  0.68863753  0.14780179  1
  O2-  O403  1  0.31997784  0.65412682  0.48179603  1
  O2-  O404  1  0.30503631  0.66330654  0.80717196  1
  O2-  O405  1  0.33160826  0.91219879  0.10515997  1
  O2-  O406  1  0.32023282  0.90700377  0.47740583  1
  O2-  O407  1  0.33106523  0.91814145  0.81131491  1
  O2-  O408  1  0.59146521  0.17008238  0.14674933  1
  O2-  O409  1  0.54026475  0.17438477  0.45124590  1
  O2-  O410  1  0.57457786  0.15629722  0.81112613  1
  O2-  O411  1  0.57637166  0.40477396  0.15053672  1
  O2-  O412  1  0.57692404  0.43356185  0.49073480  1
  O2-  O413  1  0.58003831  0.40778210  0.81435507  1
  O2-  O414  1  0.61697571  0.67526532  0.14012463  1
  O2-  O415  1  0.55110531  0.63891485  0.46451424  1
  O2-  O416  1  0.58901275  0.65691459  0.81315848  1
  O2-  O417  1  0.58653907  0.91878374  0.14107041  1
  O2-  O418  1  0.57077029  0.89804660  0.46135925  1
  O2-  O419  1  0.57631329  0.90541997  0.83281537  1
  O2-  O420  1  0.80597892  0.09680616  0.12747118  1
  O2-  O421  1  0.83965995  0.16996791  0.48535924  1
  O2-  O422  1  0.90017008  0.19309420  0.79846019  1
  O2-  O423  1  0.83098053  0.43152424  0.14381906  1
  O2-  O424  1  0.81882935  0.40207878  0.46858597  1
  O2-  O425  1  0.82899180  0.41943782  0.83211510  1
  O2-  O426  1  0.82388956  0.65958004  0.16964803  1
  O2-  O427  1  0.82782615  0.66121929  0.47539515  1
  O2-  O428  1  0.84366948  0.68185359  0.81166734  1
  O2-  O429  1  0.87091903  0.92632657  0.14529127  1
  O2-  O430  1  0.88892172  0.94631107  0.46537935  1
  O2-  O431  1  0.80516663  0.89213678  0.81318232  1
  O2-  O432  1  0.16542238  0.08826009  0.18737478  1
  O2-  O433  1  0.14948462  0.08004964  0.52756480  1
  O2-  O434  1  0.16970635  0.09164452  0.85562128  1
  O2-  O435  1  0.16892212  0.33203516  0.19525548  1
  O2-  O436  1  0.15858650  0.33500826  0.51984274  1
  O2-  O437  1  0.17298304  0.34899822  0.85665318  1
  O2-  O438  1  0.18645668  0.59265506  0.17583363  1
  O2-  O439  1  0.15356806  0.57886768  0.51993430  1
  O2-  O440  1  0.15610759  0.58241500  0.85672460  1
  O2-  O441  1  0.17307360  0.84262277  0.17427394  1
  O2-  O442  1  0.15969768  0.82236876  0.52316058  1
  O2-  O443  1  0.18123691  0.84441368  0.86278404  1
  O2-  O444  1  0.44011116  0.09431155  0.20565950  1
  O2-  O445  1  0.41315917  0.06148251  0.53598633  1
  O2-  O446  1  0.41663529  0.07840827  0.85924979  1
  O2-  O447  1  0.41237228  0.31393860  0.20260894  1
  O2-  O448  1  0.42222795  0.35466091  0.53162255  1
  O2-  O449  1  0.41991681  0.33136179  0.86022298  1
  O2-  O450  1  0.44514324  0.63176421  0.20333905  1
  O2-  O451  1  0.39591462  0.56738207  0.52136657  1
  O2-  O452  1  0.42739809  0.58714576  0.86403588  1
  O2-  O453  1  0.42427490  0.84975267  0.18640049  1
  O2-  O454  1  0.40664641  0.82486938  0.51391414  1
  O2-  O455  1  0.39516412  0.82676564  0.85793493  1
  O2-  O456  1  0.67410192  0.08504772  0.18412858  1
  O2-  O457  1  0.66894900  0.07657933  0.52585092  1
  O2-  O458  1  0.67552534  0.09899306  0.85492902  1
  O2-  O459  1  0.66667394  0.33318424  0.18574854  1
  O2-  O460  1  0.64733236  0.33411675  0.51126250  1
  O2-  O461  1  0.64951248  0.31300260  0.85421469  1
  O2-  O462  1  0.66128476  0.57081779  0.18913063  1
  O2-  O463  1  0.68276396  0.60293595  0.53023354  1
  O2-  O464  1  0.67211800  0.57404391  0.85581877  1
  O2-  O465  1  0.67484581  0.84374294  0.19179581  1
  O2-  O466  1  0.57936778  0.77893011  0.53043495  1
  O2-  O467  1  0.65247405  0.81362391  0.85481145  1
  O2-  O468  1  0.92953283  0.09190546  0.19554673  1
  O2-  O469  1  0.91837406  0.08677915  0.52846508  1
  O2-  O470  1  0.91109656  0.05982915  0.84175935  1
  O2-  O471  1  0.87999662  0.30322592  0.17688884  1
  O2-  O472  1  0.90930998  0.33470443  0.52346295  1
  O2-  O473  1  0.91175582  0.33718000  0.86622091  1
  O2-  O474  1  0.91601950  0.58657022  0.20981822  1
  O2-  O475  1  0.90556976  0.57518571  0.45002846  1
  O2-  O476  1  0.93391732  0.60238659  0.85057623  1
  O2-  O477  1  0.90510835  0.82681464  0.20557277  1
  O2-  O478  1  0.92991438  0.78509788  0.55142506  1
  O2-  O479  1  0.96815036  0.86552957  0.80815518  1
  O2-  O480  1  0.19433834  0.08105487  0.31325543  1
  O2-  O481  1  0.18456885  0.10330095  0.65024428  1
  O2-  O482  1  0.17246625  0.08956592  0.98278572  1
  O2-  O483  1  0.15785612  0.32608950  0.31816046  1
  O2-  O484  1  0.16076023  0.36163717  0.64205387  1
  O2-  O485  1  0.15261718  0.33320309  0.97603460  1
  O2-  O486  1  0.15911518  0.58264721  0.30528731  1
  O2-  O487  1  0.15688308  0.58205549  0.64754010  1
  O2-  O488  1  0.17047305  0.59267825  0.98185941  1
  O2-  O489  1  0.18415458  0.84191882  0.30380595  1
  O2-  O490  1  0.16979379  0.82243426  0.65234189  1
  O2-  O491  1  0.17325634  0.82623593  0.98788704  1
  O2-  O492  1  0.45356661  0.12011362  0.34029777  1
  O2-  O493  1  0.42009311  0.07427806  0.65247607  1
  O2-  O494  1  0.41509345  0.07691413  0.98016310  1
  O2-  O495  1  0.41100500  0.33124682  0.31836901  1
  O2-  O496  1  0.42093529  0.33049916  0.64715670  1
  O2-  O497  1  0.42291761  0.33327152  0.97372222  1
  O2-  O498  1  0.39333238  0.56186259  0.23536876  1
  O2-  O499  1  0.40519594  0.56720995  0.64464599  1
  O2-  O500  1  0.41433032  0.59316715  0.98167185  1
  O2-  O501  1  0.42100520  0.84244066  0.31329274  1
  O2-  O502  1  0.40793836  0.82518785  0.64072220  1
  O2-  O503  1  0.41445903  0.84468151  0.98416805  1
  O2-  O504  1  0.68726726  0.06775904  0.30065353  1
  O2-  O505  1  0.66642698  0.08791251  0.64976593  1
  O2-  O506  1  0.66551105  0.08633966  0.97812130  1
  O2-  O507  1  0.65590766  0.31024297  0.30755916  1
  O2-  O508  1  0.65937218  0.32758705  0.63760937  1
  O2-  O509  1  0.66195534  0.33113621  0.98001611  1
  O2-  O510  1  0.65820182  0.58596247  0.31282018  1
  O2-  O511  1  0.66008493  0.57087011  0.65300084  1
  O2-  O512  1  0.65764782  0.57531785  0.99926842  1
  O2-  O513  1  0.66893607  0.84754397  0.32086240  1
  O2-  O514  1  0.64050671  0.81840118  0.68853009  1
  O2-  O515  1  0.64791636  0.82165113  0.97661000  1
  O2-  O516  1  0.91590194  0.08605757  0.32067674  1
  O2-  O517  1  0.90542239  0.07461553  0.65246173  1
  O2-  O518  1  0.91550469  0.07994153  0.97107129  1
  O2-  O519  1  0.91153767  0.33224178  0.30768761  1
  O2-  O520  1  0.90551016  0.33590813  0.64647989  1
  O2-  O521  1  0.91334101  0.34127012  0.98730493  1
  O2-  O522  1  0.91007929  0.58591668  0.33073459  1
  O2-  O523  1  0.93011674  0.59662208  0.67611375  1
  O2-  O524  1  0.92541549  0.59035869  0.97161357  1
  O2-  O525  1  0.91480919  0.83436850  0.32245408  1
  O2-  O526  1  0.87987981  0.81822561  0.65643935  1
  O2-  O527  1  0.93850021  0.85007205  0.93668175  1
  O2-  O528  1  0.08424525  0.16685646  0.02040563  1
  O2-  O529  1  0.06710184  0.16373953  0.36293922  1
  O2-  O530  1  0.16948726  0.23456021  0.70167010  1
  O2-  O531  1  0.08575774  0.42755781  0.02290309  1
  O2-  O532  1  0.07852871  0.41740406  0.34951527  1
  O2-  O533  1  0.06863388  0.42194297  0.69347288  1
  O2-  O534  1  0.08050794  0.66742196  0.02843952  1
  O2-  O535  1  0.08227069  0.67135958  0.34462993  1
  O2-  O536  1  0.08572518  0.67714468  0.70017613  1
  O2-  O537  1  0.08758364  0.90776331  0.00625134  1
  O2-  O538  1  0.09419159  0.91887584  0.35567029  1
  O2-  O539  1  0.11368108  0.92817474  0.67273624  1
  O2-  O540  1  0.31293521  0.20578740  0.03700681  1
  O2-  O541  1  0.34716002  0.17064041  0.35589658  1
  O2-  O542  1  0.34713664  0.16977774  0.68753145  1
  O2-  O543  1  0.31839637  0.42251565  -0.01926233  1
  O2-  O544  1  0.32234087  0.39854097  0.35920073  1
  O2-  O545  1  0.32576296  0.39098196  0.69838667  1
  O2-  O546  1  0.33690361  0.68014996  0.02548862  1
  O2-  O547  1  0.31269514  0.66695949  0.35438138  1
  O2-  O548  1  0.32280060  0.65747378  0.68047103  1
  O2-  O549  1  0.33143006  0.91559849  0.03667177  1
  O2-  O550  1  0.34666843  0.93669291  0.35566736  1
  O2-  O551  1  0.33325111  0.90994974  0.68949757  1
  O2-  O552  1  0.58462499  0.17148753  0.02422407  1
  O2-  O553  1  0.63057608  0.22008041  0.31864777  1
  O2-  O554  1  0.58280344  0.16784737  0.68700912  1
  O2-  O555  1  0.57031343  0.39962687  0.01776968  1
  O2-  O556  1  0.56682804  0.42483324  0.36153700  1
  O2-  O557  1  0.58072424  0.40622900  0.69053971  1
  O2-  O558  1  0.57275557  0.65604201  0.01903260  1
  O2-  O559  1  0.57810266  0.66947076  0.35203123  1
  O2-  O560  1  0.56972969  0.64731295  0.69027208  1
  O2-  O561  1  0.58005660  0.91713776  0.01646753  1
  O2-  O562  1  0.62461162  0.89503392  0.33760919  1
  O2-  O563  1  0.54352253  0.94621766  0.71616881  1
  O2-  O564  1  0.83294291  0.17073974  0.01743883  1
  O2-  O565  1  0.83841009  0.17154019  0.35746490  1
  O2-  O566  1  0.83200470  0.17215136  0.68991396  1
  O2-  O567  1  0.83305516  0.43036532  0.02203458  1
  O2-  O568  1  0.81521964  0.39725142  0.34306905  1
  O2-  O569  1  0.82570461  0.41878720  0.68897710  1
  O2-  O570  1  0.84101287  0.67857582  -0.05050182  1
  O2-  O571  1  0.82441643  0.66528822  0.34968626  1
  O2-  O572  1  0.82003244  0.65497217  0.69411259  1
  O2-  O573  1  0.80310773  0.87244565  0.03111339  1
  O2-  O574  1  0.83029937  0.92299304  0.35218108  1
  O2-  O575  1  0.80605008  0.89893306  0.70290707  1
