# generated using pymatgen
data_H2O
_symmetry_space_group_name_H-M   'P 1'
_cell_length_a   17.98690657
_cell_length_b   17.99127818
_cell_length_c   22.00488000
_cell_angle_alpha   90.01378995
_cell_angle_beta   89.97972686
_cell_angle_gamma   120.00241021
_symmetry_Int_Tables_number   1
_chemical_formula_structural   H2O
_chemical_formula_sum   'H384 O192'
_cell_volume   6166.76724822
_cell_formula_units_Z   192
loop_
 _symmetry_equiv_pos_site_id
 _symmetry_equiv_pos_as_xyz
  1  'x, y, z'
loop_
 _atom_type_symbol
 _atom_type_oxidation_number
  H+  1.0
  O2-  -2.0
loop_
 _atom_site_type_symbol
 _atom_site_label
 _atom_site_symmetry_multiplicity
 _atom_site_fract_x
 _atom_site_fract_y
 _atom_site_fract_z
 _atom_site_occupancy
  H+  H0  1  0.64312019  0.41429546  0.35644710  1
  H+  H1  1  0.86108156  0.38028434  0.81718341  1
  H+  H2  1  0.23462620  0.11689321  0.33152442  1
  H+  H3  1  0.36939098  0.38792804  0.82305956  1
  H+  H4  1  0.63143642  0.01721117  0.17330604  1
  H+  H5  1  0.87674459  0.78990730  0.33623037  1
  H+  H6  1  0.86683119  0.47823354  0.34758754  1
  H+  H7  1  0.38043582  0.59666608  0.65408859  1
  H+  H8  1  0.86881662  0.66179686  0.33814341  1
  H+  H9  1  0.62568968  0.97736847  0.48681605  1
  H+  H10  1  0.35798902  0.46587510  0.16345340  1
  H+  H11  1  0.99210972  0.69898251  0.29795821  1
  H+  H12  1  0.85263978  0.96929643  0.49207396  1
  H+  H13  1  0.61970946  0.75955179  0.17728845  1
  H+  H14  1  0.60351981  0.96395018  0.66893238  1
  H+  H15  1  0.72100600  0.61275210  0.32829000  1
  H+  H16  1  0.71153569  0.84582561  0.17911099  1
  H+  H17  1  0.76169280  0.11965652  0.17017083  1
  H+  H18  1  0.47645818  0.87346919  -0.00869221  1
  H+  H19  1  0.89545082  0.60833515  1.00228119  1
  H+  H20  1  0.78942592  0.39603484  0.00038488  1
  H+  H21  1  0.39944029  0.54932977  0.24419022  1
  H+  H22  1  0.87302518  0.12984913  0.33498061  1
  H+  H23  1  0.62486743  -0.02717213  0.33757912  1
  H+  H24  1  0.60930165  0.88343341  1.00433540  1
  H+  H25  1  0.28966684  0.39482583  0.47281844  1
  H+  H26  1  0.38772666  0.10913512  0.67781205  1
  H+  H27  1  0.12101112  0.21963433  0.33645309  1
  H+  H28  1  0.14933931  0.28995797  0.83902293  1
  H+  H29  1  0.08200495  0.02058607  0.85936175  1
  H+  H30  1  0.11660036  0.97733224  0.34203972  1
  H+  H31  1  -0.00953224  0.38304672  -0.00934251  1
  H+  H32  1  0.89521570  0.38977351  -0.01035263  1
  H+  H33  1  0.37137770  0.24402632  0.33830015  1
  H+  H34  1  0.57964994  0.11027466  0.51308174  1
  H+  H35  1  0.86627726  0.15378082  0.81666293  1
  H+  H36  1  0.04530961  0.39101892  0.32124808  1
  H+  H37  1  0.86260513  0.48543737  0.15699745  1
  H+  H38  1  0.78512446  0.21090581  0.68337111  1
  H+  H39  1  0.47307912  0.85820031  0.17374997  1
  H+  H40  1  0.47256845  0.59756464  0.99837704  1
  H+  H41  1  0.73047519  0.12605243  0.83722898  1
  H+  H42  1  0.85423374  0.88145880  0.48947305  1
  H+  H43  1  0.08573750  0.94032895  0.69278447  1
  H+  H44  1  0.87417322  0.64681842  0.67852028  1
  H+  H45  1  0.39436643  0.12148632  0.99741950  1
  H+  H46  1  0.36959308  0.47729896  0.82169441  1
  H+  H47  1  0.87903951  0.08541055  0.17253987  1
  H+  H48  1  0.08162048  0.16010111  0.43148900  1
  H+  H49  1  0.88508836  0.27081823  0.50261028  1
  H+  H50  1  0.35370985  0.88147542  0.68010730  1
  H+  H51  1  0.27061698  0.63212386  0.16436724  1
  H+  H52  1  0.27450620  0.63452264  0.83397561  1
  H+  H53  1  0.84630818  0.84181403  0.01399216  1
  H+  H54  1  0.01992441  0.88761771  0.16440032  1
  H+  H55  1  0.60908987  0.46484028  0.82564203  1
  H+  H56  1  0.87507023  0.87080859  0.65307861  1
  H+  H57  1  0.58257902  0.44368728  0.48448627  1
  H+  H58  1  0.24519740  0.37330561  0.64976498  1
  H+  H59  1  -0.02958583  0.11057102  0.50611399  1
  H+  H60  1  0.13522511  0.85955124  0.50636236  1
  H+  H61  1  0.52742762  0.38226190  0.00351606  1
  H+  H62  1  0.38160845  1.01702628  0.67290208  1
  H+  H63  1  0.84848187  0.37744462  0.49984934  1
  H+  H64  1  0.86148040  0.13716361  0.48856674  1
  H+  H65  1  0.14910665  0.53172038  0.84094489  1
  H+  H66  1  0.38392376  0.61128309  0.84283688  1
  H+  H67  1  0.34698139  0.41401912  0.72522298  1
  H+  H68  1  0.15255788  0.36680549  0.65262119  1
  H+  H69  1  0.63433939  0.27039191  0.84172792  1
  H+  H70  1  0.51870709  0.13431656  0.82820245  1
  H+  H71  1  0.38883965  0.02921503  0.99503472  1
  H+  H72  1  0.12101712  0.61609472  0.65801987  1
  H+  H73  1  0.03264066  0.62254985  0.66125171  1
  H+  H74  1  0.70362540  0.33491800  0.47396018  1
  H+  H75  1  -0.03306536  0.36615107  0.49823380  1
  H+  H76  1  0.39099202  0.36501598  0.99351895  1
  H+  H77  1  0.91004895  0.83444906  0.55853713  1
  H+  H78  1  0.24131107  0.14127833  0.51253206  1
  H+  H79  1  0.72515970  0.85938801  0.50284073  1
  H+  H80  1  0.34804063  0.20140673  0.40240991  1
  H+  H81  1  0.36663651  0.89100957  0.15198387  1
  H+  H82  1  0.85488200  0.18595496  0.19467318  1
  H+  H83  1  0.63387688  0.26065572  0.66635705  1
  H+  H84  1  0.62245847  0.58911437  0.83920370  1
  H+  H85  1  0.11171032  0.92327808  0.81757920  1
  H+  H86  1  0.50370346  0.60030589  0.34258105  1
  H+  H87  1  0.48373484  0.86581902  0.32512007  1
  H+  H88  1  0.13554346  0.61308520  0.16626154  1
  H+  H89  1  0.85101183  0.95285110  0.16343623  1
  H+  H90  1  0.23600504  0.37701280  0.99294084  1
  H+  H91  1  0.72229726  0.10659533  0.50277682  1
  H+  H92  1  -0.03293570  0.85063953  0.00184192  1
  H+  H93  1  0.03952808  0.12790006  0.64116468  1
  H+  H94  1  0.64504618  0.10541542  0.33604472  1
  H+  H95  1  0.26147095  0.12855693  0.83287587  1
  H+  H96  1  0.63538869  0.52331366  0.17459341  1
  H+  H97  1  0.02524524  0.63048544  0.15551452  1
  H+  H98  1  0.71295479  0.33515763  0.35735043  1
  H+  H99  1  0.78394256  0.12896360  0.33393309  1
  H+  H100  1  0.72931928  0.11196808  -0.00377967  1
  H+  H101  1  0.63568792  0.51595635  0.32818874  1
  H+  H102  1  0.78406580  0.64933185  0.85313047  1
  H+  H103  1  0.17218241  0.16135252  0.68305889  1
  H+  H104  1  0.53385099  0.23392517  0.28365699  1
  H+  H105  1  0.97305456  0.86132442  0.50143517  1
  H+  H106  1  0.60313521  0.62577536  0.17211492  1
  H+  H107  1  0.50978501  0.61889376  0.17507113  1
  H+  H108  1  1.03504466  0.15329040  0.66691659  1
  H+  H109  1  0.36110812  0.64163536  0.49296616  1
  H+  H110  1  0.56460564  0.40278315  0.41803562  1
  H+  H111  1  0.87640637  0.51715244  0.50751525  1
  H+  H112  1  0.33446237  0.41130390  0.06789030  1
  H+  H113  1  0.72888022  0.36324278  0.32956878  1
  H+  H114  1  0.91375857  0.90502484  0.84706143  1
  H+  H115  1  0.38461988  0.76924048  0.17929932  1
  H+  H116  1  0.12049202  0.13097461  0.33863185  1
  H+  H117  1  0.15186296  0.36325072  0.50067212  1
  H+  H118  1  0.12274251  0.83345079  0.66117207  1
  H+  H119  1  0.38863593  0.26265115  0.66369460  1
  H+  H120  1  0.15894444  0.36541233  0.32464224  1
  H+  H121  1  0.96793640  0.60472738  0.50641761  1
  H+  H122  1  0.61750910  0.91168815  0.82565286  1
  H+  H123  1  0.26525128  0.87358499  0.49438555  1
  H+  H124  1  0.26683242  0.87541156  0.83598433  1
  H+  H125  1  0.88271367  0.75653939  0.99373402  1
  H+  H126  1  0.83426634  -0.02342684  0.66767406  1
  H+  H127  1  0.36103727  0.89617421  0.00193250  1
  H+  H128  1  0.47543733  0.35602296  0.83668588  1
  H+  H129  1  0.60792351  0.87957777  0.16043274  1
  H+  H130  1  0.21984448  0.59732073  0.64672997  1
  H+  H131  1  0.39381025  0.61220165  0.99576753  1
  H+  H132  1  0.28306291  0.14736911  0.01697336  1
  H+  H133  1  0.13581930  0.35935782  0.17245650  1
  H+  H134  1  0.37393586  0.38004132  0.66545393  1
  H+  H135  1  0.60134117  0.62083535  0.33856568  1
  H+  H136  1  0.61106532  0.72061911  0.48655703  1
  H+  H137  1  0.60766473  0.99298368  0.82143044  1
  H+  H138  1  0.72396243  0.36678055  0.16403597  1
  H+  H139  1  0.61016692  0.13765606  0.82943016  1
  H+  H140  1  0.97168643  0.61566583  0.32863461  1
  H+  H141  1  0.71490001  0.09785328  0.66198090  1
  H+  H142  1  0.51428133  0.62147876  0.65959362  1
  H+  H143  1  0.39155910  0.08786781  0.58366749  1
  H+  H144  1  1.01508534  0.86753854  0.83587275  1
  H+  H145  1  0.12165818  0.39597603  0.82247878  1
  H+  H146  1  0.62945475  0.59924708  0.00136046  1
  H+  H147  1  0.38339996  0.86324817  0.84141423  1
  H+  H148  1  1.00090506  0.15351160  0.97779171  1
  H+  H149  1  -0.02861221  0.60246819  0.84556461  1
  H+  H150  1  0.18556882  0.02146119  0.63452686  1
  H+  H151  1  0.35082223  0.12816798  0.83394167  1
  H+  H152  1  0.85810088  0.37789269  0.66439738  1
  H+  H153  1  0.10400525  0.88120996  0.01307358  1
  H+  H154  1  0.83600979  0.16832987  0.42869325  1
  H+  H155  1  0.38456715  0.50974702  0.64967149  1
  H+  H156  1  0.37683525  0.17049152  0.53113326  1
  H+  H157  1  0.64620624  0.78955241  0.94278742  1
  H+  H158  1  0.36604207  0.72576641  0.83317591  1
  H+  H159  1  0.13706368  0.60921369  0.51086355  1
  H+  H160  1  0.87997439  0.00463663  0.81699104  1
  H+  H161  1  0.66380396  0.57872715  0.23704592  1
  H+  H162  1  0.71132862  0.59451648  0.49868024  1
  H+  H163  1  0.45208168  0.72732477  0.05211923  1
  H+  H164  1  0.71272065  0.76246701  0.85643774  1
  H+  H165  1  0.09129681  0.83473555  0.32248522  1
  H+  H166  1  0.87872900  0.85229576  0.18004648  1
  H+  H167  1  0.62343678  0.22726366  0.14682707  1
  H+  H168  1  0.36169888  0.73909550  0.34221063  1
  H+  H169  1  0.57770721  0.33399306  0.29793621  1
  H+  H170  1  0.13168068  0.61840940  -0.00584521  1
  H+  H171  1  0.73340545  0.35567716  0.66315204  1
  H+  H172  1  0.61295972  0.38957398  0.15091415  1
  H+  H173  1  0.11791283  0.15289106  0.83291171  1
  H+  H174  1  0.09843922  0.70706618  0.34485715  1
  H+  H175  1  0.26325527  0.87707046  0.67734115  1
  H+  H176  1  0.11795926  0.62941929  0.34360583  1
  H+  H177  1  0.46906446  0.86288090  0.66258439  1
  H+  H178  1  0.09967567  0.49387839  0.48038177  1
  H+  H179  1  0.40666248  0.91698744  0.35208778  1
  H+  H180  1  0.62633284  0.09598282  0.65626711  1
  H+  H181  1  0.67294575  0.09049675  0.89813779  1
  H+  H182  1  0.02939142  0.69663647  0.77992946  1
  H+  H183  1  0.80272415  -0.02519026  0.95564385  1
  H+  H184  1  0.12469624  0.47624885  0.66259503  1
  H+  H185  1  0.87231854  0.15950365  1.00731331  1
  H+  H186  1  0.46260073  1.00119582  0.39037454  1
  H+  H187  1  0.91603998  0.83315713  0.23901987  1
  H+  H188  1  0.62564703  0.76020166  0.65608371  1
  H+  H189  1  0.47569134  0.87031934  0.83909226  1
  H+  H190  1  0.15536288  0.53238196  0.31815507  1
  H+  H191  1  0.62160671  0.84762366  0.65939309  1
  H+  H192  1  0.11484537  0.39270479  0.00506768  1
  H+  H193  1  0.49504324  0.37226333  0.32486076  1
  H+  H194  1  0.84263002  0.11868100  0.65331649  1
  H+  H195  1  0.88144221  0.37586441  0.15954113  1
  H+  H196  1  0.77126415  0.62655458  1.00763125  1
  H+  H197  1  0.87792009  0.27141757  0.31324740  1
  H+  H198  1  0.62177049  0.22910644  0.99895120  1
  H+  H199  1  0.36921419  0.48976197  0.47634359  1
  H+  H200  1  0.12428592  0.76009319  0.17134182  1
  H+  H201  1  0.70765088  0.82118293  1.00088759  1
  H+  H202  1  0.85517368  0.72090396  0.49277715  1
  H+  H203  1  0.38869770  0.36104594  0.17397797  1
  H+  H204  1  0.76830955  0.37279914  0.81826688  1
  H+  H205  1  0.36821416  0.76100859  0.51330393  1
  H+  H206  1  0.63458793  0.35636728  0.66388858  1
  H+  H207  1  0.38348779  0.77369148  0.66781441  1
  H+  H208  1  0.12347666  0.16114408  0.00541209  1
  H+  H209  1  0.85966672  0.72390470  0.16531152  1
  H+  H210  1  0.71819046  0.77229478  0.82288816  1
  H+  H211  1  0.60018609  0.69500166  0.81304759  1
  H+  H212  1  0.98291734  0.09687526  0.32132400  1
  H+  H213  1  0.34717417  0.91915591  0.44488472  1
  H+  H214  1  0.26996193  0.37673577  0.15864474  1
  H+  H215  1  0.17582788  0.58959631  0.90212203  1
  H+  H216  1  0.11141636  0.21393586  0.16524479  1
  H+  H217  1  0.88715838  0.52076789  0.65927230  1
  H+  H218  1  0.37132166  0.23632570  0.01031638  1
  H+  H219  1  0.41646779  0.06538945  0.32675350  1
  H+  H220  1  0.43695252  0.70622536  0.70814883  1
  H+  H221  1  0.28107797  0.13567273  0.67632064  1
  H+  H222  1  0.41467168  0.57712720  0.90027436  1
  H+  H223  1  0.36113535  0.85875891  0.50951485  1
  H+  H224  1  0.74701683  0.91079975  0.83956078  1
  H+  H225  1  0.38291813  0.27052343  0.84096980  1
  H+  H226  1  0.63502574  0.51405001  0.99577146  1
  H+  H227  1  0.39101365  0.74482023  0.01241904  1
  H+  H228  1  0.12841016  0.25187209  0.99554164  1
  H+  H229  1  0.17869010  0.25226094  0.67843781  1
  H+  H230  1  0.39983850  0.11431733  0.17262268  1
  H+  H231  1  0.01969622  0.90066202  0.34651769  1
  H+  H232  1  0.82324597  0.17893623  0.76180046  1
  H+  H233  1  0.45019915  0.31056629  0.47675880  1
  H+  H234  1  0.87091337  0.65306937  0.86161302  1
  H+  H235  1  0.89471000  0.28388409  0.83827850  1
  H+  H236  1  0.12481052  0.82504615  0.85188220  1
  H+  H237  1  -0.00764916  0.14124838  0.82172703  1
  H+  H238  1  0.53766615  0.14091748  0.36060907  1
  H+  H239  1  0.23888705  0.37679876  0.83531625  1
  H+  H240  1  0.12271815  0.84838933  0.17267345  1
  H+  H241  1  0.36500562  0.47330720  0.00897923  1
  H+  H242  1  0.89469205  0.27350655  0.65961408  1
  H+  H243  1  0.59608448  0.70190646  0.02179287  1
  H+  H244  1  0.75738540  0.88093276  0.67261030  1
  H+  H245  1  0.62461454  0.88177298  0.48586705  1
  H+  H246  1  0.52509629  0.36629413  0.66554327  1
  H+  H247  1  -0.01358547  0.37213602  0.83484273  1
  H+  H248  1  0.41309040  0.38487284  0.32108386  1
  H+  H249  1  0.77885171  0.98686765  -0.02163809  1
  H+  H250  1  0.11377666  0.22259829  0.48908431  1
  H+  H251  1  0.82917952  0.92001885  0.01900505  1
  H+  H252  1  0.13706180  0.53345123  -0.00726736  1
  H+  H253  1  0.40615361  0.14578424  0.34200008  1
  H+  H254  1  0.37712871  0.59652265  0.18895031  1
  H+  H255  1  0.52247771  0.13266400  0.67594091  1
  H+  H256  1  0.26701357  0.63282228  0.49774867  1
  H+  H257  1  0.22515000  0.87067183  1.00154327  1
  H+  H258  1  0.13710239  0.75229894  0.65483177  1
  H+  H259  1  0.88004460  0.28796265  0.14765873  1
  H+  H260  1  0.61312837  0.18743903  0.40677124  1
  H+  H261  1  0.10363246  0.71770953  1.01571317  1
  H+  H262  1  0.61203637  0.87366967  0.33742867  1
  H+  H263  1  0.65816998  0.82700479  0.55978720  1
  H+  H264  1  0.40425751  0.29660458  0.59690925  1
  H+  H265  1  0.44683192  0.11220363  0.52528536  1
  H+  H266  1  -0.04539081  0.85438812  0.65690755  1
  H+  H267  1  0.62024967  0.58432257  0.64993632  1
  H+  H268  1  0.10576432  0.71719584  0.49765283  1
  H+  H269  1  0.12189180  0.97969380  0.49303901  1
  H+  H270  1  -0.00510059  0.61644494  0.00774664  1
  H+  H271  1  0.37826958  0.02035106  0.84355359  1
  H+  H272  1  0.36918718  0.22746952  0.16917206  1
  H+  H273  1  0.63683268  0.35981575  0.83947831  1
  H+  H274  1  0.47625350  0.61793326  0.49713526  1
  H+  H275  1  0.83350729  0.15826251  0.07238770  1
  H+  H276  1  0.03859902  0.38464421  0.66831972  1
  H+  H277  1  0.88376697  0.61521625  0.16962068  1
  H+  H278  1  0.64777124  0.36501778  -0.00573496  1
  H+  H279  1  0.85505481  0.72152629  0.67069491  1
  H+  H280  1  0.89046412  0.40474204  0.34215255  1
  H+  H281  1  0.60777868  0.75281725  0.32768873  1
  H+  H282  1  0.52969168  0.14129199  0.99872786  1
  H+  H283  1  0.76885354  0.63594805  0.16470342  1
  H+  H284  1  0.50632872  0.61522332  0.82221862  1
  H+  H285  1  0.14196511  0.10782564  0.18028419  1
  H+  H286  1  0.13558132  0.00563085  1.00044968  1
  H+  H287  1  0.23661987  0.62737334  0.32410559  1
  H+  H288  1  0.02649196  0.12202830  0.16465494  1
  H+  H289  1  0.91467270  0.57905845  0.60036178  1
  H+  H290  1  0.17958443  0.08690373  0.59116293  1
  H+  H291  1  0.14002496  0.74935753  0.84451960  1
  H+  H292  1  0.66791144  0.08156168  0.27017487  1
  H+  H293  1  0.07425394  0.91402118  0.07192010  1
  H+  H294  1  0.32709033  0.67765407  0.40015147  1
  H+  H295  1  0.64030830  0.11160493  0.99070388  1
  H+  H296  1  0.93694805  0.11975013  0.88215732  1
  H+  H297  1  0.17087647  0.33072332  0.22990852  1
  H+  H298  1  0.62441441  0.59664749  0.49770977  1
  H+  H299  1  0.08114089  0.41675707  0.06597939  1
  H+  H300  1  0.82781310  0.65978946  0.06842732  1
  H+  H301  1  0.83791722  0.93257869  0.76480508  1
  H+  H302  1  0.64489035  0.55249346  0.58977923  1
  H+  H303  1  0.41557501  0.83699290  0.93305996  1
  H+  H304  1  0.32155548  0.91026942  0.77425086  1
  H+  H305  1  0.42806592  0.34006308  0.23305797  1
  H+  H306  1  0.58249521  0.91383048  0.10059864  1
  H+  H307  1  0.41278339  0.58087636  0.55445708  1
  H+  H308  1  0.93204910  0.86337442  0.90559325  1
  H+  H309  1  0.18232627  0.33476657  0.55917970  1
  H+  H310  1  0.34230546  0.66495485  0.11205009  1
  H+  H311  1  0.18108724  0.35558026  0.93063173  1
  H+  H312  1  0.57407567  0.91283483  0.73142214  1
  H+  H313  1  0.04933066  0.86241909  0.73722138  1
  H+  H314  1  0.92134203  0.59656501  0.22906098  1
  H+  H315  1  0.37736017  0.98469584  0.15217273  1
  H+  H316  1  0.22171479  0.04194508  0.96476820  1
  H+  H317  1  0.58691575  0.20067250  0.50348466  1
  H+  H318  1  0.11247781  0.97424527  0.16405982  1
  H+  H319  1  0.35766575  0.44452694  0.38487554  1
  H+  H320  1  0.64279715  0.81439509  0.26939978  1
  H+  H321  1  0.81350421  0.88020255  0.11036384  1
  H+  H322  1  0.65368842  0.56685737  0.90125533  1
  H+  H323  1  0.16294924  0.82434340  0.94576886  1
  H+  H324  1  0.39817618  0.82462550  0.57503252  1
  H+  H325  1  0.24836645  0.36897995  0.31734920  1
  H+  H326  1  0.89670905  0.32974500  0.25412524  1
  H+  H327  1  0.89997466  0.08434564  0.56014702  1
  H+  H328  1  0.02354154  0.47381726  0.43478611  1
  H+  H329  1  0.14471976  0.12233885  0.50237379  1
  H+  H330  1  0.11479875  0.47899926  0.15981813  1
  H+  H331  1  0.82409705  0.39980785  0.72659116  1
  H+  H332  1  0.60934013  0.45949959  0.66310736  1
  H+  H333  1  0.56532099  0.64189216  0.08121167  1
  H+  H334  1  0.92284930  0.32991905  0.59873185  1
  H+  H335  1  0.64128757  0.32027686  0.21104508  1
  H+  H336  1  0.08167706  0.65791631  0.09179640  1
  H+  H337  1  0.16858365  0.58878803  0.22779654  1
  H+  H338  1  0.08745167  0.91923660  0.43498031  1
  H+  H339  1  0.70535103  0.92039205  0.89927980  1
  H+  H340  1  0.11302972  0.79901579  0.25977764  1
  H+  H341  1  0.17683123  0.08078248  0.27078373  1
  H+  H342  1  0.66392747  0.06652009  0.56270171  1
  H+  H343  1  0.58381936  0.41428927  0.06437564  1
  H+  H344  1  0.09298254  0.42217185  0.76135166  1
  H+  H345  1  0.33944658  0.92754093  0.06469889  1
  H+  H346  1  0.59430333  0.16352609  0.09037835  1
  H+  H347  1  0.57545577  0.65637390  0.42887981  1
  H+  H348  1  0.48780402  0.11429157  0.16465616  1
  H+  H349  1  0.59790297  0.91739744  0.41835781  1
  H+  H350  1  0.93099702  0.35576642  0.92494743  1
  H+  H351  1  0.16262500  0.82510992  0.56515955  1
  H+  H352  1  0.67649527  0.33754528  0.93344786  1
  H+  H353  1  0.08932141  0.42562327  0.38474247  1
  H+  H354  1  0.63783714  0.11004871  0.16923725  1
  H+  H355  1  0.91387491  0.05846095  0.23039114  1
  H+  H356  1  0.84322452  0.41992289  0.43876153  1
  H+  H357  1  0.08175718  0.65959131  0.74984006  1
  H+  H358  1  0.15071390  0.07443340  0.90866305  1
  H+  H359  1  0.92652735  0.11270915  0.65614887  1
  H+  H360  1  0.34184805  0.17170232  0.10914507  1
  H+  H361  1  0.41954307  0.84175606  0.26842293  1
  H+  H362  1  0.58230401  0.40646351  0.76465512  1
  H+  H363  1  0.23215309  0.10862954  0.17860781  1
  H+  H364  1  0.41876742  0.33381273  0.93317024  1
  H+  H365  1  0.35298581  0.67095052  0.74684367  1
  H+  H366  1  0.90975067  0.06963891  0.97134790  1
  H+  H367  1  0.41229720  0.08385353  0.90120840  1
  H+  H368  1  0.61241614  0.32866796  0.46652247  1
  H+  H369  1  0.58338981  0.16328667  0.73427638  1
  H+  H370  1  0.85574698  0.63217759  0.49254961  1
  H+  H371  1  0.08037922  0.65553773  0.43969159  1
  H+  H372  1  1.02385073  0.39219815  0.15728366  1
  H+  H373  1  0.56774129  0.64235810  0.72129528  1
  H+  H374  1  0.92758896  0.58298367  0.91054919  1
  H+  H375  1  0.83813267  0.42899403  0.09498382  1
  H+  H376  1  0.61857146  0.97776386  0.00350112  1
  H+  H377  1  0.52404577  0.38962072  0.15744217  1
  H+  H378  1  0.90293017  0.00108126  0.31843653  1
  H+  H379  1  0.16171296  0.56773873  0.56921959  1
  H+  H380  1  0.32821653  0.16411864  0.74145051  1
  H+  H381  1  0.88156711  0.49221791  0.00423131  1
  H+  H382  1  0.12678074  0.19582492  0.76847666  1
  H+  H383  1  0.83004512  0.67425633  0.40043974  1
  O2-  O384  1  0.08842255  0.15265823  0.15510538  1
  O2-  O385  1  0.08079438  0.16089811  0.47708166  1
  O2-  O386  1  0.10034447  0.18927972  0.81018768  1
  O2-  O387  1  0.08471179  0.41782012  0.14461340  1
  O2-  O388  1  0.05436311  0.44707486  0.45249784  1
  O2-  O389  1  0.08813446  0.42236115  0.80670785  1
  O2-  O390  1  0.08530681  0.65895160  0.14099416  1
  O2-  O391  1  0.07609630  0.65559961  0.48537770  1
  O2-  O392  1  0.06636546  0.67342732  0.79073620  1
  O2-  O393  1  0.07813987  0.91571797  0.14552176  1
  O2-  O394  1  0.08912244  0.91873730  0.48073388  1
  O2-  O395  1  0.06401140  0.86458124  0.81425658  1
  O2-  O396  1  0.33843694  0.16678190  0.15415617  1
  O2-  O397  1  0.35828847  0.21983861  0.53010059  1
  O2-  O398  1  0.32133502  0.15992253  0.81883840  1
  O2-  O399  1  0.33127602  0.40720069  0.14457791  1
  O2-  O400  1  0.34648186  0.43337173  0.45519279  1
  O2-  O401  1  0.34100724  0.41804625  0.80425834  1
  O2-  O402  1  0.33444363  0.66054576  0.15662569  1
  O2-  O403  1  0.32799186  0.67176266  0.48375632  1
  O2-  O404  1  0.33813329  0.66559081  0.81782786  1
  O2-  O405  1  0.34544284  0.92627793  0.13261533  1
  O2-  O406  1  0.32897790  0.90049802  0.48795155  1
  O2-  O407  1  0.32622197  0.91284234  0.81963964  1
  O2-  O408  1  0.59722426  0.16513136  0.13575361  1
  O2-  O409  1  0.55129546  0.14328988  0.52274500  1
  O2-  O410  1  0.57858494  0.16586080  0.81235750  1
  O2-  O411  1  0.58366031  0.42288424  0.14007230  1
  O2-  O412  1  0.55406166  0.38732732  0.46364404  1
  O2-  O413  1  0.57844302  0.40386577  0.80978840  1
  O2-  O414  1  0.56875268  0.65224169  0.15685589  1
  O2-  O415  1  0.57807956  0.65903971  0.47474492  1
  O2-  O416  1  0.56346500  0.63518651  0.80122000  1
  O2-  O417  1  0.58082744  0.91347812  0.14579621  1
  O2-  O418  1  0.59870785  0.91706707  0.46754305  1
  O2-  O419  1  0.57863793  0.93127443  0.80844105  1
  O2-  O420  1  0.82597293  0.14927862  0.15980446  1
  O2-  O421  1  0.83124844  0.16805725  0.47387542  1
  O2-  O422  1  0.83167350  0.18191550  0.80832873  1
  O2-  O423  1  0.83262078  0.42500875  0.14032085  1
  O2-  O424  1  0.82128863  0.40868253  0.48152474  1
  O2-  O425  1  0.82142729  0.39262486  0.79394143  1
  O2-  O426  1  0.82852754  0.66481677  0.14755194  1
  O2-  O427  1  0.82425486  0.66078405  0.47678487  1
  O2-  O428  1  0.84373526  0.68938274  0.86451502  1
  O2-  O429  1  0.81608601  0.88932272  0.15503912  1
  O2-  O430  1  0.81889523  0.90833690  0.47988027  1
  O2-  O431  1  0.84579908  0.94109889  0.80973598  1
  O2-  O432  1  0.17213928  0.07617356  0.19475189  1
  O2-  O433  1  0.17997572  0.09737645  0.51833600  1
  O2-  O434  1  0.13754070  0.07362148  0.86436805  1
  O2-  O435  1  0.16603726  0.32804159  0.18464378  1
  O2-  O436  1  0.17892724  0.33043395  0.51319540  1
  O2-  O437  1  0.18007935  0.35109499  0.85336300  1
  O2-  O438  1  0.16673205  0.58269165  0.18254126  1
  O2-  O439  1  0.16422259  0.57384602  0.52007684  1
  O2-  O440  1  0.18527830  0.59062824  0.85668219  1
  O2-  O441  1  0.14384254  0.81461209  0.19449325  1
  O2-  O442  1  0.16354929  0.82640777  0.51966675  1
  O2-  O443  1  0.16531489  0.80611408  0.86547186  1
  O2-  O444  1  0.42928486  0.08160328  0.18187524  1
  O2-  O445  1  0.38855569  0.09946923  0.53967680  1
  O2-  O446  1  0.40866650  0.08233480  0.85553770  1
  O2-  O447  1  0.42373914  0.33504726  0.18755029  1
  O2-  O448  1  0.38737448  0.26557180  0.47202869  1
  O2-  O449  1  0.41593270  0.33157494  0.85397793  1
  O2-  O450  1  0.40516907  0.56229609  0.19886321  1
  O2-  O451  1  0.41400991  0.58910178  0.50966961  1
  O2-  O452  1  0.41341529  0.57810058  0.85482576  1
  O2-  O453  1  0.41420956  0.83111577  0.19121975  1
  O2-  O454  1  0.39553474  0.82328458  0.52916364  1
  O2-  O455  1  0.41626314  0.83506743  0.85565214  1
  O2-  O456  1  0.66393510  0.07764950  0.18891592  1
  O2-  O457  1  0.66271421  0.06658475  0.51720918  1
  O2-  O458  1  0.66966844  0.09393638  0.85290923  1
  O2-  O459  1  0.66039230  0.33133471  0.16735396  1
  O2-  O460  1  0.64244467  0.29489340  0.46421627  1
  O2-  O461  1  0.66791900  0.33105920  0.85606800  1
  O2-  O462  1  0.66467753  0.58312811  0.19114608  1
  O2-  O463  1  0.64986723  0.56104400  0.51079474  1
  O2-  O464  1  0.65407606  0.56199104  0.85609185  1
  O2-  O465  1  0.64963139  0.82118173  0.19018510  1
  O2-  O466  1  0.66101380  0.82918582  0.51456702  1
  O2-  O467  1  0.69004356  0.89046471  0.86045427  1
  O2-  O468  1  0.91038178  0.05562947  0.18462200  1
  O2-  O469  1  0.90797289  0.08246882  0.51550095  1
  O2-  O470  1  0.93175368  0.11046200  0.83712919  1
  O2-  O471  1  0.90877821  0.34021009  0.17217357  1
  O2-  O472  1  0.91259243  0.32990719  0.52067721  1
  O2-  O473  1  0.92773546  0.34427776  0.85406452  1
  O2-  O474  1  0.91378877  0.58438044  0.18456696  1
  O2-  O475  1  0.90727223  0.57828424  0.52113759  1
  O2-  O476  1  0.91643995  0.58312714  0.86625081  1
  O2-  O477  1  0.91526410  0.82772434  0.19399838  1
  O2-  O478  1  0.91155789  0.82980160  0.51316089  1
  O2-  O479  1  0.95946508  0.90117507  0.86981791  1
  O2-  O480  1  0.17452968  0.08142546  0.31663904  1
  O2-  O481  1  0.18256182  0.07401264  0.63596258  1
  O2-  O482  1  0.18213195  0.06036577  0.97920194  1
  O2-  O483  1  0.18593775  0.33260381  0.30885072  1
  O2-  O484  1  0.18476676  0.33914154  0.63490435  1
  O2-  O485  1  0.17645026  0.35238521  0.97610070  1
  O2-  O486  1  0.17587550  0.59273708  0.30655997  1
  O2-  O487  1  0.16012526  0.56552398  0.63381392  1
  O2-  O488  1  0.16508002  0.59192758  0.97604879  1
  O2-  O489  1  0.08786747  0.78330314  0.30325374  1
  O2-  O490  1  0.16255474  0.81582067  0.64424644  1
  O2-  O491  1  0.16311422  0.83864846  0.98929790  1
  O2-  O492  1  0.44771125  0.12841961  0.32694064  1
  O2-  O493  1  0.41547418  0.07819646  0.65942416  1
  O2-  O494  1  0.42088348  0.09004682  0.97835578  1
  O2-  O495  1  0.43383026  0.34457408  0.30960834  1
  O2-  O496  1  0.41748052  0.31725531  0.63952035  1
  O2-  O497  1  0.42105750  0.33415444  0.97862303  1
  O2-  O498  1  0.40239774  0.53083081  0.31786657  1
  O2-  O499  1  0.40956749  0.56985322  0.63308879  1
  O2-  O500  1  0.41433157  0.57413776  0.97908102  1
  O2-  O501  1  0.42288967  0.84516369  0.31407728  1
  O2-  O502  1  0.40667909  0.83205744  0.64982340  1
  O2-  O503  1  0.41524962  0.83907135  0.97865416  1
  O2-  O504  1  0.67598306  0.07934500  0.31484187  1
  O2-  O505  1  0.65544050  0.06434585  0.64232330  1
  O2-  O506  1  0.67038289  0.08000220  0.97739235  1
  O2-  O507  1  0.58264875  0.29026857  0.27329817  1
  O2-  O508  1  0.66655850  0.32312824  0.65128012  1
  O2-  O509  1  0.68037388  0.33718678  0.97897432  1
  O2-  O510  1  0.66177357  0.57852352  0.31213036  1
  O2-  O511  1  0.64228042  0.54727609  0.63494573  1
  O2-  O512  1  0.66261043  0.57529830  0.98152697  1
  O2-  O513  1  0.63837848  0.81387322  0.31449846  1
  O2-  O514  1  0.65498596  0.82163441  0.64260743  1
  O2-  O515  1  0.64754991  0.80208692  0.98616606  1
  O2-  O516  1  0.92225553  0.06237485  0.30719470  1
  O2-  O517  1  0.86975373  0.08442457  0.63715447  1
  O2-  O518  1  0.94029944  0.13008599  0.96014874  1
  O2-  O519  1  0.90613666  0.33163068  0.29869983  1
  O2-  O520  1  0.92537150  0.33368912  0.64413125  1
  O2-  O521  1  0.93032106  0.35994862  0.97157002  1
  O2-  O522  1  0.94189388  0.63801260  0.30307451  1
  O2-  O523  1  0.92352987  0.58054932  0.64523778  1
  O2-  O524  1  0.92765095  0.57956747  0.98961753  1
  O2-  O525  1  0.91278863  0.84997931  0.31862435  1
  O2-  O526  1  0.90133036  0.83901219  0.63436453  1
  O2-  O527  1  0.90795782  0.81963383  0.98408394  1
  O2-  O528  1  0.08988186  0.18962322  0.00685917  1
  O2-  O529  1  0.08781241  0.16006989  0.35219792  1
  O2-  O530  1  0.18397646  0.21205615  0.70682718  1
  O2-  O531  1  0.07875032  0.41668768  0.02044391  1
  O2-  O532  1  0.10167229  0.41897757  0.34134303  1
  O2-  O533  1  0.09949790  0.41525532  0.68155234  1
  O2-  O534  1  0.07647064  0.65711716  0.02770783  1
  O2-  O535  1  0.08242457  0.65084717  0.36432762  1
  O2-  O536  1  0.09409347  0.65238487  0.67430437  1
  O2-  O537  1  0.07287981  0.91245178  0.02572916  1
  O2-  O538  1  0.07948301  0.91807491  0.35866843  1
  O2-  O539  1  0.05619875  0.87778673  0.69292945  1
  O2-  O540  1  0.34406487  0.17715351  0.02876705  1
  O2-  O541  1  0.34077891  0.18626186  0.35870278  1
  O2-  O542  1  0.33810287  0.16541675  0.69657803  1
  O2-  O543  1  0.33548142  0.41181228  0.02209893  1
  O2-  O544  1  0.36127579  0.44113943  0.33817515  1
  O2-  O545  1  0.34729160  0.41414440  0.67973403  1
  O2-  O546  1  0.39375998  0.69807440  0.03603581  1
  O2-  O547  1  0.32717006  0.67827846  0.35523486  1
  O2-  O548  1  0.37517272  0.68122334  0.70280182  1
  O2-  O549  1  0.33392128  0.92877167  0.01759673  1
  O2-  O550  1  0.40321020  0.96088809  0.37865666  1
  O2-  O551  1  0.32206977  0.91013782  0.69560870  1
  O2-  O552  1  0.59084555  0.16742783  0.01201412  1
  O2-  O553  1  0.58549129  0.13654363  0.38046084  1
  O2-  O554  1  0.58452945  0.16398238  0.68862924  1
  O2-  O555  1  0.58777730  0.41152975  0.01882087  1
  O2-  O556  1  0.59374324  0.42161870  0.34931157  1
  O2-  O557  1  0.58479561  0.39860177  0.68188281  1
  O2-  O558  1  0.56682193  0.64103700  0.03528924  1
  O2-  O559  1  0.56451463  0.64419169  0.35401625  1
  O2-  O560  1  0.57378333  0.65219503  0.67659787  1
  O2-  O561  1  0.58343218  0.91711856  0.01927013  1
  O2-  O562  1  0.59034370  0.91385215  0.35518933  1
  O2-  O563  1  0.57053605  0.90410372  0.68624968  1
  O2-  O564  1  0.82717149  0.16527243  0.02882216  1
  O2-  O565  1  0.84530166  0.16346500  0.34699075  1
  O2-  O566  1  0.80697745  0.17188814  0.69055212  1
  O2-  O567  1  0.84949933  0.42485623  0.01638455  1
  O2-  O568  1  0.89284875  0.45007895  0.36965971  1
  O2-  O569  1  0.82222347  0.40222450  0.67938612  1
  O2-  O570  1  0.83136726  0.65760260  0.02322892  1
  O2-  O571  1  0.83195601  0.68368098  0.35522455  1
  O2-  O572  1  0.85130365  0.67894316  0.70012859  1
  O2-  O573  1  0.80446405  0.86055465  0.03209993  1
  O2-  O574  1  0.86701898  0.89304225  0.33049787  1
  O2-  O575  1  0.81826965  0.91989303  0.68570994  1
