# generated using pymatgen
data_H2O
_symmetry_space_group_name_H-M   'P 1'
_cell_length_a   17.99416976
_cell_length_b   17.99315438
_cell_length_c   22.00831390
_cell_angle_alpha   89.98186469
_cell_angle_beta   90.00553823
_cell_angle_gamma   120.00953301
_symmetry_Int_Tables_number   1
_chemical_formula_structural   H2O
_chemical_formula_sum   'H384 O192'
_cell_volume   6170.42067256
_cell_formula_units_Z   192
loop_
 _symmetry_equiv_pos_site_id
 _symmetry_equiv_pos_as_xyz
  1  'x, y, z'
loop_
 _atom_type_symbol
 _atom_type_oxidation_number
  H+  1.0
  O2-  -2.0
loop_
 _atom_site_type_symbol
 _atom_site_label
 _atom_site_symmetry_multiplicity
 _atom_site_fract_x
 _atom_site_fract_y
 _atom_site_fract_z
 _atom_site_occupancy
  H+  H0  1  0.52977661  0.40165417  0.35030734  1
  H+  H1  1  0.85821423  0.22230516  0.67195305  1
  H+  H2  1  0.63541402  0.25317619  0.15026311  1
  H+  H3  1  0.91673419  0.77505416  -0.00010562  1
  H+  H4  1  0.88712758  0.27273210  0.50377881  1
  H+  H5  1  0.66081674  0.02504563  0.85451104  1
  H+  H6  1  0.04437226  0.40911230  0.01071021  1
  H+  H7  1  0.26996675  0.14037346  0.82656948  1
  H+  H8  1  0.60802378  0.65486544  0.03149532  1
  H+  H9  1  0.26731756  0.13053020  0.15996717  1
  H+  H10  1  0.48286320  0.12038007  0.65818493  1
  H+  H11  1  0.80249121  0.12415682  0.32489038  1
  H+  H12  1  0.49272446  0.10942465  0.15947291  1
  H+  H13  1  0.60460256  0.73494643  0.49843517  1
  H+  H14  1  0.14096395  0.36732994  0.50896929  1
  H+  H15  1  0.04486434  0.93331143  0.18781713  1
  H+  H16  1  0.90914025  0.08635364  0.56169139  1
  H+  H17  1  0.39483706  0.36829915  0.17043719  1
  H+  H18  1  0.99267391  0.62211321  0.32888072  1
  H+  H19  1  0.37856730  0.85333999  0.50770031  1
  H+  H20  1  0.56816953  0.56038026  0.94677314  1
  H+  H21  1  0.85326438  0.88818388  0.49924192  1
  H+  H22  1  0.70957289  0.36834142  0.33652252  1
  H+  H23  1  0.14883065  0.61817769  0.83659564  1
  H+  H24  1  0.76622702  0.39532672  0.16373376  1
  H+  H25  1  0.13709124  0.48578348  0.01222651  1
  H+  H26  1  1.01944602  0.14212240  0.49289407  1
  H+  H27  1  0.47432203  0.61658617  1.00464717  1
  H+  H28  1  0.85593153  0.26570807  1.03423469  1
  H+  H29  1  0.98814958  0.48038505  0.96825961  1
  H+  H30  1  0.36046125  0.86067522  0.86024229  1
  H+  H31  1  0.14562079  0.02493450  0.99614132  1
  H+  H32  1  0.77778029  0.80941906  0.37994569  1
  H+  H33  1  0.16421203  0.09052021  0.56032125  1
  H+  H34  1  0.48754143  0.88017382  0.93659858  1
  H+  H35  1  0.12066899  0.64542983  0.67023710  1
  H+  H36  1  0.36162571  0.47830946  0.16204397  1
  H+  H37  1  0.26769064  0.13613175  0.49099989  1
  H+  H38  1  0.26969332  0.87842506  0.49785017  1
  H+  H39  1  0.62827710  0.49180079  0.82131108  1
  H+  H40  1  0.87093917  0.13369303  0.16937489  1
  H+  H41  1  0.48137024  0.29468103  0.29314489  1
  H+  H42  1  0.85574875  0.48122719  0.01527516  1
  H+  H43  1  0.46719286  0.62055030  0.17687593  1
  H+  H44  1  0.54894143  0.91133897  0.84370539  1
  H+  H45  1  -0.00937760  0.60336891  0.83513648  1
  H+  H46  1  0.13932853  0.76896792  0.50632271  1
  H+  H47  1  0.51315961  0.13621786  0.49751784  1
  H+  H48  1  0.23012556  0.35240228  0.17183441  1
  H+  H49  1  0.12237511  0.63572987  0.49375042  1
  H+  H50  1  0.62592937  0.89223922  0.83485678  1
  H+  H51  1  0.65220881  0.51150136  0.32597205  1
  H+  H52  1  0.87255541  0.77525810  0.66479232  1
  H+  H53  1  0.10447240  0.42820417  0.76226556  1
  H+  H54  1  0.90298791  0.09433579  0.33212520  1
  H+  H55  1  0.65522215  0.59102936  0.57901513  1
  H+  H56  1  0.91079789  0.39882597  0.35791116  1
  H+  H57  1  0.38777115  0.36955326  0.84574496  1
  H+  H58  1  0.63779175  0.77553820  0.18605712  1
  H+  H59  1  0.14079514  0.27517588  -0.00576527  1
  H+  H60  1  0.10298251  0.96673709  0.08541965  1
  H+  H61  1  0.62347912  0.76202674  0.83774341  1
  H+  H62  1  0.37574749  0.10660526  0.50601820  1
  H+  H63  1  0.87151090  0.99783497  0.82384948  1
  H+  H64  1  0.87273587  0.35671023  0.34862231  1
  H+  H65  1  0.11309598  0.13546669  0.00323467  1
  H+  H66  1  0.11686222  0.72336832  0.82376458  1
  H+  H67  1  0.60410481  0.22495567  0.49807326  1
  H+  H68  1  0.72855245  0.87449522  0.18051614  1
  H+  H69  1  0.60056298  0.64538487  0.82746821  1
  H+  H70  1  0.85759982  0.43043171  0.61594389  1
  H+  H71  1  0.35689247  0.88686587  -0.02617445  1
  H+  H72  1  0.68460550  0.12333445  0.85075812  1
  H+  H73  1  0.75994149  0.12799879  0.01950952  1
  H+  H74  1  0.57640555  -0.03894774  1.00407163  1
  H+  H75  1  0.66523304  0.62881981  0.95332546  1
  H+  H76  1  0.71739019  0.11080656  0.66002938  1
  H+  H77  1  0.12228283  0.25710674  0.32615944  1
  H+  H78  1  0.37205903  0.49237551  0.83444616  1
  H+  H79  1  0.90460774  0.12637728  0.83542210  1
  H+  H80  1  0.14092880  1.02649295  0.83801885  1
  H+  H81  1  0.36677610  0.73179800  0.50184721  1
  H+  H82  1  0.76354420  0.59609362  0.81836242  1
  H+  H83  1  0.18643086  0.79369419  0.15126184  1
  H+  H84  1  0.46050418  0.11977775  0.32338073  1
  H+  H85  1  0.60373910  0.64540725  0.49644519  1
  H+  H86  1  0.36323771  0.63293294  0.01088655  1
  H+  H87  1  0.93649869  0.58441692  0.93201613  1
  H+  H88  1  0.52841995  0.86732832  0.08772063  1
  H+  H89  1  0.01036125  0.85872894  0.35396964  1
  H+  H90  1  0.66089598  0.82799260  0.93049350  1
  H+  H91  1  0.88896399  0.77395432  0.31827689  1
  H+  H92  1  0.87280807  0.73235571  0.16503278  1
  H+  H93  1  0.09760178  0.17980854  0.74711449  1
  H+  H94  1  0.92395800  0.84134700  0.23129237  1
  H+  H95  1  0.47297347  0.44564152  0.70802639  1
  H+  H96  1  0.26646713  0.62924740  0.33805172  1
  H+  H97  1  0.15107087  0.52956306  0.83488799  1
  H+  H98  1  0.38653046  0.52771227  0.50443338  1
  H+  H99  1  0.96637131  0.86290518  0.52054442  1
  H+  H100  1  0.39203436  0.52137763  0.99703354  1
  H+  H101  1  0.37389163  0.89340247  0.67702071  1
  H+  H102  1  1.03139242  0.63106649  0.49676601  1
  H+  H103  1  0.88087528  0.77421312  0.50572811  1
  H+  H104  1  0.45329815  0.34688749  0.65954074  1
  H+  H105  1  0.59282983  0.14280721  0.34043358  1
  H+  H106  1  0.60508237  0.97871414  0.68058873  1
  H+  H107  1  0.90225353  0.54212714  0.66386970  1
  H+  H108  1  0.47049100  0.85723329  0.50488316  1
  H+  H109  1  0.87412559  0.08570792  0.99185102  1
  H+  H110  1  0.88638415  0.65109904  0.33355823  1
  H+  H111  1  0.43869486  0.33480026  0.25331328  1
  H+  H112  1  0.23673019  0.86218742  0.98046630  1
  H+  H113  1  0.63830316  0.36472803  0.51595139  1
  H+  H114  1  0.35215163  0.63933885  0.15973731  1
  H+  H115  1  0.82592636  0.42341549  0.07602401  1
  H+  H116  1  0.04061776  0.15205038  0.83463468  1
  H+  H117  1  0.25696295  0.16612998  0.28623053  1
  H+  H118  1  0.71530488  0.60564162  0.66742906  1
  H+  H119  1  0.85417399  0.13496206  0.49280027  1
  H+  H120  1  0.61098449  0.64937360  0.17016843  1
  H+  H121  1  0.62258032  0.86250763  0.66216449  1
  H+  H122  1  1.03657344  0.38515290  0.67171136  1
  H+  H123  1  0.50953840  0.36501026  0.83051913  1
  H+  H124  1  0.64749687  0.13738403  0.17854947  1
  H+  H125  1  0.13122760  0.24180022  0.83608227  1
  H+  H126  1  0.07171151  0.29578646  0.29263846  1
  H+  H127  1  0.37970778  0.10586841  0.99630207  1
  H+  H128  1  -0.00893274  0.63201680  0.66605751  1
  H+  H129  1  0.45732554  0.11022735  0.83701458  1
  H+  H130  1  0.57518720  0.67510630  0.74361235  1
  H+  H131  1  0.89968523  0.35912462  0.66075896  1
  H+  H132  1  0.85354359  0.38901645  0.89991472  1
  H+  H133  1  0.61483720  0.52811237  0.66948020  1
  H+  H134  1  0.36914405  0.10921219  0.83887392  1
  H+  H135  1  1.03112879  0.89732328  0.82866762  1
  H+  H136  1  0.36650194  0.88025073  0.33446725  1
  H+  H137  1  0.33779703  0.41775440  0.43366473  1
  H+  H138  1  0.62118525  0.27678345  0.33556059  1
  H+  H139  1  0.23026895  0.61965863  0.65579427  1
  H+  H140  1  0.35931044  0.23095311  0.82792578  1
  H+  H141  1  0.35277994  0.14039792  0.33926850  1
  H+  H142  1  0.71767633  0.85598717  0.83815263  1
  H+  H143  1  0.33435984  0.74971823  0.15626850  1
  H+  H144  1  0.63841791  0.88496118  0.32903793  1
  H+  H145  1  0.36419431  0.38739477  0.49401654  1
  H+  H146  1  0.26907041  0.63170624  0.50319885  1
  H+  H147  1  0.37654319  0.49204312  0.67988732  1
  H+  H148  1  0.87580891  0.99509966  0.67361492  1
  H+  H149  1  0.60982844  0.64685823  0.68433039  1
  H+  H150  1  0.65985624  0.20644414  -0.00369055  1
  H+  H151  1  0.01659067  0.88889763  0.67314588  1
  H+  H152  1  0.36781192  0.22157236  0.66973003  1
  H+  H153  1  0.59670265  0.88446150  0.99334922  1
  H+  H154  1  0.72160867  0.34713935  0.84810423  1
  H+  H155  1  0.85021519  0.67241860  0.42343069  1
  H+  H156  1  0.87213469  0.46270420  0.85401887  1
  H+  H157  1  0.14947680  0.27758365  0.66197592  1
  H+  H158  1  0.22844994  0.36467932  0.50581766  1
  H+  H159  1  0.02917716  0.39144634  0.49804711  1
  H+  H160  1  0.47963984  0.62380612  0.66535522  1
  H+  H161  1  0.47475605  0.62012545  0.50403074  1
  H+  H162  1  0.11272058  0.88808200  0.07008488  1
  H+  H163  1  0.14521728  0.36646631  -0.00232551  1
  H+  H164  1  0.93331820  0.85488589  0.91167865  1
  H+  H165  1  1.04340948  0.10800410  0.70027722  1
  H+  H166  1  0.60220633  0.97643289  0.49711353  1
  H+  H167  1  0.38815998  0.52760686  0.32435668  1
  H+  H168  1  0.88489524  0.80602128  0.85261595  1
  H+  H169  1  0.90339857  0.00629831  0.33146601  1
  H+  H170  1  0.38067215  0.26843518  0.50302924  1
  H+  H171  1  0.90441791  0.61839326  0.51027298  1
  H+  H172  1  1.02362694  0.13401292  1.00172259  1
  H+  H173  1  0.13038178  0.11376883  0.50005254  1
  H+  H174  1  0.35397943  0.21989826  0.16155545  1
  H+  H175  1  0.27465279  0.14015425  0.00749694  1
  H+  H176  1  0.81302157  0.25491143  0.02123652  1
  H+  H177  1  0.85650280  0.50610992  0.34972623  1
  H+  H178  1  0.15199343  0.12512493  0.65761462  1
  H+  H179  1  0.72411362  0.62204793  0.16812640  1
  H+  H180  1  0.14009194  0.60977903  0.32749696  1
  H+  H181  1  0.14440672  0.85847831  0.98137948  1
  H+  H182  1  0.36164991  0.73753537  0.86019511  1
  H+  H183  1  0.37137616  0.12818580  0.67850366  1
  H+  H184  1  0.57400876  0.11832220  0.83055079  1
  H+  H185  1  0.37928330  0.64983973  0.84824726  1
  H+  H186  1  0.36650921  0.38417917  0.33178805  1
  H+  H187  1  0.89496137  0.59062566  0.83388318  1
  H+  H188  1  0.27843047  0.38135790  0.33231007  1
  H+  H189  1  0.79111496  0.63487422  0.32992021  1
  H+  H190  1  0.65116523  0.28312894  0.67070113  1
  H+  H191  1  0.14106385  0.52955568  0.65415216  1
  H+  H192  1  0.81763142  0.91081352  0.44054101  1
  H+  H193  1  0.99605407  0.86941049  1.00943207  1
  H+  H194  1  0.30296374  0.39441258  0.68028448  1
  H+  H195  1  0.60941587  0.39047927  0.35699615  1
  H+  H196  1  0.12443192  0.72642419  0.34062071  1
  H+  H197  1  0.27822393  0.63812918  1.00644479  1
  H+  H198  1  0.87843583  0.23185677  0.80704168  1
  H+  H199  1  0.60240375  0.21864250  0.83028042  1
  H+  H200  1  0.62415367  0.99692812  0.34289918  1
  H+  H201  1  0.88857702  0.27192230  0.17224922  1
  H+  H202  1  0.36822558  0.38509545  0.00930239  1
  H+  H203  1  0.47581645  0.35386477  -0.00421166  1
  H+  H204  1  0.62312241  0.77464516  0.66279517  1
  H+  H205  1  0.98572394  0.10763822  0.17215936  1
  H+  H206  1  0.79896879  0.14109101  0.83293858  1
  H+  H207  1  0.60949103  0.47907116  0.51040172  1
  H+  H208  1  0.37822198  0.01803806  0.50895815  1
  H+  H209  1  0.48206026  0.36306426  0.16392380  1
  H+  H210  1  0.14939005  0.52558383  0.50696140  1
  H+  H211  1  0.70856618  0.15250036  0.33124257  1
  H+  H212  1  0.37421315  0.03671056  0.30196224  1
  H+  H213  1  0.16286853  0.82767443  0.89094999  1
  H+  H214  1  0.98410136  0.36460787  0.80521900  1
  H+  H215  1  0.88327716  0.85894293  0.32229317  1
  H+  H216  1  0.72557799  0.35341963  -0.00385653  1
  H+  H217  1  0.48817466  0.63699870  0.84112623  1
  H+  H218  1  0.12138774  0.48216151  0.34409559  1
  H+  H219  1  0.78915081  0.61529269  0.47542320  1
  H+  H220  1  0.13390496  0.50933221  0.18202363  1
  H+  H221  1  0.71373836  0.86477078  0.51406257  1
  H+  H222  1  0.33789027  0.41867454  0.10304785  1
  H+  H223  1  0.52090224  0.65243788  0.33844807  1
  H+  H224  1  0.21944255  0.85895798  0.83107788  1
  H+  H225  1  0.12315357  0.39367661  0.34770789  1
  H+  H226  1  0.04098762  0.12519979  0.34361874  1
  H+  H227  1  0.81228076  0.63635459  0.01488642  1
  H+  H228  1  0.62947496  0.33202812  0.99646472  1
  H+  H229  1  0.60856664  0.74153316  0.01547048  1
  H+  H230  1  0.13766985  0.85583237  0.51591551  1
  H+  H231  1  0.99884150  0.34373569  0.32141853  1
  H+  H232  1  0.59240674  0.93255156  0.40034929  1
  H+  H233  1  0.47038242  0.35801960  0.51134848  1
  H+  H234  1  0.74999091  0.86663789  0.34447638  1
  H+  H235  1  0.61125217  0.13829232  0.67300010  1
  H+  H236  1  0.17698447  0.58621633  0.56806669  1
  H+  H237  1  0.87955895  0.02541590  0.50363908  1
  H+  H238  1  0.87275981  0.11563751  0.65876436  1
  H+  H239  1  0.12599840  0.39729315  0.82543224  1
  H+  H240  1  0.14788948  0.61684817  0.99362093  1
  H+  H241  1  0.36806673  0.63524981  0.50029659  1
  H+  H242  1  0.66579990  0.57960589  0.22491105  1
  H+  H243  1  0.11417170  0.37301118  0.16154246  1
  H+  H244  1  0.13009077  0.39538956  0.66893759  1
  H+  H245  1  0.85196760  0.67809371  0.83468683  1
  H+  H246  1  0.08398229  0.91645590  0.57308395  1
  H+  H247  1  0.89277884  0.35654474  0.81706331  1
  H+  H248  1  0.90032327  0.86935331  0.16888682  1
  H+  H249  1  0.35799722  0.63922530  0.67179941  1
  H+  H250  1  0.86664502  0.64627986  0.67057824  1
  H+  H251  1  0.85770986  0.99159966  0.15627424  1
  H+  H252  1  0.87345326  0.87524529  1.00522686  1
  H+  H253  1  0.14884401  1.00091454  0.30820745  1
  H+  H254  1  0.89182635  0.61909065  0.18119573  1
  H+  H255  1  0.97810850  0.35927453  0.17060036  1
  H+  H256  1  0.14287212  0.11749803  0.84357817  1
  H+  H257  1  0.61163835  0.45128801  1.00440562  1
  H+  H258  1  0.99985316  0.61765754  0.99101472  1
  H+  H259  1  0.62634218  0.11369932  0.50765234  1
  H+  H260  1  0.62493158  0.38563247  0.15676363  1
  H+  H261  1  0.71549482  0.11383160  0.50607730  1
  H+  H262  1  0.58022386  0.68925786  0.11708781  1
  H+  H263  1  0.96858431  0.13402146  0.65342198  1
  H+  H264  1  0.11829637  0.21267953  0.15723934  1
  H+  H265  1  0.62306727  0.78415855  0.32867546  1
  H+  H266  1  0.13225346  0.02865790  0.65438639  1
  H+  H267  1  0.50141469  0.88098833  0.15105425  1
  H+  H268  1  0.65005093  0.83268560  0.57236291  1
  H+  H269  1  0.72823716  0.12342220  0.18627293  1
  H+  H270  1  0.22572458  0.86356862  0.33415118  1
  H+  H271  1  0.12592913  0.72830542  1.00033947  1
  H+  H272  1  0.35710132  0.97352567  -0.00810999  1
  H+  H273  1  0.60428448  0.88829925  0.49721487  1
  H+  H274  1  0.36617561  0.76551687  0.31235720  1
  H+  H275  1  0.12162073  0.01506478  0.32480150  1
  H+  H276  1  0.91020128  0.40956187  1.00307042  1
  H+  H277  1  0.13022463  0.84401835  0.34371136  1
  H+  H278  1  0.35334674  0.97362316  0.83140577  1
  H+  H279  1  0.11480724  0.88812158  0.82193909  1
  H+  H280  1  0.89097035  1.00840241  -0.01525796  1
  H+  H281  1  0.37639901  0.98442830  0.67831745  1
  H+  H282  1  0.56378530  0.16837715  0.40214659  1
  H+  H283  1  0.78575787  0.39321946  0.66490949  1
  H+  H284  1  0.87032001  0.91004509  0.82906413  1
  H+  H285  1  0.23791215  0.37698498  0.84453988  1
  H+  H286  1  0.72410014  0.85895549  0.98777657  1
  H+  H287  1  0.36660394  0.23386922  0.34276175  1
  H+  H288  1  0.14829386  0.87094329  0.68256264  1
  H+  H289  1  0.11249917  0.07881935  0.14781394  1
  H+  H290  1  0.32918084  0.16829326  0.43286112  1
  H+  H291  1  0.09193416  0.41373062  0.10482563  1
  H+  H292  1  0.33890865  0.16494713  0.73938021  1
  H+  H293  1  0.71463195  0.51133428  0.27692778  1
  H+  H294  1  0.63599390  0.08441534  0.94357733  1
  H+  H295  1  0.28008247  0.38706157  0.00907460  1
  H+  H296  1  0.66408751  0.34049399  0.22008008  1
  H+  H297  1  0.93106352  0.07297114  0.23470298  1
  H+  H298  1  0.42539351  0.59816770  0.90362372  1
  H+  H299  1  0.72530119  0.36109597  0.51269085  1
  H+  H300  1  0.82718808  0.15893203  0.72982085  1
  H+  H301  1  0.83152436  0.42912860  0.44368858  1
  H+  H302  1  0.83076234  0.66169032  0.73113760  1
  H+  H303  1  0.36926223  0.81911232  0.25357201  1
  H+  H304  1  0.65643184  0.55166476  0.87865471  1
  H+  H305  1  0.34015656  0.91599760  0.77282954  1
  H+  H306  1  0.09368571  0.67294936  0.06231668  1
  H+  H307  1  0.67427452  0.33890740  0.61175460  1
  H+  H308  1  0.41170150  0.97208616  0.36518254  1
  H+  H309  1  0.12615583  0.73724043  0.68680893  1
  H+  H310  1  0.21539087  0.60251602  0.17617498  1
  H+  H311  1  0.41872016  0.83474757  0.60511220  1
  H+  H312  1  0.89466670  0.20914647  0.32947037  1
  H+  H313  1  0.09233693  0.66365563  0.76468099  1
  H+  H314  1  0.73285559  0.03530029  0.03724369  1
  H+  H315  1  0.92220013  0.32524633  0.60114163  1
  H+  H316  1  0.58389946  0.40132828  0.06774469  1
  H+  H317  1  0.57869657  0.68611101  0.39808287  1
  H+  H318  1  0.89691800  0.28901300  0.92172483  1
  H+  H319  1  0.03063280  0.65850738  0.15874051  1
  H+  H320  1  0.82862797  0.16335781  0.43239018  1
  H+  H321  1  0.17942934  0.33388034  0.60204508  1
  H+  H322  1  0.16323425  0.31408147  0.22747451  1
  H+  H323  1  0.94879858  0.30974353  0.25712539  1
  H+  H324  1  0.65576567  0.08030172  0.60183869  1
  H+  H325  1  0.41100051  0.33038766  0.90423832  1
  H+  H326  1  0.23822649  0.87345881  0.69150706  1
  H+  H327  1  0.07779052  0.90857316  0.40517418  1
  H+  H328  1  0.92486548  0.08836455  0.89638839  1
  H+  H329  1  0.66240124  0.10588012  0.26717088  1
  H+  H330  1  0.40357965  0.07853487  0.93429641  1
  H+  H331  1  0.38384967  0.26890540  0.99648531  1
  H+  H332  1  0.62396262  0.18604766  0.09601679  1
  H+  H333  1  0.16877635  0.08002532  0.93458625  1
  H+  H334  1  0.33106132  0.66846633  0.39495352  1
  H+  H335  1  0.89806647  0.83201702  0.60388367  1
  H+  H336  1  0.09069128  0.66370014  0.39877422  1
  H+  H337  1  0.35639218  0.72667226  0.67263859  1
  H+  H338  1  0.93223237  0.59350388  0.26840247  1
  H+  H339  1  0.47527729  0.86352256  0.66661988  1
  H+  H340  1  0.58386058  0.92378065  0.74195303  1
  H+  H341  1  0.67002954  0.84408504  0.25170167  1
  H+  H342  1  0.89007525  0.36280211  0.50673154  1
  H+  H343  1  0.83614076  0.90950556  0.05745224  1
  H+  H344  1  0.71742189  0.64124193  0.52528825  1
  H+  H345  1  0.82485218  0.14243789  0.11078006  1
  H+  H346  1  0.40467603  0.58586445  0.23267737  1
  H+  H347  1  0.16756111  0.57465439  0.26808612  1
  H+  H348  1  0.84735843  0.93613004  0.74074925  1
  H+  H349  1  0.08954988  0.42223530  0.43892046  1
  H+  H350  1  0.38237298  0.61377575  0.32665254  1
  H+  H351  1  0.08050330  0.92364637  0.72938778  1
  H+  H352  1  0.85941712  0.24807991  0.91037694  1
  H+  H353  1  0.33309281  0.90815731  0.43947927  1
  H+  H354  1  0.27681170  0.64204756  0.84267381  1
  H+  H355  1  0.77634789  0.49021292  0.38757036  1
  H+  H356  1  0.09684278  0.16966284  0.40245776  1
  H+  H357  1  0.41546765  0.08547637  0.60148219  1
  H+  H358  1  0.59589872  0.35944332  0.82040356  1
  H+  H359  1  0.65680128  0.31547599  0.90190438  1
  H+  H360  1  0.42134229  0.58992565  0.60456636  1
  H+  H361  1  0.89269149  0.53082853  0.17696863  1
  H+  H362  1  0.85173365  0.66989820  0.10893145  1
  H+  H363  1  0.57681002  0.16541448  0.73146693  1
  H+  H364  1  0.17599152  0.34388056  0.90303999  1
  H+  H365  1  0.61298401  0.47294420  0.15092675  1
  H+  H366  1  0.17409387  0.16839369  0.28539892  1
  H+  H367  1  0.33122035  0.16644626  0.06825567  1
  H+  H368  1  0.87054958  0.89608736  0.67473883  1
  H+  H369  1  0.53657539  0.41781611  0.73786994  1
  H+  H370  1  0.77930137  0.96673316  0.11347063  1
  H+  H371  1  0.17473993  0.58500299  0.93346391  1
  H+  H372  1  0.58374019  0.42465487  0.44946538  1
  H+  H373  1  0.11073352  0.23019512  0.49661517  1
  H+  H374  1  0.10583317  0.97815486  0.51762237  1
  H+  H375  1  0.90003230  0.63782587  0.01061144  1
  H+  H376  1  0.32265355  0.65996568  0.09512709  1
  H+  H377  1  0.86963753  0.47889153  0.50483022  1
  H+  H378  1  0.93000952  0.59380947  0.57411694  1
  H+  H379  1  0.08081661  0.16059265  0.09517076  1
  H+  H380  1  0.34652780  0.43366417  0.77507718  1
  H+  H381  1  0.40085971  0.09167366  0.17154991  1
  H+  H382  1  0.40271137  0.30556536  0.59593892  1
  H+  H383  1  0.85707914  0.39305047  0.16561126  1
  O2-  O384  1  0.08144251  0.15329385  0.14029897  1
  O2-  O385  1  0.08065798  0.17042652  0.47982537  1
  O2-  O386  1  0.10171638  0.18064635  0.82065803  1
  O2-  O387  1  0.08398128  0.40467810  0.14969661  1
  O2-  O388  1  0.09051448  0.42285050  0.48474693  1
  O2-  O389  1  0.09902123  0.42921625  0.80751724  1
  O2-  O390  1  0.08649805  0.68416022  0.13651971  1
  O2-  O391  1  0.08973339  0.66292714  0.47840237  1
  O2-  O392  1  0.09182591  0.66188718  0.81065930  1
  O2-  O393  1  0.10080806  0.98363573  0.19954119  1
  O2-  O394  1  0.07418105  0.91510853  0.52930423  1
  O2-  O395  1  0.08795085  0.92332213  0.80882668  1
  O2-  O396  1  0.32599549  0.16140083  0.14392149  1
  O2-  O397  1  0.32958635  0.16579600  0.47871639  1
  O2-  O398  1  0.33058191  0.17129584  0.81058272  1
  O2-  O399  1  0.33686345  0.41739923  0.14852940  1
  O2-  O400  1  0.33700338  0.42083713  0.47854782  1
  O2-  O401  1  0.34354901  0.43144549  0.82086911  1
  O2-  O402  1  0.31609660  0.66127042  0.14151479  1
  O2-  O403  1  0.33490989  0.66686779  0.48714127  1
  O2-  O404  1  0.34265458  0.68167524  0.83794110  1
  O2-  O405  1  0.29949010  0.83838176  0.14516733  1
  O2-  O406  1  0.33246930  0.90917213  0.48481354  1
  O2-  O407  1  0.32873070  0.91245900  0.81773479  1
  O2-  O408  1  0.61163477  0.18999103  0.13877341  1
  O2-  O409  1  0.57304491  0.16561311  0.48084579  1
  O2-  O410  1  0.56332841  0.16054585  0.81090307  1
  O2-  O411  1  0.58551008  0.41212681  0.13887379  1
  O2-  O412  1  0.58278332  0.41963826  0.49478892  1
  O2-  O413  1  0.56490777  0.38943640  0.80712732  1
  O2-  O414  1  0.58289488  0.68467060  0.16219280  1
  O2-  O415  1  0.57428052  0.67525155  0.48007322  1
  O2-  O416  1  0.57252622  0.67798627  0.81660215  1
  O2-  O417  1  0.54032408  0.86578331  0.13102637  1
  O2-  O418  1  0.57261069  0.91664264  0.48063538  1
  O2-  O419  1  0.60538923  0.93364657  0.82294311  1
  O2-  O420  1  0.83724136  0.15983787  0.15379021  1
  O2-  O421  1  0.82459648  0.16588484  0.47708269  1
  O2-  O422  1  0.84923880  0.16568527  0.80560865  1
  O2-  O423  1  0.83189993  0.42747002  0.15074354  1
  O2-  O424  1  0.83690522  0.41951028  0.48764934  1
  O2-  O425  1  0.83777610  0.39873368  0.85925740  1
  O2-  O426  1  0.83873616  0.67093140  0.15268603  1
  O2-  O427  1  0.84531704  0.66620419  0.46930207  1
  O2-  O428  1  0.82757236  0.62904439  0.80737434  1
  O2-  O429  1  0.80925466  0.94079366  0.13354281  1
  O2-  O430  1  0.82354195  0.91948878  0.48525536  1
  O2-  O431  1  0.84041032  0.93637243  0.80803991  1
  O2-  O432  1  0.13123823  0.03458500  0.14347576  1
  O2-  O433  1  0.16164713  0.08420277  0.51462431  1
  O2-  O434  1  0.17193491  0.08504343  0.85681729  1
  O2-  O435  1  0.16782591  0.31672321  0.18230633  1
  O2-  O436  1  0.16914121  0.33427530  0.52277327  1
  O2-  O437  1  0.17617202  0.34418102  0.85738687  1
  O2-  O438  1  0.16053326  0.56841889  0.19854370  1
  O2-  O439  1  0.18278868  0.58712962  0.52132812  1
  O2-  O440  1  0.18026282  0.58911121  0.85301760  1
  O2-  O441  1  0.12448006  0.77692192  0.14583605  1
  O2-  O442  1  0.17242942  0.82834827  0.52259864  1
  O2-  O443  1  0.15840116  0.82856360  0.84547400  1
  O2-  O444  1  0.43681534  0.06549652  0.17547114  1
  O2-  O445  1  0.40760713  0.07899941  0.52331901  1
  O2-  O446  1  0.39779915  0.07679673  0.85274625  1
  O2-  O447  1  0.42351727  0.33546069  0.18324697  1
  O2-  O448  1  0.40800727  0.32779669  0.52133585  1
  O2-  O449  1  0.41107171  0.33167180  0.85844008  1
  O2-  O450  1  0.40542118  0.58572841  0.18714188  1
  O2-  O451  1  0.41327358  0.58839025  0.51928514  1
  O2-  O452  1  0.42267721  0.60480778  0.85870474  1
  O2-  O453  1  0.34873051  0.81095706  0.17223593  1
  O2-  O454  1  0.40993472  0.82230808  0.52108776  1
  O2-  O455  1  0.37825219  0.82894083  0.89065534  1
  O2-  O456  1  0.66978324  0.10380654  0.20151857  1
  O2-  O457  1  0.65624291  0.08302897  0.52302349  1
  O2-  O458  1  0.69367630  0.08374341  0.87556240  1
  O2-  O459  1  0.67259144  0.34911046  0.17622843  1
  O2-  O460  1  0.66520201  0.33010515  0.52790317  1
  O2-  O461  1  0.65881676  0.31713622  0.85621841  1
  O2-  O462  1  0.66290208  0.59152742  0.18129194  1
  O2-  O463  1  0.65887115  0.59529494  0.53280388  1
  O2-  O464  1  0.66513437  0.55359499  0.83448344  1
  O2-  O465  1  0.67339520  0.83741655  0.20267231  1
  O2-  O466  1  0.65214444  0.83361507  0.52551096  1
  O2-  O467  1  0.65976825  0.82762878  0.85584402  1
  O2-  O468  1  0.92578287  0.07835066  0.19012525  1
  O2-  O469  1  0.91053187  0.08717067  0.51663843  1
  O2-  O470  1  0.93252189  0.09331621  0.85123937  1
  O2-  O471  1  0.91953536  0.33081230  0.18956045  1
  O2-  O472  1  0.92011149  0.33199616  0.52100949  1
  O2-  O473  1  0.92191433  0.32961822  0.79573792  1
  O2-  O474  1  0.92629677  0.59162243  0.19235138  1
  O2-  O475  1  0.92795050  0.58444759  0.52872346  1
  O2-  O476  1  0.93153286  0.57113310  0.85416132  1
  O2-  O477  1  0.93224713  0.84347802  0.18560058  1
  O2-  O478  1  0.90199139  0.83091283  0.52507189  1
  O2-  O479  1  0.92628081  0.86307212  0.86720718  1
  O2-  O480  1  0.22213506  0.17955765  0.25883558  1
  O2-  O481  1  0.16333215  0.08554430  0.63415279  1
  O2-  O482  1  0.16766957  0.08324777  0.98006355  1
  O2-  O483  1  0.13121390  0.31040397  0.30344118  1
  O2-  O484  1  0.18316001  0.33703346  0.64740425  1
  O2-  O485  1  0.17468690  0.33615852  0.98065541  1
  O2-  O486  1  0.16979574  0.57750887  0.31506200  1
  O2-  O487  1  0.16890192  0.58944331  0.63822511  1
  O2-  O488  1  0.17594111  0.58420233  0.97867227  1
  O2-  O489  1  0.16629998  0.82508506  0.32185878  1
  O2-  O490  1  0.17493295  0.83792675  0.69658513  1
  O2-  O491  1  0.17082402  0.82574161  0.96739545  1
  O2-  O492  1  0.40173217  0.09870511  0.30719231  1
  O2-  O493  1  0.42010841  0.08734673  0.64700103  1
  O2-  O494  1  0.40529844  0.07290936  0.97891647  1
  O2-  O495  1  0.45230848  0.32799788  0.29779246  1
  O2-  O496  1  0.40202498  0.29713812  0.64103118  1
  O2-  O497  1  0.41567433  0.33007773  0.98075595  1
  O2-  O498  1  0.41632250  0.58769599  0.31007232  1
  O2-  O499  1  0.41888741  0.59035557  0.64940403  1
  O2-  O500  1  0.42081336  0.58180636  0.98121163  1
  O2-  O501  1  0.38902327  0.82410359  0.29598529  1
  O2-  O502  1  0.41534046  0.83484274  0.65002833  1
  O2-  O503  1  0.47016066  0.89084000  0.89541233  1
  O2-  O504  1  0.65648383  0.10388946  0.31533514  1
  O2-  O505  1  0.65592721  0.08086392  0.64736604  1
  O2-  O506  1  0.60362438  0.08106272  0.98128115  1
  O2-  O507  1  0.64969460  0.33840785  0.32184876  1
  O2-  O508  1  0.68416296  0.34341292  0.65625099  1
  O2-  O509  1  0.66757065  0.31163478  0.97947095  1
  O2-  O510  1  0.69778040  0.54979299  0.29592918  1
  O2-  O511  1  0.65627668  0.58537167  0.65200532  1
  O2-  O512  1  0.62372860  0.56810976  0.95924063  1
  O2-  O513  1  0.66227820  0.84614105  0.31297568  1
  O2-  O514  1  0.65007095  0.83229329  0.64315388  1
  O2-  O515  1  0.66277296  0.83283791  0.97661242  1
  O2-  O516  1  0.93319581  0.06465753  0.31530388  1
  O2-  O517  1  0.90942373  0.08977308  0.64395568  1
  O2-  O518  1  0.91472106  0.07015340  0.97362141  1
  O2-  O519  1  0.96768299  0.29204967  0.29516676  1
  O2-  O520  1  0.92438935  0.32347602  0.64653260  1
  O2-  O521  1  0.95914287  0.41895920  0.97646987  1
  O2-  O522  1  0.93107990  0.59665902  0.31414833  1
  O2-  O523  1  0.92983323  0.60305424  0.65023704  1
  O2-  O524  1  0.93738828  0.58500933  0.97752180  1
  O2-  O525  1  0.91839457  0.83584622  0.30513639  1
  O2-  O526  1  0.90173607  0.83614786  0.64937087  1
  O2-  O527  1  0.94069779  0.83612633  0.98709472  1
  O2-  O528  1  0.08322431  0.16647493  0.01765495  1
  O2-  O529  1  0.09952237  0.16795622  0.35715252  1
  O2-  O530  1  0.08679015  0.16871373  0.70165194  1
  O2-  O531  1  0.10226940  0.42487776  0.02662565  1
  O2-  O532  1  0.09235356  0.42256927  0.36317179  1
  O2-  O533  1  0.09762220  0.42358331  0.68344597  1
  O2-  O534  1  0.09574107  0.66808151  0.01679824  1
  O2-  O535  1  0.09100415  0.66345073  0.35351037  1
  O2-  O536  1  0.08981809  0.67206520  0.69011565  1
  O2-  O537  1  0.09332538  0.92489818  0.05146087  1
  O2-  O538  1  0.05041314  0.85472100  0.38283323  1
  O2-  O539  1  0.07811475  0.92342492  0.68390856  1
  O2-  O540  1  0.33475588  0.17026908  0.02248470  1
  O2-  O541  1  0.32777000  0.17509860  0.35738408  1
  O2-  O542  1  0.34009180  0.15939634  0.69323543  1
  O2-  O543  1  0.34053678  0.41818619  0.02433553  1
  O2-  O544  1  0.33691530  0.41277928  0.34847363  1
  O2-  O545  1  0.35806315  0.43510224  0.69978095  1
  O2-  O546  1  0.33594423  0.66538052  0.02581145  1
  O2-  O547  1  0.32960376  0.66287714  0.35061423  1
  O2-  O548  1  0.32218915  0.66477107  0.68317951  1
  O2-  O549  1  0.32582592  0.90832190  -0.00255175  1
  O2-  O550  1  0.35506259  0.92175863  0.36032631  1
  O2-  O551  1  0.34854994  0.92603851  0.69665214  1
  O2-  O552  1  0.66694430  0.15904535  0.01427405  1
  O2-  O553  1  0.56272570  0.17268034  0.35680337  1
  O2-  O554  1  0.58240324  0.17098617  0.68657025  1
  O2-  O555  1  0.58057662  0.39336605  0.02127191  1
  O2-  O556  1  0.58617200  0.42852512  0.37146792  1
  O2-  O557  1  0.52256593  0.43771339  0.69958660  1
  O2-  O558  1  0.57680138  0.68540414  0.03875167  1
  O2-  O559  1  0.58036774  0.69183001  0.35318061  1
  O2-  O560  1  0.57634966  0.67420382  0.69703599  1
  O2-  O561  1  0.55043987  0.89834999  -0.00030320  1
  O2-  O562  1  0.60409231  0.93721101  0.35595246  1
  O2-  O563  1  0.57560393  0.91908099  0.69714040  1
  O2-  O564  1  0.78387997  0.09176545  0.03297674  1
  O2-  O565  1  0.85364861  0.15233072  0.35039724  1
  O2-  O566  1  0.82356134  0.16005342  0.68432041  1
  O2-  O567  1  0.82469110  0.42130830  0.02985096  1
  O2-  O568  1  0.80627540  0.46077138  0.37364321  1
  O2-  O569  1  0.85143171  0.42710755  0.66006344  1
  O2-  O570  1  0.87142733  0.66954479  0.02897599  1
  O2-  O571  1  0.84853915  0.67522486  0.34761513  1
  O2-  O572  1  0.83001654  0.66962248  0.68643626  1
  O2-  O573  1  0.83895585  0.90403233  0.01296553  1
  O2-  O574  1  0.80149565  0.86857404  0.36589778  1
  O2-  O575  1  0.84984663  0.93578499  0.69293638  1
