# generated using pymatgen
data_H2O
_symmetry_space_group_name_H-M   'P 1'
_cell_length_a   17.97435209
_cell_length_b   17.97799011
_cell_length_c   21.99210503
_cell_angle_alpha   89.95718846
_cell_angle_beta   90.02304539
_cell_angle_gamma   119.99136431
_symmetry_Int_Tables_number   1
_chemical_formula_structural   H2O
_chemical_formula_sum   'H384 O192'
_cell_volume   6155.02013972
_cell_formula_units_Z   192
loop_
 _symmetry_equiv_pos_site_id
 _symmetry_equiv_pos_as_xyz
  1  'x, y, z'
loop_
 _atom_type_symbol
 _atom_type_oxidation_number
  H+  1.0
  O2-  -2.0
loop_
 _atom_site_type_symbol
 _atom_site_label
 _atom_site_symmetry_multiplicity
 _atom_site_fract_x
 _atom_site_fract_y
 _atom_site_fract_z
 _atom_site_occupancy
  H+  H0  1  0.26565639  0.14895517  0.82576816  1
  H+  H1  1  0.61153852  0.47477774  0.01762444  1
  H+  H2  1  0.39579813  0.77406142  0.84419550  1
  H+  H3  1  0.09555484  0.45687603  0.81552750  1
  H+  H4  1  0.11887182  0.88869824  0.82952541  1
  H+  H5  1  0.51147426  0.64244429  0.82434907  1
  H+  H6  1  0.24230918  0.36549143  0.18183229  1
  H+  H7  1  0.09333138  0.87420195  0.47828248  1
  H+  H8  1  0.60245831  0.50694095  0.51884853  1
  H+  H9  1  0.37641219  0.28693600  0.84928832  1
  H+  H10  1  0.48206242  0.62803259  0.50285742  1
  H+  H11  1  0.51987844  0.39530975  0.33971851  1
  H+  H12  1  0.02159661  0.65330527  0.17749427  1
  H+  H13  1  0.08807976  0.91686540  0.77030994  1
  H+  H14  1  0.51836896  0.38464436  0.48950689  1
  H+  H15  1  0.47402335  0.61704949  0.65810400  1
  H+  H16  1  0.10812143  0.73605617  1.01637730  1
  H+  H17  1  0.59190959  0.92283004  0.06163723  1
  H+  H18  1  0.62101682  0.61490917  0.84822881  1
  H+  H19  1  0.22622410  0.85230527  0.83995151  1
  H+  H20  1  0.86940143  0.47920809  0.16275944  1
  H+  H21  1  0.78239506  0.14460679  -0.00001009  1
  H+  H22  1  0.13992537  1.01609506  0.50595682  1
  H+  H23  1  0.88107119  0.26946364  0.16947664  1
  H+  H24  1  0.72417937  0.86460342  0.51453765  1
  H+  H25  1  0.38608433  0.37346809  0.32648768  1
  H+  H26  1  0.61910797  0.39019596  1.01539902  1
  H+  H27  1  0.51211684  0.13698266  0.16516122  1
  H+  H28  1  -0.01813550  0.12127827  0.16604628  1
  H+  H29  1  0.66453088  0.09428202  0.23823016  1
  H+  H30  1  0.35413916  0.38818274  0.66856099  1
  H+  H31  1  0.11061402  0.37262152  0.32645555  1
  H+  H32  1  0.26360635  0.84121869  0.52305912  1
  H+  H33  1  0.35211482  0.47542414  0.66879548  1
  H+  H34  1  0.14635510  0.51291340  0.32516565  1
  H+  H35  1  0.17924861  0.59585296  0.22954611  1
  H+  H36  1  0.35679196  0.91061189  0.41163990  1
  H+  H37  1  0.39615136  0.78351963  0.00062139  1
  H+  H38  1  0.86678476  0.73005961  0.15517388  1
  H+  H39  1  0.52322488  0.14879599  0.34668179  1
  H+  H40  1  0.63228783  0.37414314  0.32929955  1
  H+  H41  1  0.63695634  0.73723559  0.15380380  1
  H+  H42  1  0.59890547  0.18435732  0.73442637  1
  H+  H43  1  0.36674876  0.64604445  0.49368611  1
  H+  H44  1  0.89777072  0.13262005  0.65752362  1
  H+  H45  1  0.99029629  0.09991688  0.50659955  1
  H+  H46  1  0.59762071  0.87436687  0.50215359  1
  H+  H47  1  0.31889713  0.66944584  0.75814588  1
  H+  H48  1  0.87923177  0.23037444  0.34958704  1
  H+  H49  1  0.21857728  0.33816694  0.51743957  1
  H+  H50  1  0.36552629  0.87497091  0.83304652  1
  H+  H51  1  0.87979134  0.51985279  0.33154090  1
  H+  H52  1  -0.02267247  0.60473956  0.84917607  1
  H+  H53  1  0.86569007  0.88330040  0.85231139  1
  H+  H54  1  0.12038775  0.12439977  0.49443458  1
  H+  H55  1  0.22841388  0.61162303  0.50453071  1
  H+  H56  1  0.13424786  0.34855892  0.51320208  1
  H+  H57  1  0.33719518  0.09846450  -0.04597088  1
  H+  H58  1  0.77935296  0.35240166  0.76119285  1
  H+  H59  1  0.64796648  0.83362651  0.92162035  1
  H+  H60  1  0.75780199  0.87823033  0.14132550  1
  H+  H61  1  0.07705819  0.96079490  -0.00432468  1
  H+  H62  1  0.49064983  0.11109217  -0.02514902  1
  H+  H63  1  0.37911126  0.40006439  0.01878772  1
  H+  H64  1  0.60321513  0.14160702  0.17052664  1
  H+  H65  1  -0.01733895  0.86494252  0.15385336  1
  H+  H66  1  0.76650268  0.38601153  0.33595571  1
  H+  H67  1  0.32979141  0.00861734  0.94519394  1
  H+  H68  1  0.37984313  0.27627464  0.65456347  1
  H+  H69  1  0.68476145  0.12556004  0.50508267  1
  H+  H70  1  0.88007935  0.89464251  0.13125373  1
  H+  H71  1  0.61601434  0.64317192  0.68063415  1
  H+  H72  1  0.46717432  0.37331354  0.85166771  1
  H+  H73  1  0.05065619  0.17835586  0.00077650  1
  H+  H74  1  0.22782902  0.61595909  0.65866709  1
  H+  H75  1  0.48635607  0.87282452  0.99529873  1
  H+  H76  1  0.86332256  0.96867184  0.49393651  1
  H+  H77  1  0.89137481  0.10834764  0.32347292  1
  H+  H78  1  0.62334306  0.87643389  0.82346373  1
  H+  H79  1  0.43567479  0.83605691  0.23883080  1
  H+  H80  1  0.36066724  0.88493833  0.67518915  1
  H+  H81  1  0.85192026  0.85594754  0.68278145  1
  H+  H82  1  0.14951483  0.54809138  -0.01085599  1
  H+  H83  1  0.89113162  0.87004045  0.31577471  1
  H+  H84  1  0.37529933  0.61495372  0.85038259  1
  H+  H85  1  0.61617184  0.89119223  -0.00082176  1
  H+  H86  1  0.37961849  0.72845975  0.16914146  1
  H+  H87  1  0.86108572  0.13633108  0.81779456  1
  H+  H88  1  0.85289401  0.70893885  0.01055446  1
  H+  H89  1  0.10293295  0.61774747  0.67705626  1
  H+  H90  1  0.63852648  0.27967397  0.84670480  1
  H+  H91  1  0.36600497  0.73361879  0.66951004  1
  H+  H92  1  0.96883108  0.35746735  0.31979087  1
  H+  H93  1  0.11315861  0.21029153  0.49497871  1
  H+  H94  1  0.41148077  0.62291285  0.33113874  1
  H+  H95  1  0.39426876  0.62428880  0.00237331  1
  H+  H96  1  0.86956052  0.23583295  0.00332219  1
  H+  H97  1  0.59761333  0.38841005  0.83721309  1
  H+  H98  1  0.87451990  0.64539695  0.83266087  1
  H+  H99  1  0.13339085  0.10375589  0.65750695  1
  H+  H100  1  0.64834756  0.13640891  0.33472639  1
  H+  H101  1  0.47276485  0.11624889  0.69285876  1
  H+  H102  1  0.35782005  0.14090988  0.68409569  1
  H+  H103  1  -0.02783424  0.10887769  0.82871882  1
  H+  H104  1  0.23488267  0.12911533  0.16726253  1
  H+  H105  1  0.22540492  0.86463069  0.98820778  1
  H+  H106  1  0.11159288  0.34108639  0.81850457  1
  H+  H107  1  0.64623803  0.02886697  0.98927954  1
  H+  H108  1  0.39755784  0.53627876  1.00280966  1
  H+  H109  1  0.91605415  0.07930503  0.26044401  1
  H+  H110  1  0.10982832  0.38372098  0.66753085  1
  H+  H111  1  0.39433913  1.02828555  0.33869888  1
  H+  H112  1  0.23816456  0.86376016  0.20679563  1
  H+  H113  1  0.12004860  0.47117988  0.18787108  1
  H+  H114  1  0.47637866  0.86471913  0.50180386  1
  H+  H115  1  0.63783015  0.77434648  0.51501275  1
  H+  H116  1  0.57639164  0.90993877  0.44030412  1
  H+  H117  1  0.53247462  0.90103547  0.81927699  1
  H+  H118  1  0.11788585  0.72042170  0.50071926  1
  H+  H119  1  0.63245623  0.03113813  0.17988147  1
  H+  H120  1  0.13868029  0.13339128  0.16290799  1
  H+  H121  1  0.12853981  0.23660536  0.15953597  1
  H+  H122  1  0.85390478  0.38097522  0.33608219  1
  H+  H123  1  0.12358589  0.90096723  0.34334729  1
  H+  H124  1  0.36729534  0.97757102  0.17662772  1
  H+  H125  1  0.11195839  0.96607669  0.67268319  1
  H+  H126  1  0.27474932  0.14042322  0.33532291  1
  H+  H127  1  0.85641245  0.61982648  0.50970161  1
  H+  H128  1  0.11359643  0.13057228  0.81747910  1
  H+  H129  1  0.60008825  0.48025656  0.68977866  1
  H+  H130  1  0.84484296  0.44975316  0.75442516  1
  H+  H131  1  0.13948017  0.02680649  0.83773476  1
  H+  H132  1  0.13618792  0.60489217  0.50628432  1
  H+  H133  1  0.36011681  0.22851753  0.16810577  1
  H+  H134  1  0.53538621  0.89986564  0.34654349  1
  H+  H135  1  0.08176933  0.69301166  0.12098641  1
  H+  H136  1  0.16234909  0.82722231  0.93196716  1
  H+  H137  1  0.90281502  0.37500591  0.99021437  1
  H+  H138  1  0.40949738  0.94446988  0.51298673  1
  H+  H139  1  0.22402869  0.10823267  0.65886703  1
  H+  H140  1  0.63440777  0.02161944  0.83106713  1
  H+  H141  1  0.38276570  0.64089921  0.16636181  1
  H+  H142  1  0.10734475  -0.02149637  0.14756396  1
  H+  H143  1  0.06650941  0.40473189  0.75284165  1
  H+  H144  1  0.29289361  0.63636953  0.33917952  1
  H+  H145  1  0.62463655  0.14409577  0.82832962  1
  H+  H146  1  0.47853095  0.34311808  0.18453411  1
  H+  H147  1  0.85771545  0.22367447  0.82052684  1
  H+  H148  1  0.63132858  0.02781337  0.65990351  1
  H+  H149  1  0.04735778  0.41134055  -0.03618166  1
  H+  H150  1  0.97238751  0.35583573  0.18382977  1
  H+  H151  1  0.88801274  0.36390202  0.50063218  1
  H+  H152  1  0.91075005  0.11244912  0.50228034  1
  H+  H153  1  0.37956905  0.27968736  0.50016741  1
  H+  H154  1  0.22386802  0.36211513  0.66537089  1
  H+  H155  1  0.78297045  0.39384161  0.01365516  1
  H+  H156  1  0.28553620  0.89148711  0.36064466  1
  H+  H157  1  0.37754835  0.39083744  0.17011258  1
  H+  H158  1  0.85906853  0.23817112  0.66753653  1
  H+  H159  1  0.72432399  0.61272621  0.66961004  1
  H+  H160  1  0.37974676  0.36853515  0.49488705  1
  H+  H161  1  0.97780920  0.61837551  1.00795005  1
  H+  H162  1  -0.02610392  0.59919789  0.51894973  1
  H+  H163  1  0.86610417  0.70738201  0.67254383  1
  H+  H164  1  0.85284435  0.61159862  0.68222034  1
  H+  H165  1  0.96520106  0.85426344  0.50692587  1
  H+  H166  1  0.67239668  0.08633398  0.92887951  1
  H+  H167  1  0.87538457  0.60395266  0.17718190  1
  H+  H168  1  0.53795109  0.88663603  0.16153128  1
  H+  H169  1  0.40390806  0.86438201  0.18108643  1
  H+  H170  1  0.85400004  0.70740946  0.50692882  1
  H+  H171  1  0.90818707  0.14095383  0.98856846  1
  H+  H172  1  0.20838949  0.88478853  0.52564334  1
  H+  H173  1  0.86191173  0.97018308  0.33456008  1
  H+  H174  1  0.74402850  0.37878498  0.64263190  1
  H+  H175  1  0.87527058  0.60613181  0.33817063  1
  H+  H176  1  0.61621706  0.52428061  0.84956622  1
  H+  H177  1  0.36019051  0.16315453  0.82173096  1
  H+  H178  1  0.16932867  0.07346447  0.56724440  1
  H+  H179  1  0.10228491  0.65523541  0.33336617  1
  H+  H180  1  0.97352719  0.84977530  0.66496308  1
  H+  H181  1  0.60225296  0.63452113  0.50279666  1
  H+  H182  1  0.71838325  0.37317248  0.84227010  1
  H+  H183  1  0.61354372  0.14481903  0.67372187  1
  H+  H184  1  0.85106076  0.61945307  1.01720003  1
  H+  H185  1  0.38647951  0.11367257  0.33401458  1
  H+  H186  1  0.59789703  0.73550324  0.82112833  1
  H+  H187  1  0.88401869  0.52227999  0.85260113  1
  H+  H188  1  0.15979778  0.58740508  0.36837716  1
  H+  H189  1  0.14352474  0.26239602  1.00383790  1
  H+  H190  1  0.14290519  1.02840607  0.31519974  1
  H+  H191  1  0.53132059  0.64746315  0.01105637  1
  H+  H192  1  0.41424036  0.53423910  0.33172982  1
  H+  H193  1  0.14078819  0.79168863  0.35270758  1
  H+  H194  1  0.11687666  0.22851326  0.67580524  1
  H+  H195  1  0.38516152  0.28174788  0.33116818  1
  H+  H196  1  0.51211532  0.39291428  0.68232381  1
  H+  H197  1  0.11690241  0.37969498  0.18698370  1
  H+  H198  1  0.76877811  0.13754459  0.15761565  1
  H+  H199  1  0.49799994  0.62067851  0.17560323  1
  H+  H200  1  0.72422253  0.11103144  0.83276314  1
  H+  H201  1  0.87396282  0.48353458  0.01506036  1
  H+  H202  1  0.24104912  0.60714851  0.17546843  1
  H+  H203  1  0.63593863  0.52625743  0.32373945  1
  H+  H204  1  -0.01946625  0.86766473  0.84446396  1
  H+  H205  1  0.65647941  0.15961511  0.01771537  1
  H+  H206  1  0.87570885  0.85063358  0.51003958  1
  H+  H207  1  0.36668083  0.96370314  0.82356125  1
  H+  H208  1  0.85921194  0.46772539  0.48966470  1
  H+  H209  1  0.22428160  0.11839847  0.99038785  1
  H+  H210  1  0.93817141  0.21210585  0.39130026  1
  H+  H211  1  0.18070866  0.84586797  0.29151385  1
  H+  H212  1  0.60791019  0.25233631  0.49460818  1
  H+  H213  1  0.88008868  0.27325141  0.50943167  1
  H+  H214  1  0.08250257  0.40568157  0.26937972  1
  H+  H215  1  0.96350006  0.35677048  0.82853621  1
  H+  H216  1  0.66631858  0.28949464  0.00619846  1
  H+  H217  1  0.62288876  0.89975620  0.35133203  1
  H+  H218  1  0.60419314  0.38899206  0.12452166  1
  H+  H219  1  0.40605333  0.08188164  0.78462017  1
  H+  H220  1  0.39401104  0.53814211  0.49733754  1
  H+  H221  1  0.65242735  0.63043490  0.17215741  1
  H+  H222  1  0.62902228  0.64372252  0.34371117  1
  H+  H223  1  0.30905294  0.43945150  0.32176875  1
  H+  H224  1  0.72851654  0.84805476  0.67026125  1
  H+  H225  1  0.13683388  0.11303854  0.31932354  1
  H+  H226  1  0.63906238  0.78360296  0.98377866  1
  H+  H227  1  0.61120527  0.39091963  0.49284093  1
  H+  H228  1  0.62703621  0.75297767  0.66978886  1
  H+  H229  1  0.28524484  0.65326880  1.02041902  1
  H+  H230  1  1.02208269  0.14113792  0.67201704  1
  H+  H231  1  0.48049426  0.87213140  0.66237396  1
  H+  H232  1  0.88992932  0.11479284  0.16585108  1
  H+  H233  1  0.84855793  0.71283232  0.37416324  1
  H+  H234  1  0.27629832  0.70609178  0.80126095  1
  H+  H235  1  0.82818546  0.41044857  0.42857912  1
  H+  H236  1  0.77404508  0.88095706  0.33573601  1
  H+  H237  1  0.10383671  0.61717008  0.83541708  1
  H+  H238  1  0.37351918  0.89562785  -0.01267398  1
  H+  H239  1  0.79710414  0.11754023  0.50703894  1
  H+  H240  1  0.65678698  0.28726100  0.65420272  1
  H+  H241  1  0.72783663  0.60921020  0.33294256  1
  H+  H242  1  0.38500760  0.24064522  0.01367221  1
  H+  H243  1  -0.03893601  0.03469497  0.98548714  1
  H+  H244  1  0.11562204  0.47689190  0.66646569  1
  H+  H245  1  0.57197356  0.18576046  0.43264535  1
  H+  H246  1  0.50685604  0.15546575  0.98759025  1
  H+  H247  1  0.14129768  0.41839737  -0.03437930  1
  H+  H248  1  0.01629541  0.11893247  0.33864672  1
  H+  H249  1  0.34135581  0.38519289  0.86668517  1
  H+  H250  1  0.72084394  0.11716958  0.65426753  1
  H+  H251  1  0.13437112  0.25135800  0.33385323  1
  H+  H252  1  0.60956391  0.89640555  0.67602896  1
  H+  H253  1  0.67101007  0.33836207  0.56190228  1
  H+  H254  1  0.14671213  0.13587276  -0.01189844  1
  H+  H255  1  0.10931803  0.22491967  0.81423548  1
  H+  H256  1  0.87299558  0.38614709  0.15969080  1
  H+  H257  1  0.89379436  0.77590850  0.83858098  1
  H+  H258  1  0.90484796  0.54184305  0.57062831  1
  H+  H259  1  0.40129958  0.77857758  0.33066023  1
  H+  H260  1  -0.02322240  0.37672706  0.65454758  1
  H+  H261  1  0.42021691  0.84228519  0.60215555  1
  H+  H262  1  0.39794866  0.86608380  0.33187093  1
  H+  H263  1  0.36473386  0.64311054  0.66932949  1
  H+  H264  1  0.63213712  0.89875600  0.15380451  1
  H+  H265  1  0.70674269  0.86099214  0.83225999  1
  H+  H266  1  0.88530363  0.02424709  0.84754737  1
  H+  H267  1  0.37407192  0.10787700  0.18309270  1
  H+  H268  1  0.91719684  0.34623235  0.59555336  1
  H+  H269  1  0.53951074  0.64304767  0.34551246  1
  H+  H270  1  1.03408945  0.90020319  0.32965904  1
  H+  H271  1  0.00933042  0.63994294  0.34500124  1
  H+  H272  1  0.72445563  0.36371657  0.49813875  1
  H+  H273  1  0.13524705  0.76486474  0.84023389  1
  H+  H274  1  0.11041543  0.89119762  -0.00392553  1
  H+  H275  1  0.25348023  0.39512796  1.00218520  1
  H+  H276  1  0.80715144  0.90284773  0.89431390  1
  H+  H277  1  0.48460306  0.36789097  0.00495518  1
  H+  H278  1  0.82881945  0.16767942  0.09753313  1
  H+  H279  1  0.90366873  0.79054509  0.29739452  1
  H+  H280  1  0.21092588  0.58322338  0.84453220  1
  H+  H281  1  0.63616091  0.09795774  0.56878806  1
  H+  H282  1  0.11097301  0.65065468  0.02782193  1
  H+  H283  1  0.38105900  0.48226455  0.17203687  1
  H+  H284  1  0.63854000  0.76917100  0.33582766  1
  H+  H285  1  0.88115364  0.98339485  0.13414438  1
  H+  H286  1  0.96339337  0.83315799  0.99606187  1
  H+  H287  1  0.22638156  0.33702608  0.34046059  1
  H+  H288  1  0.42485265  0.83271635  0.90433703  1
  H+  H289  1  0.82683656  0.65903412  0.09948868  1
  H+  H290  1  0.65369195  0.05208512  0.33755040  1
  H+  H291  1  0.92045234  0.58313155  0.94675860  1
  H+  H292  1  0.33831723  0.43585068  0.41258621  1
  H+  H293  1  0.58347467  0.92762746  0.73959305  1
  H+  H294  1  0.41718932  0.17644781  0.03186629  1
  H+  H295  1  0.07624814  0.14479811  0.39977037  1
  H+  H296  1  0.91531020  0.33946923  0.92659846  1
  H+  H297  1  0.14126460  0.78715816  0.20289832  1
  H+  H298  1  0.81778904  0.16212180  0.44163065  1
  H+  H299  1  0.93993326  0.11971313  0.92593687  1
  H+  H300  1  0.89161724  0.43209075  0.64484431  1
  H+  H301  1  0.33533051  0.47056266  0.86149711  1
  H+  H302  1  0.16700452  0.09523940  0.22838252  1
  H+  H303  1  0.81851890  0.64216544  0.42418656  1
  H+  H304  1  0.10208083  0.18666891  0.09435439  1
  H+  H305  1  0.84350184  0.66807604  0.77099885  1
  H+  H306  1  0.53654138  0.14489285  0.82466911  1
  H+  H307  1  0.20213566  0.34769201  0.83911677  1
  H+  H308  1  0.81916667  0.88325917  0.74173325  1
  H+  H309  1  0.91260588  0.82079172  0.60614490  1
  H+  H310  1  0.58995569  0.14910604  0.50146490  1
  H+  H311  1  0.35161058  0.43072827  0.07886821  1
  H+  H312  1  0.09328296  0.70055155  0.68268570  1
  H+  H313  1  0.95622348  0.56527396  0.69127894  1
  H+  H314  1  0.90610933  0.80739979  0.93731492  1
  H+  H315  1  0.14295503  0.51623682  0.89517185  1
  H+  H316  1  0.65351567  0.58059940  0.61545385  1
  H+  H317  1  0.41469276  0.59338471  0.90814097  1
  H+  H318  1  0.65276683  0.57947505  0.94084901  1
  H+  H319  1  0.44304994  0.59383246  0.23739741  1
  H+  H320  1  0.41779049  0.59094173  0.59723064  1
  H+  H321  1  0.66802221  0.82636474  0.60616295  1
  H+  H322  1  0.12231398  0.46570924  0.50207639  1
  H+  H323  1  0.23049878  0.37461777  0.93440192  1
  H+  H324  1  0.65264466  0.33985018  0.26843960  1
  H+  H325  1  0.92180930  0.84652081  0.21123340  1
  H+  H326  1  0.83227815  0.17426555  0.72436647  1
  H+  H327  1  0.87571534  0.35840838  0.82891430  1
  H+  H328  1  0.41103759  0.08355018  0.24212038  1
  H+  H329  1  0.35022256  0.67857130  0.07635407  1
  H+  H330  1  0.08071251  0.91819594  0.08929879  1
  H+  H331  1  0.71632275  0.60519930  -0.00083150  1
  H+  H332  1  0.58116953  0.42667462  0.39872232  1
  H+  H333  1  0.61033192  0.27482294  0.17413105  1
  H+  H334  1  0.56502925  0.41638073  0.77760618  1
  H+  H335  1  0.41992934  0.33934244  0.94647919  1
  H+  H336  1  0.84565991  0.42203605  0.09315822  1
  H+  H337  1  0.32752343  0.90085602  0.73851886  1
  H+  H338  1  0.32169996  0.18232353  0.72880094  1
  H+  H339  1  0.18437027  0.63425081  0.95427902  1
  H+  H340  1  0.16630389  0.81207275  0.61477676  1
  H+  H341  1  0.27413563  0.13153200  0.49559688  1
  H+  H342  1  0.43457828  0.15488176  0.49285803  1
  H+  H343  1  0.61688018  0.64112341  0.00889130  1
  H+  H344  1  0.33546381  0.17184717  0.10604904  1
  H+  H345  1  0.90121970  0.57411752  0.23857199  1
  H+  H346  1  0.41636861  0.32876379  0.24080106  1
  H+  H347  1  0.35907231  0.73155339  0.49126996  1
  H+  H348  1  0.60881151  0.24277913  0.34567576  1
  H+  H349  1  0.15947780  0.32107233  0.60810589  1
  H+  H350  1  0.03263211  0.37928306  0.49959478  1
  H+  H351  1  0.57654653  0.67371863  0.73742785  1
  H+  H352  1  0.38382841  0.02491538  0.69249471  1
  H+  H353  1  0.16506669  0.09240376  0.89479296  1
  H+  H354  1  0.41128215  0.33864849  0.59693680  1
  H+  H355  1  0.62020959  0.18593570  0.07635643  1
  H+  H356  1  0.59786954  0.67195199  0.09816027  1
  H+  H357  1  0.89883377  0.31898979  0.26820076  1
  H+  H358  1  0.92688742  0.94518829  0.01556839  1
  H+  H359  1  0.68275135  0.59846303  0.23533800  1
  H+  H360  1  0.07664482  0.92305183  0.42563617  1
  H+  H361  1  0.07743187  0.66462093  0.44094585  1
  H+  H362  1  0.59624233  0.67531661  0.43846652  1
  H+  H363  1  0.54052369  0.52193301  0.55992641  1
  H+  H364  1  0.27874547  0.43829704  0.46689200  1
  H+  H365  1  0.07594726  0.64586759  0.77463097  1
  H+  H366  1  0.75348159  0.63379641  0.17034605  1
  H+  H367  1  0.63547634  0.82139468  0.27891720  1
  H+  H368  1  0.08327966  0.15995458  0.74717644  1
  H+  H369  1  0.36588868  0.96334131  0.02883240  1
  H+  H370  1  0.09651133  0.41142873  0.07468870  1
  H+  H371  1  0.32111569  0.90444772  0.12659681  1
  H+  H372  1  0.38363361  0.07465173  0.86001163  1
  H+  H373  1  0.18074794  0.32192506  0.24002336  1
  H+  H374  1  0.67746659  0.34309435  0.94388712  1
  H+  H375  1  0.72291500  0.86058880  0.20784289  1
  H+  H376  1  0.82804763  0.90845888  0.43534296  1
  H+  H377  1  0.11014828  0.87568819  0.67735392  1
  H+  H378  1  0.34742222  0.67140223  0.39941407  1
  H+  H379  1  0.92714295  0.09240964  0.60410333  1
  H+  H380  1  0.21892525  0.84552274  0.67491332  1
  H+  H381  1  0.16804631  0.58275123  0.59937994  1
  H+  H382  1  0.14404238  0.43419670  0.08052701  1
  H+  H383  1  0.32873530  0.16516308  0.39767230  1
  O2-  O384  1  0.09834026  0.17752640  0.14018705  1
  O2-  O385  1  0.08602119  0.15047172  0.47823690  1
  O2-  O386  1  0.08129368  0.15847296  0.79875934  1
  O2-  O387  1  0.08211829  0.40738051  0.19602291  1
  O2-  O388  1  0.09455066  0.40409647  0.49046101  1
  O2-  O389  1  0.06211025  0.39791732  0.79856669  1
  O2-  O390  1  0.08109421  0.69455763  0.16588632  1
  O2-  O391  1  0.08140944  0.66103892  0.48596782  1
  O2-  O392  1  0.07840613  0.65143773  0.82009460  1
  O2-  O393  1  0.07879697  0.91842271  0.13494651  1
  O2-  O394  1  0.07356326  0.91507358  0.47143253  1
  O2-  O395  1  0.09168033  0.92232679  0.81558700  1
  O2-  O396  1  0.32467522  0.16781105  0.15097119  1
  O2-  O397  1  0.33422925  0.16700942  0.47806983  1
  O2-  O398  1  0.32544827  0.18844415  0.80946088  1
  O2-  O399  1  0.34683420  0.42158317  0.15712656  1
  O2-  O400  1  0.33192241  0.43678460  0.46185613  1
  O2-  O401  1  0.30040598  0.40765861  0.86823091  1
  O2-  O402  1  0.34977631  0.66879204  0.15211867  1
  O2-  O403  1  0.33245555  0.67104576  0.47615993  1
  O2-  O404  1  0.30523943  0.67238582  0.80269831  1
  O2-  O405  1  0.34317180  0.91443381  0.16797224  1
  O2-  O406  1  0.37372052  0.88766172  0.49414370  1
  O2-  O407  1  0.33128877  0.90072533  0.81575025  1
  O2-  O408  1  0.57363634  0.17182931  0.15348637  1
  O2-  O409  1  0.56624223  0.18792893  0.47997236  1
  O2-  O410  1  0.59864350  0.18025787  0.81485200  1
  O2-  O411  1  0.58738076  0.37246157  0.16749925  1
  O2-  O412  1  0.58000668  0.42046879  0.47769854  1
  O2-  O413  1  0.56494821  0.41649753  0.82390295  1
  O2-  O414  1  0.60350539  0.67454407  0.14457818  1
  O2-  O415  1  0.58831599  0.67648473  0.48357685  1
  O2-  O416  1  0.57024566  0.67320871  0.80680662  1
  O2-  O417  1  0.59621546  0.92459267  0.14381252  1
  O2-  O418  1  0.56259466  0.89771069  0.48473023  1
  O2-  O419  1  0.59094782  0.92959196  0.80240842  1
  O2-  O420  1  0.82953434  0.16621211  0.14317880  1
  O2-  O421  1  0.79765799  0.16399727  0.48380416  1
  O2-  O422  1  0.83016263  0.16546025  0.80170889  1
  O2-  O423  1  0.84595472  0.42034622  0.14258820  1
  O2-  O424  1  0.82762255  0.40730260  0.47420158  1
  O2-  O425  1  0.81686118  0.40312301  0.78534384  1
  O2-  O426  1  0.83060338  0.66592123  0.14678648  1
  O2-  O427  1  0.82357742  0.64653106  0.49359103  1
  O2-  O428  1  0.85238177  0.68085858  0.81494906  1
  O2-  O429  1  0.85214038  0.92626627  0.11449572  1
  O2-  O430  1  0.82687085  0.90789336  0.48050590  1
  O2-  O431  1  0.82932735  0.91252928  0.85271703  1
  O2-  O432  1  0.16963756  0.09968600  0.18133376  1
  O2-  O433  1  0.17250942  0.07611007  0.52139670  1
  O2-  O434  1  0.16489212  0.08923301  0.84890719  1
  O2-  O435  1  0.18078765  0.32917312  0.19504002  1
  O2-  O436  1  0.15776848  0.31002812  0.52846122  1
  O2-  O437  1  0.13916212  0.30765796  0.83263322  1
  O2-  O438  1  0.17987298  0.57536066  0.18858494  1
  O2-  O439  1  0.16892134  0.57739945  0.52146084  1
  O2-  O440  1  0.15053850  0.55277070  0.85838952  1
  O2-  O441  1  0.18053466  0.84265443  0.22415737  1
  O2-  O442  1  0.20450138  0.82934631  0.53258090  1
  O2-  O443  1  0.16525165  0.82551294  0.85426609  1
  O2-  O444  1  0.40663474  0.07966618  0.19654395  1
  O2-  O445  1  0.37298335  0.11665945  0.50147833  1
  O2-  O446  1  0.42288967  0.07643002  0.82692617  1
  O2-  O447  1  0.41785808  0.32438412  0.19467705  1
  O2-  O448  1  0.41032236  0.34086201  0.51280806  1
  O2-  O449  1  0.40784007  0.34300531  0.87067101  1
  O2-  O450  1  0.43823637  0.58975094  0.19201808  1
  O2-  O451  1  0.42108608  0.59555656  0.51767082  1
  O2-  O452  1  0.40688479  0.58626927  0.86259178  1
  O2-  O453  1  0.43489846  0.83375602  0.19321928  1
  O2-  O454  1  0.41053062  0.83645093  0.51913374  1
  O2-  O455  1  0.42252412  0.83363839  0.85868489  1
  O2-  O456  1  0.66088457  0.09229058  0.19262310  1
  O2-  O457  1  0.62783642  0.10369531  0.52409599  1
  O2-  O458  1  0.66488849  0.08300505  0.84948146  1
  O2-  O459  1  0.64094222  0.33677282  0.18856512  1
  O2-  O460  1  0.66452081  0.33829652  0.51514583  1
  O2-  O461  1  0.66284538  0.33979263  0.86287748  1
  O2-  O462  1  0.68630144  0.60271870  0.18925094  1
  O2-  O463  1  0.59946311  0.55193263  0.54468991  1
  O2-  O464  1  0.64530939  0.58257584  0.86788538  1
  O2-  O465  1  0.70154618  0.84928309  0.16618975  1
  O2-  O466  1  0.66569564  0.83362286  0.53326346  1
  O2-  O467  1  0.64500387  0.83398951  0.84096623  1
  O2-  O468  1  0.92212792  0.08642859  0.18092824  1
  O2-  O469  1  0.92832795  0.07429164  0.52066891  1
  O2-  O470  1  0.91610579  0.08851254  0.84883807  1
  O2-  O471  1  0.90851747  0.32874489  0.18793693  1
  O2-  O472  1  0.91800134  0.33472402  0.51888105  1
  O2-  O473  1  0.90486794  0.32994907  0.84774660  1
  O2-  O474  1  0.90288733  0.57171742  0.19320342  1
  O2-  O475  1  0.91168924  0.56406991  0.52854322  1
  O2-  O476  1  0.91865011  0.58074366  0.86779607  1
  O2-  O477  1  0.91928994  0.83376811  0.16737339  1
  O2-  O478  1  0.90761371  0.82244362  0.52581558  1
  O2-  O479  1  0.91977241  0.83528371  0.85790533  1
  O2-  O480  1  0.17055865  0.08905558  0.29908313  1
  O2-  O481  1  0.16321849  0.07300672  0.64339855  1
  O2-  O482  1  0.16917237  0.09952375  0.97069892  1
  O2-  O483  1  0.17000773  0.31272701  0.32015030  1
  O2-  O484  1  0.16002871  0.32622917  0.65318861  1
  O2-  O485  1  0.20219514  0.36841649  0.97450368  1
  O2-  O486  1  0.17824067  0.57750986  0.32907829  1
  O2-  O487  1  0.16655688  0.58235246  0.64501438  1
  O2-  O488  1  0.17790789  0.61204855  0.99565430  1
  O2-  O489  1  0.17908074  0.85126242  0.33889807  1
  O2-  O490  1  0.15820488  0.81260067  0.65911304  1
  O2-  O491  1  0.16363398  0.83339755  0.97737321  1
  O2-  O492  1  0.42029760  0.08640990  0.31996908  1
  O2-  O493  1  0.41060707  0.08657297  0.70423639  1
  O2-  O494  1  0.32464035  0.05395406  0.92343878  1
  O2-  O495  1  0.41643269  0.34052274  0.31355942  1
  O2-  O496  1  0.40958708  0.33784090  0.64189888  1
  O2-  O497  1  0.42217948  0.33728470  0.99219518  1
  O2-  O498  1  0.44530465  0.59600138  0.31637578  1
  O2-  O499  1  0.41427694  0.58918086  0.64262741  1
  O2-  O500  1  0.42410322  0.59504236  0.98441148  1
  O2-  O501  1  0.43153907  0.83956174  0.31635136  1
  O2-  O502  1  0.41875071  0.83905496  0.64719129  1
  O2-  O503  1  0.42451643  0.84128362  0.98047695  1
  O2-  O504  1  0.67892293  0.10854356  0.31734232  1
  O2-  O505  1  0.65903096  0.08775410  0.64257383  1
  O2-  O506  1  0.67897433  0.08932734  0.97422600  1
  O2-  O507  1  0.65990147  0.34122101  0.31362666  1
  O2-  O508  1  0.68375394  0.34191329  0.63067597  1
  O2-  O509  1  0.68411201  0.34868132  0.98887287  1
  O2-  O510  1  0.67290434  0.58787900  0.31002367  1
  O2-  O511  1  0.66221515  0.59064673  0.65994436  1
  O2-  O512  1  0.65476048  0.57761163  0.98710981  1
  O2-  O513  1  0.66325667  0.82977647  0.31836172  1
  O2-  O514  1  0.66615908  0.82220300  0.65271544  1
  O2-  O515  1  0.66055281  0.84138466  0.96606943  1
  O2-  O516  1  0.91525710  0.07385122  0.30596778  1
  O2-  O517  1  0.93166385  0.10391346  0.64818660  1
  O2-  O518  1  0.95189803  0.12876570  0.97032062  1
  O2-  O519  1  0.90519557  0.32376013  0.31346597  1
  O2-  O520  1  0.91626077  0.35530832  0.64056808  1
  O2-  O521  1  0.93110619  0.34585851  0.97065973  1
  O2-  O522  1  0.90817905  0.58170774  0.31829839  1
  O2-  O523  1  0.89167832  0.52747916  0.69414485  1
  O2-  O524  1  0.91768936  0.58074971  0.99209685  1
  O2-  O525  1  0.93074126  0.85285917  0.29517112  1
  O2-  O526  1  0.91231112  0.81554999  0.65134981  1
  O2-  O527  1  0.90327657  0.79676096  0.98180867  1
  O2-  O528  1  0.10938407  0.20221462  0.01943801  1
  O2-  O529  1  0.07679132  0.14816745  0.35428930  1
  O2-  O530  1  0.08450698  0.16519149  0.68818404  1
  O2-  O531  1  0.11014079  0.45062467  -0.04292283  1
  O2-  O532  1  0.08232144  0.40609018  0.31564238  1
  O2-  O533  1  0.07912273  0.41539214  0.67922502  1
  O2-  O534  1  0.07695621  0.67890470  0.03712918  1
  O2-  O535  1  0.07033323  0.67200511  0.36064480  1
  O2-  O536  1  0.06703690  0.63971121  0.69652413  1
  O2-  O537  1  0.07076937  0.90828111  0.01464047  1
  O2-  O538  1  0.09064347  0.93256747  0.35053017  1
  O2-  O539  1  0.08024856  0.90717301  0.69050885  1
  O2-  O540  1  0.36429747  0.17910404  0.02861199  1
  O2-  O541  1  0.33386104  0.16960699  0.35254453  1
  O2-  O542  1  0.32465443  0.17211021  0.68453672  1
  O2-  O543  1  0.35278717  0.43436666  0.03344236  1
  O2-  O544  1  0.34785758  0.43183986  0.34869947  1
  O2-  O545  1  0.32082302  0.41532849  0.68323667  1
  O2-  O546  1  0.34737431  0.68099108  0.03065126  1
  O2-  O547  1  0.35307403  0.67088508  0.35396177  1
  O2-  O548  1  0.33325199  0.67254183  0.68426171  1
  O2-  O549  1  0.34085909  0.92776585  -0.00703699  1
  O2-  O550  1  0.34892398  0.91884339  0.36820079  1
  O2-  O551  1  0.32544844  0.90825794  0.69343815  1
  O2-  O552  1  0.65859658  0.20806080  0.04078150  1
  O2-  O553  1  0.58169422  0.18427300  0.36526996  1
  O2-  O554  1  0.58977642  0.18096558  0.68941970  1
  O2-  O555  1  0.58514443  0.41458567  0.03384335  1
  O2-  O556  1  0.58155907  0.42742083  0.35324754  1
  O2-  O557  1  0.56721978  0.42052683  0.70471854  1
  O2-  O558  1  0.59212512  0.67672976  0.02528785  1
  O2-  O559  1  0.60079634  0.67469709  0.36161498  1
  O2-  O560  1  0.58390867  0.67523384  0.69041938  1
  O2-  O561  1  0.58732749  0.92292720  0.01654110  1
  O2-  O562  1  0.59377418  0.93082727  0.36557843  1
  O2-  O563  1  0.57923498  0.92618452  0.68925930  1
  O2-  O564  1  0.84123500  0.17591266  0.01889112  1
  O2-  O565  1  0.87981498  0.18373408  0.37499234  1
  O2-  O566  1  0.83252333  0.17672280  0.67866584  1
  O2-  O567  1  0.84426286  0.42161572  0.02990743  1
  O2-  O568  1  0.82707039  0.41444566  0.35136864  1
  O2-  O569  1  0.86670433  0.47228641  0.63959202  1
  O2-  O570  1  0.81994309  0.64924755  0.03120859  1
  O2-  O571  1  0.82072956  0.65052825  0.37714255  1
  O2-  O572  1  0.82824019  0.64894703  0.69003631  1
  O2-  O573  1  0.97214929  0.98640879  -0.01103663  1
  O2-  O574  1  0.83479637  0.90963191  0.34983651  1
  O2-  O575  1  0.81521040  0.87985925  0.69750390  1
