# generated using pymatgen
data_H2O
_symmetry_space_group_name_H-M   'P 1'
_cell_length_a   17.97968303
_cell_length_b   17.98444527
_cell_length_c   21.97673753
_cell_angle_alpha   89.98177845
_cell_angle_beta   89.99263589
_cell_angle_gamma   119.99114550
_symmetry_Int_Tables_number   1
_chemical_formula_structural   H2O
_chemical_formula_sum   'H384 O192'
_cell_volume   6154.76715535
_cell_formula_units_Z   192
loop_
 _symmetry_equiv_pos_site_id
 _symmetry_equiv_pos_as_xyz
  1  'x, y, z'
loop_
 _atom_type_symbol
 _atom_type_oxidation_number
  H+  1.0
  O2-  -2.0
loop_
 _atom_site_type_symbol
 _atom_site_label
 _atom_site_symmetry_multiplicity
 _atom_site_fract_x
 _atom_site_fract_y
 _atom_site_fract_z
 _atom_site_occupancy
  H+  H0  1  1.00416386  0.37240611  0.82009097  1
  H+  H1  1  0.58553341  0.71124476  0.00688087  1
  H+  H2  1  0.28704320  0.14438011  0.15928552  1
  H+  H3  1  0.10390649  0.96664187  0.81713564  1
  H+  H4  1  0.15197670  1.01794764  0.32419057  1
  H+  H5  1  0.47336833  0.85453983  0.51438775  1
  H+  H6  1  0.86942988  0.22041768  0.16731195  1
  H+  H7  1  0.14462228  0.82417540  0.93386625  1
  H+  H8  1  0.72676900  0.86263524  0.12097253  1
  H+  H9  1  0.35870013  0.72112655  0.00884729  1
  H+  H10  1  1.03078782  0.87603269  0.34771979  1
  H+  H11  1  0.37684152  0.59372020  0.84877235  1
  H+  H12  1  0.86174759  0.75045624  0.19384300  1
  H+  H13  1  0.42760887  0.58657178  0.26909573  1
  H+  H14  1  0.14812797  0.52700923  0.33827265  1
  H+  H15  1  0.51757612  0.37203170  0.49771878  1
  H+  H16  1  0.58004711  0.91584427  0.40588225  1
  H+  H17  1  0.02519574  0.64845265  0.48593148  1
  H+  H18  1  0.77710772  0.64056197  0.82625758  1
  H+  H19  1  0.59100151  -0.13647366  0.82702316  1
  H+  H20  1  0.60729869  0.72004683  0.67063145  1
  H+  H21  1  0.87907062  1.03447322  -0.01132069  1
  H+  H22  1  0.27548261  0.13768763  0.00215594  1
  H+  H23  1  0.66125218  0.37877757  0.84215808  1
  H+  H24  1  0.72306366  0.53817762  0.00110640  1
  H+  H25  1  0.57229434  0.58328643  0.97698762  1
  H+  H26  1  0.89808965  0.12789352  0.34400471  1
  H+  H27  1  0.20733544  0.84328929  0.83912722  1
  H+  H28  1  0.54374624  0.13012091  0.14512562  1
  H+  H29  1  0.12122222  0.84895763  0.83431551  1
  H+  H30  1  0.89040654  0.78038456  0.50277787  1
  H+  H31  1  0.08198907  0.76687563  0.62685966  1
  H+  H32  1  0.12039724  0.48779746  0.49260634  1
  H+  H33  1  0.36656193  0.88701667  0.34518514  1
  H+  H34  1  0.74773020  0.39442491  0.18064499  1
  H+  H35  1  0.88574700  0.36592939  0.32713668  1
  H+  H36  1  0.58475547  0.65954774  0.43480534  1
  H+  H37  1  1.02457521  0.63232316  0.34696845  1
  H+  H38  1  0.13776279  0.51747407  0.83723701  1
  H+  H39  1  0.26502653  0.88391303  0.00380410  1
  H+  H40  1  0.10255813  0.21686268  0.82876788  1
  H+  H41  1  0.77053898  0.88140933  0.49246319  1
  H+  H42  1  0.58427758  0.11001568  0.65822538  1
  H+  H43  1  0.09399660  0.37565849  0.67082869  1
  H+  H44  1  0.61592331  0.97517329  0.34538180  1
  H+  H45  1  0.28408317  0.40073441  0.15909077  1
  H+  H46  1  0.49950550  0.35290071  0.99017094  1
  H+  H47  1  0.56929423  0.15690373  0.71435105  1
  H+  H48  1  0.62227357  0.39591347  0.16135194  1
  H+  H49  1  0.39635220  0.36351523  0.32086228  1
  H+  H50  1  0.84127505  0.42945899  0.07296709  1
  H+  H51  1  0.06904364  0.58136299  0.68298490  1
  H+  H52  1  0.60573077  0.47177297  0.14447537  1
  H+  H53  1  0.32307333  -0.02045876  0.52051549  1
  H+  H54  1  0.87625521  0.48403238  0.83417996  1
  H+  H55  1  0.63834446  0.36377189  0.33404174  1
  H+  H56  1  0.78817326  0.65354015  0.67122521  1
  H+  H57  1  0.96865938  0.92147825  0.07952159  1
  H+  H58  1  0.13335921  0.15162684  0.16513159  1
  H+  H59  1  0.92672354  0.58865554  0.41491818  1
  H+  H60  1  0.32216792  0.93591891  0.67366727  1
  H+  H61  1  0.12888969  0.60014285  0.17593935  1
  H+  H62  1  0.11027930  0.47011844  0.16736623  1
  H+  H63  1  0.94962723  0.93472451  0.18153752  1
  H+  H64  1  0.13807334  0.11634405  0.65152017  1
  H+  H65  1  0.10817537  0.62823478  0.83126294  1
  H+  H66  1  0.11973390  0.98418121  0.65583277  1
  H+  H67  1  0.35039369  0.46408928  0.05897643  1
  H+  H68  1  0.10327252  0.71584196  0.82658052  1
  H+  H69  1  0.87181333  0.48448038  0.34514691  1
  H+  H70  1  0.04735555  0.15690150  0.17690107  1
  H+  H71  1  0.36224198  0.22238063  0.49500997  1
  H+  H72  1  0.86925900  0.74838695  0.67355383  1
  H+  H73  1  0.39403818  0.02257227  0.32817382  1
  H+  H74  1  0.77493234  0.13852050  0.34258362  1
  H+  H75  1  0.97901980  0.35993806  0.17424526  1
  H+  H76  1  0.22813898  0.11784545  0.64432954  1
  H+  H77  1  0.78929998  0.16267600  0.49775638  1
  H+  H78  1  0.71560807  0.05552580  0.49745136  1
  H+  H79  1  0.14010503  0.76763055  0.33350623  1
  H+  H80  1  0.78245845  0.39494437  0.49151453  1
  H+  H81  1  0.57100236  0.65490870  0.06724620  1
  H+  H82  1  0.32684657  0.85075593  0.66861608  1
  H+  H83  1  0.35250433  0.88228801  0.00432416  1
  H+  H84  1  0.36985308  0.39624413  0.15175921  1
  H+  H85  1  0.91308587  0.08250540  0.89629840  1
  H+  H86  1  0.10903979  0.38214217  0.33975522  1
  H+  H87  1  0.89935379  0.76941426  0.33292158  1
  H+  H88  1  0.55133932  0.38704300  0.66028471  1
  H+  H89  1  0.88820075  0.61542874  0.84299776  1
  H+  H90  1  0.05274718  0.91090926  0.18463278  1
  H+  H91  1  0.64008034  0.61311437  0.33153059  1
  H+  H92  1  0.97316768  0.36401346  0.66608720  1
  H+  H93  1  0.08499170  0.41073348  0.10779366  1
  H+  H94  1  0.39746487  0.11323103  0.32596906  1
  H+  H95  1  0.33142944  0.90761103  0.43915884  1
  H+  H96  1  0.40641518  0.82236328  0.93739214  1
  H+  H97  1  0.38587399  0.87941578  0.18108544  1
  H+  H98  1  0.35638877  0.45835994  0.83363240  1
  H+  H99  1  0.77387247  0.63639159  0.33795088  1
  H+  H100  1  0.14746394  0.62333007  0.51252516  1
  H+  H101  1  0.20177930  0.35678249  0.64888120  1
  H+  H102  1  0.64687643  0.10006836  0.17089080  1
  H+  H103  1  0.34237200  0.66327825  0.43880376  1
  H+  H104  1  0.63318957  0.60537588  0.50631987  1
  H+  H105  1  0.77479523  0.63655312  0.49640651  1
  H+  H106  1  0.88981743  0.12005034  0.66701067  1
  H+  H107  1  0.85652382  0.97312699  0.49554547  1
  H+  H108  1  0.27841514  0.63335502  0.49723319  1
  H+  H109  1  0.34747835  0.11239762  0.67028118  1
  H+  H110  1  0.21495391  0.59646586  0.17713976  1
  H+  H111  1  0.63200015  0.25156864  0.81210908  1
  H+  H112  1  0.14268963  0.27208473  0.33350284  1
  H+  H113  1  0.78824121  0.12668073  0.17004429  1
  H+  H114  1  0.13569244  0.35883535  0.83720619  1
  H+  H115  1  0.60545649  0.88011327  0.49717988  1
  H+  H116  1  0.88184821  0.10880231  0.83624412  1
  H+  H117  1  0.91580104  0.37303113  0.82516204  1
  H+  H118  1  0.51504686  0.62448122  0.82975035  1
  H+  H119  1  0.36979167  0.75185408  0.84906201  1
  H+  H120  1  -0.02363099  0.37981125  -0.00025470  1
  H+  H121  1  0.77010158  0.40871324  0.65515406  1
  H+  H122  1  0.78321048  0.97326724  0.22267724  1
  H+  H123  1  0.35548581  0.62830390  0.16416858  1
  H+  H124  1  0.44159732  0.07400141  0.66053719  1
  H+  H125  1  0.64121491  0.10940836  0.32235690  1
  H+  H126  1  0.48302365  0.62006533  0.17247129  1
  H+  H127  1  0.03008486  0.39909239  0.49596840  1
  H+  H128  1  0.86064337  0.15635507  0.98651311  1
  H+  H129  1  0.50177973  0.13374969  0.52436274  1
  H+  H130  1  0.45493042  0.24048737  0.85016712  1
  H+  H131  1  0.34395517  0.15250805  0.81660182  1
  H+  H132  1  0.89386056  0.53089726  0.47365047  1
  H+  H133  1  0.64715885  0.52940111  0.83181803  1
  H+  H134  1  0.60887103  0.12909014  0.01831423  1
  H+  H135  1  0.61446254  0.21673938  1.02938625  1
  H+  H136  1  0.88371109  0.11200149  0.50500477  1
  H+  H137  1  0.97250084  0.88483138  0.98018183  1
  H+  H138  1  0.27772670  0.88700807  0.34439266  1
  H+  H139  1  0.57095438  0.65807418  0.76784464  1
  H+  H140  1  0.89851136  0.37956013  0.50742646  1
  H+  H141  1  0.21699977  0.34652619  0.84382355  1
  H+  H142  1  0.63961942  1.00778636  0.17496058  1
  H+  H143  1  0.41273667  0.34626371  0.83783516  1
  H+  H144  1  0.50459129  0.88045899  0.17188427  1
  H+  H145  1  0.37532570  0.22846976  0.33322788  1
  H+  H146  1  0.77822987  0.39192626  0.34082791  1
  H+  H147  1  0.96898503  0.12281962  0.99550637  1
  H+  H148  1  -0.00409611  0.64381217  0.65864602  1
  H+  H149  1  0.28424447  0.38505003  0.34029184  1
  H+  H150  1  0.63803885  0.61403734  0.83208789  1
  H+  H151  1  0.11269860  0.39188890  0.00983106  1
  H+  H152  1  0.34712725  0.45301162  0.66419041  1
  H+  H153  1  0.35645798  0.87469632  0.49907145  1
  H+  H154  1  0.73905530  0.58457089  0.99380461  1
  H+  H155  1  0.18000040  0.35308269  0.41850995  1
  H+  H156  1  0.87162068  0.40187648  0.01120435  1
  H+  H157  1  0.66203483  0.27853102  0.50666233  1
  H+  H158  1  0.93372949  0.87489111  0.91306941  1
  H+  H159  1  1.01603741  0.89193833  0.48857894  1
  H+  H160  1  0.10914369  0.84308440  0.99598981  1
  H+  H161  1  0.74057015  0.58662181  0.16865376  1
  H+  H162  1  0.20965927  0.60181803  0.66619296  1
  H+  H163  1  0.63004603  -0.01630163  0.66389655  1
  H+  H164  1  0.10870768  0.72110559  0.00925131  1
  H+  H165  1  0.97304133  0.36188132  0.32630310  1
  H+  H166  1  0.61983879  0.72714568  0.34836508  1
  H+  H167  1  0.28515838  0.63743128  0.35238624  1
  H+  H168  1  0.11515920  0.09305933  0.84120605  1
  H+  H169  1  0.75346670  0.84773662  0.13785170  1
  H+  H170  1  0.46155203  0.85183132  0.66673083  1
  H+  H171  1  0.59661809  0.74050642  0.19076088  1
  H+  H172  1  0.85132357  0.96982542  0.82724679  1
  H+  H173  1  0.85478324  0.88270425  0.82418027  1
  H+  H174  1  0.15004903  0.61641648  0.34303345  1
  H+  H175  1  0.63773109  0.35449284  0.50703538  1
  H+  H176  1  0.90073545  0.29190002  0.50832894  1
  H+  H177  1  0.14209805  0.77250251  0.17861150  1
  H+  H178  1  0.66540518  0.14308733  0.48217314  1
  H+  H179  1  0.07802327  0.18073099  0.07574715  1
  H+  H180  1  0.88585365  0.59671728  0.19905977  1
  H+  H181  1  0.12573949  0.50844206  0.66123602  1
  H+  H182  1  0.71613814  0.85461220  0.84087950  1
  H+  H183  1  0.88692836  0.77463910  0.83403209  1
  H+  H184  1  0.64040520  0.13913645  0.83010031  1
  H+  H185  1  0.12588057  0.88506079  0.17240315  1
  H+  H186  1  0.63321774  0.76753157  0.50279037  1
  H+  H187  1  0.37601780  0.63979602  0.34561888  1
  H+  H188  1  0.66519088  0.40135752  0.65610464  1
  H+  H189  1  0.27185397  0.14012065  0.48224942  1
  H+  H190  1  0.09310709  0.67069350  0.40201253  1
  H+  H191  1  0.99124705  0.98188846  0.24279691  1
  H+  H192  1  0.60281005  0.96909635  0.49784635  1
  H+  H193  1  0.90052472  0.65772191  0.02511854  1
  H+  H194  1  0.97662138  0.61331929  0.84522664  1
  H+  H195  1  0.77606007  0.90116985  0.33934383  1
  H+  H196  1  0.20287049  0.09343556  0.83350958  1
  H+  H197  1  0.65228002  0.81943123  0.93291451  1
  H+  H198  1  0.12380513  0.87847281  0.35132254  1
  H+  H199  1  0.56583717  0.36385374  0.06745044  1
  H+  H200  1  0.32878695  0.91998749  0.09878820  1
  H+  H201  1  0.39788758  0.52806072  0.17126841  1
  H+  H202  1  0.88010228  0.23262853  0.81982896  1
  H+  H203  1  0.30789333  0.35455173  0.68140174  1
  H+  H204  1  0.60298264  0.33325119  0.01175649  1
  H+  H205  1  0.52932163  0.13457337  0.33696276  1
  H+  H206  1  0.71418062  0.85165811  0.99048336  1
  H+  H207  1  0.18627024  0.82750011  0.63805455  1
  H+  H208  1  -0.02358155  0.11745792  0.66224622  1
  H+  H209  1  0.86442927  0.90855381  -0.01830931  1
  H+  H210  1  0.62813882  0.76349402  0.84015349  1
  H+  H211  1  0.91512253  0.12967899  0.18949641  1
  H+  H212  1  0.88267595  0.48194798  0.17354549  1
  H+  H213  1  0.64040314  0.27581348  0.32513202  1
  H+  H214  1  -0.02520194  0.86297752  0.82171329  1
  H+  H215  1  0.77157968  0.15475796  0.98579650  1
  H+  H216  1  0.38744951  0.51650237  0.50041487  1
  H+  H217  1  0.11061860  0.23301380  0.45664264  1
  H+  H218  1  0.10277592  0.23333951  1.01463010  1
  H+  H219  1  0.71834424  0.84451733  0.65853909  1
  H+  H220  1  0.14717792  0.37058176  0.18200658  1
  H+  H221  1  0.47989914  0.36509220  0.16535955  1
  H+  H222  1  0.45503699  0.84184647  0.84263862  1
  H+  H223  1  0.86467470  0.64142457  0.47953965  1
  H+  H224  1  0.88797876  0.52715529  0.00090311  1
  H+  H225  1  0.49687981  0.43387450  0.96345964  1
  H+  H226  1  0.14302084  0.01669171  0.99279325  1
  H+  H227  1  0.86092465  0.23221233  0.34065537  1
  H+  H228  1  0.39141594  0.77408466  0.33539974  1
  H+  H229  1  0.52432920  0.62446839  0.66949494  1
  H+  H230  1  1.02329757  0.14092817  0.36692833  1
  H+  H231  1  0.98190803  0.87824201  0.65370264  1
  H+  H232  1  0.11319500  0.48035781  1.01252889  1
  H+  H233  1  0.63608512  0.02955576  0.97582507  1
  H+  H234  1  1.02661698  0.63911044  0.17061671  1
  H+  H235  1  0.42862448  0.35103649  0.67184156  1
  H+  H236  1  0.82536617  0.75555924  0.18187006  1
  H+  H237  1  0.53554959  0.18215305  0.80965211  1
  H+  H238  1  0.63415019  0.85204660  0.65480531  1
  H+  H239  1  0.10427338  0.21726540  0.67361608  1
  H+  H240  1  0.63329297  0.48765027  0.66530915  1
  H+  H241  1  0.73857354  0.36518901  0.99994877  1
  H+  H242  1  0.54830857  0.39397744  0.82526206  1
  H+  H243  1  0.61441439  0.88285097  -0.00004029  1
  H+  H244  1  0.46592824  0.50566391  0.61907962  1
  H+  H245  1  0.08596091  0.91649204  0.42306969  1
  H+  H246  1  0.10807303  0.98666610  0.48613689  1
  H+  H247  1  0.11097929  0.89115295  0.64912360  1
  H+  H248  1  0.58186108  0.82109886  0.19443381  1
  H+  H249  1  0.37480932  0.10971841  -0.02470077  1
  H+  H250  1  0.87214308  0.38881021  0.16428825  1
  H+  H251  1  0.36477106  0.38012438  0.50103337  1
  H+  H252  1  0.23231987  0.38464047  0.98876437  1
  H+  H253  1  0.36214425  -0.01701777  0.15693495  1
  H+  H254  1  0.36400191  0.22698863  0.00198557  1
  H+  H255  1  0.71865734  0.22888006  0.44291856  1
  H+  H256  1  0.52289369  0.62953994  0.49351728  1
  H+  H257  1  0.52684014  0.38712811  0.33947180  1
  H+  H258  1  0.93780891  0.68577535  0.65185121  1
  H+  H259  1  0.49201573  0.14708329  0.49435717  1
  H+  H260  1  0.46979215  0.85889097  -0.00544988  1
  H+  H261  1  0.87932774  0.40162390  0.67475141  1
  H+  H262  1  0.81432403  -0.03268015  0.20342053  1
  H+  H263  1  0.38996955  0.27889757  0.16728404  1
  H+  H264  1  0.67136060  0.95516695  0.71513871  1
  H+  H265  1  0.37383309  0.21192336  0.66500213  1
  H+  H266  1  0.66187052  0.82386620  0.56301550  1
  H+  H267  1  0.63315459  0.51602772  0.50960568  1
  H+  H268  1  0.38464896  0.60562103  0.50816237  1
  H+  H269  1  0.13229194  0.11766838  0.48701941  1
  H+  H270  1  0.34861256  0.62314116  0.67712678  1
  H+  H271  1  0.28184102  0.38692895  0.48004602  1
  H+  H272  1  0.34912919  0.62672642  0.01069109  1
  H+  H273  1  0.74750853  0.37352356  0.84387961  1
  H+  H274  1  0.88663087  0.86811917  0.50120241  1
  H+  H275  1  0.22109139  0.61234576  0.99398518  1
  H+  H276  1  0.62076468  0.62069573  0.16431851  1
  H+  H277  1  0.15758756  1.03196985  0.16948839  1
  H+  H278  1  0.26339798  0.61972199  0.83518767  1
  H+  H279  1  0.89451361  0.60936913  0.33644307  1
  H+  H280  1  0.61517227  0.47629103  0.34490449  1
  H+  H281  1  0.83984814  0.24695229  0.67422467  1
  H+  H282  1  0.23932004  0.10723195  0.32255182  1
  H+  H283  1  0.42630135  0.33703845  0.25990896  1
  H+  H284  1  0.66481583  0.71916906  0.12756675  1
  H+  H285  1  0.33751393  0.07509405  0.51850637  1
  H+  H286  1  0.64217654  0.61561819  0.66181262  1
  H+  H287  1  0.38690551  0.76298222  0.51353243  1
  H+  H288  1  0.35527328  0.71427133  0.67780668  1
  H+  H289  1  0.65799744  0.09842287  0.92315013  1
  H+  H290  1  0.60112381  0.16891974  0.39109699  1
  H+  H291  1  0.66327181  0.58249986  0.26976094  1
  H+  H292  1  0.34911139  0.41438122  0.39696631  1
  H+  H293  1  0.14026055  0.37591533  0.47350382  1
  H+  H294  1  0.82849744  0.66968873  0.39907388  1
  H+  H295  1  0.32525942  0.64889568  0.77697084  1
  H+  H296  1  0.66464787  0.06917644  0.58165617  1
  H+  H297  1  0.36333301  0.03887568  0.61047734  1
  H+  H298  1  0.37695621  0.02582246  0.95961791  1
  H+  H299  1  0.15863872  0.57398801  0.90046716  1
  H+  H300  1  0.45185736  0.58385971  1.00830962  1
  H+  H301  1  0.08742759  0.41632223  0.73635225  1
  H+  H302  1  0.90525212  0.08012327  0.56587204  1
  H+  H303  1  0.56140690  0.89644569  0.76979681  1
  H+  H304  1  0.33371195  0.85488013  0.82587661  1
  H+  H305  1  0.41458897  0.84964691  0.24287605  1
  H+  H306  1  0.07930630  0.66512135  0.10696032  1
  H+  H307  1  0.84187352  0.18531956  0.43525486  1
  H+  H308  1  0.07934324  0.41603700  0.39725131  1
  H+  H309  1  0.91931968  0.84513451  0.59635481  1
  H+  H310  1  0.34542035  0.17196788  0.39455042  1
  H+  H311  1  0.40568352  0.56005158  0.90637358  1
  H+  H312  1  0.91222370  0.49818053  0.69116298  1
  H+  H313  1  0.71086237  0.11387254  0.64586116  1
  H+  H314  1  0.32633838  0.27959960  0.55631499  1
  H+  H315  1  0.42331422  0.32601416  0.59416572  1
  H+  H316  1  0.43055760  0.14885180  0.88006921  1
  H+  H317  1  0.91688815  0.33293091  0.23227574  1
  H+  H318  1  0.84939039  0.42830139  0.77321444  1
  H+  H319  1  0.83978056  0.92061582  0.04759935  1
  H+  H320  1  0.13832191  0.31701669  0.59202965  1
  H+  H321  1  0.61253292  0.94594401  0.05057851  1
  H+  H322  1  0.39751560  0.52426703  0.32698602  1
  H+  H323  1  -0.02515079  0.79642821  0.05151289  1
  H+  H324  1  0.31851446  0.40704296  0.77281482  1
  H+  H325  1  0.75626842  0.21248547  0.71376884  1
  H+  H326  1  0.54674281  0.86533743  0.11256568  1
  H+  H327  1  0.77074216  0.52735171  0.14090361  1
  H+  H328  1  0.92086716  0.34411253  0.60239872  1
  H+  H329  1  0.83987147  0.67342065  0.76783237  1
  H+  H330  1  0.16520332  0.33807949  0.93504287  1
  H+  H331  1  0.34362885  0.17337443  0.09866616  1
  H+  H332  1  0.46009320  0.35061460  0.90275418  1
  H+  H333  1  0.81316237  0.89959436  0.73297646  1
  H+  H334  1  0.42279207  0.55311484  0.58728721  1
  H+  H335  1  0.53120585  0.63694000  0.34221017  1
  H+  H336  1  0.29692187  0.14519749  0.75473632  1
  H+  H337  1  0.41142054  0.81766341  0.60320511  1
  H+  H338  1  0.57552659  0.40626738  0.43784220  1
  H+  H339  1  0.16694758  0.58235289  0.57018145  1
  H+  H340  1  0.47857302  0.86446533  0.33498661  1
  H+  H341  1  0.85152976  0.88125845  0.67251886  1
  H+  H342  1  0.94973654  0.11209433  0.25188337  1
  H+  H343  1  0.15594402  0.28644458  0.18176554  1
  H+  H344  1  0.67116196  0.58756033  0.60026428  1
  H+  H345  1  0.08096938  0.15960014  0.73439875  1
  H+  H346  1  0.82748913  0.16731995  0.76836534  1
  H+  H347  1  0.83370419  0.92576344  0.39835611  1
  H+  H348  1  0.68559006  0.36820787  0.23921114  1
  H+  H349  1  0.64296821  0.81356279  0.28144941  1
  H+  H350  1  0.83740279  0.41542220  0.42897859  1
  H+  H351  1  0.29630958  0.87325440  0.76494490  1
  H+  H352  1  0.57617649  0.52547954  0.20655873  1
  H+  H353  1  0.04101968  0.61095126  0.74333334  1
  H+  H354  1  0.17083787  0.83014010  0.27523446  1
  H+  H355  1  0.60600364  0.42252565  0.76373929  1
  H+  H356  1  0.70146064  0.36141617  0.59473798  1
  H+  H357  1  0.18283986  0.46215223  0.78636745  1
  H+  H358  1  0.12930602  0.77974437  0.54004720  1
  H+  H359  1  0.72685109  0.13509065  0.83819426  1
  H+  H360  1  0.93380737  0.85038330  0.28642719  1
  H+  H361  1  0.89320623  0.03614197  0.34117444  1
  H+  H362  1  0.42587862  0.08453442  0.22779916  1
  H+  H363  1  0.08559306  0.91534593  0.75345128  1
  H+  H364  1  0.92990062  0.57997519  0.25747938  1
  H+  H365  1  0.88656852  0.29696445  0.98530607  1
  H+  H366  1  0.17512565  0.33526221  0.27439727  1
  H+  H367  1  0.16270627  0.06644023  0.93015019  1
  H+  H368  1  0.31997409  0.65342500  0.10636383  1
  H+  H369  1  0.61224483  0.55912554  0.91956365  1
  H+  H370  1  0.39892449  0.11975274  0.17012357  1
  H+  H371  1  0.23126124  0.86360450  0.17695490  1
  H+  H372  1  0.68269013  0.33017638  0.93872844  1
  H+  H373  1  0.97708279  1.01095473  0.09294222  1
  H+  H374  1  0.91756329  0.58695276  0.94024517  1
  H+  H375  1  0.63515843  0.85851914  0.34085781  1
  H+  H376  1  0.05415247  0.87747919  0.08592394  1
  H+  H377  1  0.67202732  0.07239084  0.26764374  1
  H+  H378  1  0.85977162  0.66676321  0.08633480  1
  H+  H379  1  0.01243317  0.12862320  0.82495070  1
  H+  H380  1  0.18361910  0.08483424  0.23147694  1
  H+  H381  1  0.02127082  0.63155962  0.01045868  1
  H+  H382  1  0.13168697  0.61130602  0.99496835  1
  H+  H383  1  0.16044560  0.09254775  0.55073200  1
  O2-  O384  1  0.10507736  0.18555953  0.15491576  1
  O2-  O385  1  0.08155580  0.17039419  0.44697369  1
  O2-  O386  1  0.07378200  0.15790045  0.81063807  1
  O2-  O387  1  0.08406036  0.40755607  0.15324899  1
  O2-  O388  1  0.08863983  0.42753307  0.47660503  1
  O2-  O389  1  0.12292108  0.43256274  0.79929000  1
  O2-  O390  1  0.08506095  0.67005547  0.15217846  1
  O2-  O391  1  0.09001656  0.67614935  0.48860924  1
  O2-  O392  1  0.07372199  0.65348080  0.81452628  1
  O2-  O393  1  0.09797785  0.91775628  0.15554520  1
  O2-  O394  1  0.07851283  0.92398185  0.47363807  1
  O2-  O395  1  0.07768846  0.90763764  0.79830589  1
  O2-  O396  1  0.34774636  0.17664031  0.14407686  1
  O2-  O397  1  0.33420629  0.16682262  0.47271229  1
  O2-  O398  1  0.29030043  0.14745023  0.79932227  1
  O2-  O399  1  0.34200055  0.43013806  0.13915166  1
  O2-  O400  1  0.34543781  0.41529476  0.47639231  1
  O2-  O401  1  0.32623308  0.39914073  0.81613840  1
  O2-  O402  1  0.31597795  0.64830431  0.15113151  1
  O2-  O403  1  0.33999760  0.66010488  0.48502916  1
  O2-  O404  1  0.32550055  0.64548510  0.82197999  1
  O2-  O405  1  0.32825309  0.92093689  0.14424113  1
  O2-  O406  1  0.32196775  0.89943179  0.48375665  1
  O2-  O407  1  0.29907447  0.87954148  0.80987974  1
  O2-  O408  1  0.60674025  0.15676360  0.13935675  1
  O2-  O409  1  0.66335573  0.19571686  0.46320167  1
  O2-  O410  1  0.59253643  0.19419031  0.79344038  1
  O2-  O411  1  0.58106301  0.40942478  0.13846697  1
  O2-  O412  1  0.57724224  0.40317594  0.48368820  1
  O2-  O413  1  0.60955859  0.42862811  0.80829743  1
  O2-  O414  1  0.60760210  0.67181115  0.13720057  1
  O2-  O415  1  0.58433660  0.65882280  0.48088412  1
  O2-  O416  1  0.57438687  0.65877911  0.81311796  1
  O2-  O417  1  0.56329642  0.89303318  0.15220579  1
  O2-  O418  1  0.57095132  0.90706113  0.48394186  1
  O2-  O419  1  0.55095500  0.88318617  0.81324346  1
  O2-  O420  1  0.85014575  0.15896599  0.16002004  1
  O2-  O421  1  0.84838920  0.19204969  0.48105330  1
  O2-  O422  1  0.83896653  0.16947666  0.81233978  1
  O2-  O423  1  0.84724259  0.42607563  0.15223075  1
  O2-  O424  1  0.84195335  0.42118970  0.47539064  1
  O2-  O425  1  0.85038237  0.42375303  0.81813090  1
  O2-  O426  1  0.79190240  0.58737289  0.15153918  1
  O2-  O427  1  0.83276389  0.67371773  0.47879032  1
  O2-  O428  1  0.83897113  0.66962545  0.81330658  1
  O2-  O429  1  0.94184381  0.94977639  0.10208777  1
  O2-  O430  1  0.83149768  0.91278770  0.47880421  1
  O2-  O431  1  0.81857613  0.90868952  0.81310145  1
  O2-  O432  1  0.18439181  0.09151159  0.18552093  1
  O2-  O433  1  0.16094128  0.08795361  0.50514250  1
  O2-  O434  1  0.14382323  0.06020350  0.85345083  1
  O2-  O435  1  0.18358068  0.34675730  0.19844551  1
  O2-  O436  1  0.17203747  0.34413950  0.46256809  1
  O2-  O437  1  0.15616911  0.32129433  0.85737145  1
  O2-  O438  1  0.15322299  0.56469251  0.19015746  1
  O2-  O439  1  0.17321475  0.58803603  0.52468983  1
  O2-  O440  1  0.16193392  0.57774468  0.85488715  1
  O2-  O441  1  0.17223945  0.83233845  0.19572489  1
  O2-  O442  1  0.12193585  0.76811337  0.49481203  1
  O2-  O443  1  0.14568087  0.81666204  0.85509046  1
  O2-  O444  1  0.42419587  0.08376859  0.18263608  1
  O2-  O445  1  0.32120814  0.02564066  0.54528126  1
  O2-  O446  1  0.44569032  0.18197846  0.84129210  1
  O2-  O447  1  0.41982268  0.34047766  0.18161145  1
  O2-  O448  1  0.38588229  0.31623164  0.54350596  1
  O2-  O449  1  0.45894966  0.33871177  0.85466497  1
  O2-  O450  1  0.42588296  0.58648708  0.19071370  1
  O2-  O451  1  0.41667562  0.57470656  0.52023171  1
  O2-  O452  1  0.40923481  0.56421115  0.86146496  1
  O2-  O453  1  0.42104395  0.85582479  0.19801378  1
  O2-  O454  1  0.41360695  0.82174990  0.53176881  1
  O2-  O455  1  0.39588679  0.81307308  0.86148913  1
  O2-  O456  1  0.67259807  0.06703672  0.19072342  1
  O2-  O457  1  0.67504444  0.07233648  0.51232672  1
  O2-  O458  1  0.66595051  0.10781276  0.85036909  1
  O2-  O459  1  0.69505228  0.39209347  0.19740793  1
  O2-  O460  1  0.67803896  0.33636253  0.52348612  1
  O2-  O461  1  0.68575668  0.34301064  0.85674187  1
  O2-  O462  1  0.63319671  0.56932884  0.19303183  1
  O2-  O463  1  0.66427540  0.57657625  0.52368839  1
  O2-  O464  1  0.67246039  0.58910608  0.84867585  1
  O2-  O465  1  0.58866490  0.77865574  0.21927924  1
  O2-  O466  1  0.66141713  0.82809946  0.51751989  1
  O2-  O467  1  0.65539326  0.82331710  0.85637108  1
  O2-  O468  1  0.95495018  0.11055780  0.20708240  1
  O2-  O469  1  0.89932151  0.07068520  0.52111141  1
  O2-  O470  1  0.90990406  0.07587394  0.85074063  1
  O2-  O471  1  0.91703211  0.33245707  0.18691345  1
  O2-  O472  1  0.93036461  0.35193770  0.52521123  1
  O2-  O473  1  0.94181451  0.33641982  0.81867318  1
  O2-  O474  1  0.92941553  0.58156286  0.21127312  1
  O2-  O475  1  0.92408788  0.59261471  0.46073129  1
  O2-  O476  1  0.91601572  0.58431889  0.86116316  1
  O2-  O477  1  0.97151922  0.92760302  0.22152005  1
  O2-  O478  1  0.92208952  0.84187763  0.51577546  1
  O2-  O479  1  0.91664539  0.83815454  0.84125286  1
  O2-  O480  1  0.18067491  0.07502523  0.30478563  1
  O2-  O481  1  0.16769254  0.09071214  0.62838588  1
  O2-  O482  1  0.17588199  0.07339813  0.97478329  1
  O2-  O483  1  0.17390671  0.33320665  0.32075194  1
  O2-  O484  1  0.14045912  0.31994263  0.63630521  1
  O2-  O485  1  0.17080228  0.34623167  0.98024434  1
  O2-  O486  1  0.18667514  0.58958234  0.34107835  1
  O2-  O487  1  0.15236152  0.57003032  0.64678344  1
  O2-  O488  1  0.16092278  0.58068465  0.97797195  1
  O2-  O489  1  0.17091099  0.82998782  0.32071880  1
  O2-  O490  1  0.13674416  0.81958506  0.61313284  1
  O2-  O491  1  0.14823728  0.82446563  0.97951027  1
  O2-  O492  1  0.42775903  0.08254843  0.31169671  1
  O2-  O493  1  0.37758967  0.04278068  0.65565848  1
  O2-  O494  1  0.39039911  0.08178704  0.94299577  1
  O2-  O495  1  0.42814129  0.33490122  0.30559634  1
  O2-  O496  1  0.45330614  0.32866539  0.64279844  1
  O2-  O497  1  0.46086591  0.36955077  0.96512715  1
  O2-  O498  1  0.42818895  0.58580606  0.31469875  1
  O2-  O499  1  0.43262014  0.53336530  0.62920937  1
  O2-  O500  1  0.38972609  0.55340683  0.99302867  1
  O2-  O501  1  0.41725659  0.83495991  0.32142492  1
  O2-  O502  1  0.40501763  0.81320346  0.64968120  1
  O2-  O503  1  0.40841162  0.82479326  0.98326211  1
  O2-  O504  1  0.67219862  0.07748099  0.31338759  1
  O2-  O505  1  0.65582498  0.06872718  0.62837023  1
  O2-  O506  1  0.65924709  0.09126464  0.96896017  1
  O2-  O507  1  0.67202120  0.33877554  0.31629204  1
  O2-  O508  1  0.70837456  0.37680636  0.63958053  1
  O2-  O509  1  0.68021158  0.32398003  0.98366077  1
  O2-  O510  1  0.66788188  0.58069276  0.31515068  1
  O2-  O511  1  0.67404441  0.58723762  0.64594517  1
  O2-  O512  1  0.56909211  0.53580477  0.95253515  1
  O2-  O513  1  0.66462823  0.82790167  0.32488385  1
  O2-  O514  1  0.65706639  0.81491097  0.64044749  1
  O2-  O515  1  0.65196606  0.81972433  0.97877097  1
  O2-  O516  1  0.93282835  0.10050471  0.33362323  1
  O2-  O517  1  0.92034917  0.09948509  0.64214828  1
  O2-  O518  1  0.91315211  0.09371148  0.97258565  1
  O2-  O519  1  0.91219810  0.33169497  0.31175269  1
  O2-  O520  1  0.91366457  0.33962453  0.64778502  1
  O2-  O521  1  0.91924961  0.36126546  0.98165138  1
  O2-  O522  1  0.92667936  0.57820533  0.33531198  1
  O2-  O523  1  0.98590629  0.68314638  0.63235518  1
  O2-  O524  1  0.92220179  0.58861594  0.98556793  1
  O2-  O525  1  0.93992380  0.83228804  0.32734959  1
  O2-  O526  1  0.91968091  0.84728773  0.64171623  1
  O2-  O527  1  0.94333884  0.90526047  0.95289429  1
  O2-  O528  1  0.06506925  0.17558892  0.03151238  1
  O2-  O529  1  0.08681223  0.17223106  0.37999459  1
  O2-  O530  1  0.08130897  0.15786447  0.68845423  1
  O2-  O531  1  0.08354510  0.42064339  0.02921331  1
  O2-  O532  1  0.07700370  0.41140616  0.35198539  1
  O2-  O533  1  0.07184531  0.41095484  0.68927060  1
  O2-  O534  1  0.08211242  0.66184320  0.02644764  1
  O2-  O535  1  0.08955318  0.66684906  0.35729188  1
  O2-  O536  1  0.01986479  0.58234320  0.70291310  1
  O2-  O537  1  0.02253870  0.85821949  0.04615434  1
  O2-  O538  1  0.09329925  0.91034237  0.36470454  1
  O2-  O539  1  0.08834526  0.92412759  0.67168049  1
  O2-  O540  1  0.33513074  0.16942942  0.01968254  1
  O2-  O541  1  0.34642048  0.16852768  0.34916427  1
  O2-  O542  1  0.32590078  0.15457960  0.67620545  1
  O2-  O543  1  0.34878625  0.46327342  0.01336211  1
  O2-  O544  1  0.34629333  0.41574923  0.35163680  1
  O2-  O545  1  0.29791689  0.40284577  0.68547175  1
  O2-  O546  1  0.32239069  0.66053076  0.02357802  1
  O2-  O547  1  0.34848421  0.67037052  0.36445769  1
  O2-  O548  1  0.32163737  0.65376050  0.69426430  1
  O2-  O549  1  0.32564871  0.91651928  0.01716149  1
  O2-  O550  1  0.33854194  0.92052715  0.35862562  1
  O2-  O551  1  0.28882936  0.87243746  0.68220849  1
  O2-  O552  1  0.57914237  0.15544769  0.04056044  1
  O2-  O553  1  0.59273610  0.16786812  0.34650623  1
  O2-  O554  1  0.55103567  0.13702870  0.67203154  1
  O2-  O555  1  0.54959687  0.32877210  0.02994620  1
  O2-  O556  1  0.58382760  0.41604009  0.36092542  1
  O2-  O557  1  0.61258168  0.42538409  0.67679183  1
  O2-  O558  1  0.55255258  0.65180948  0.02330909  1
  O2-  O559  1  0.59024656  0.66434063  0.36040698  1
  O2-  O560  1  0.58112781  0.65993516  0.68853404  1
  O2-  O561  1  0.58680099  0.91794260  0.01210821  1
  O2-  O562  1  0.58294978  0.91459547  0.36045687  1
  O2-  O563  1  0.61925617  0.93204890  0.69057972  1
  O2-  O564  1  0.83340003  0.19107315  -0.00446524  1
  O2-  O565  1  0.83368047  0.17406316  0.36070248  1
  O2-  O566  1  0.79171927  0.19308161  0.69337325  1
  O2-  O567  1  0.83837638  0.43086387  0.02774249  1
  O2-  O568  1  0.83817932  0.41845148  0.35670203  1
  O2-  O569  1  0.85862144  0.44098563  0.69051178  1
  O2-  O570  1  0.89194450  0.69917832  0.05020958  1
  O2-  O571  1  0.83381049  0.66699183  0.35408631  1
  O2-  O572  1  0.84600893  0.68824348  0.68925364  1
  O2-  O573  1  0.82146393  0.91911609  0.00527506  1
  O2-  O574  1  0.83589464  0.93753324  0.35398827  1
  O2-  O575  1  0.80768105  0.89475921  0.68792468  1
