# generated using pymatgen
data_H2O
_symmetry_space_group_name_H-M   'P 1'
_cell_length_a   17.99807554
_cell_length_b   17.99764918
_cell_length_c   22.01109525
_cell_angle_alpha   90.00455410
_cell_angle_beta   90.00440611
_cell_angle_gamma   119.99647555
_symmetry_Int_Tables_number   1
_chemical_formula_structural   H2O
_chemical_formula_sum   'H384 O192'
_cell_volume   6174.89468089
_cell_formula_units_Z   192
loop_
 _symmetry_equiv_pos_site_id
 _symmetry_equiv_pos_as_xyz
  1  'x, y, z'
loop_
 _atom_type_symbol
 _atom_type_oxidation_number
  H+  1.0
  O2-  -2.0
loop_
 _atom_site_type_symbol
 _atom_site_label
 _atom_site_symmetry_multiplicity
 _atom_site_fract_x
 _atom_site_fract_y
 _atom_site_fract_z
 _atom_site_occupancy
  H+  H0  1  0.12791097  0.86037901  0.99297618  1
  H+  H1  1  0.70976339  0.86100823  0.98418430  1
  H+  H2  1  0.98352994  0.85455039  0.19260062  1
  H+  H3  1  0.92211124  0.84135761  0.60156143  1
  H+  H4  1  0.33903817  0.87600871  0.47338573  1
  H+  H5  1  0.10677888  0.72774859  0.00047623  1
  H+  H6  1  0.08490140  0.91333526  0.08001845  1
  H+  H7  1  0.38408469  0.26038428  0.64985584  1
  H+  H8  1  0.60294414  0.89437314  1.01431648  1
  H+  H9  1  0.69778891  0.78095772  0.84368362  1
  H+  H10  1  0.73105889  0.11271314  0.33142263  1
  H+  H11  1  0.01519337  0.38030605  0.34013403  1
  H+  H12  1  0.82526302  0.89243579  0.14522386  1
  H+  H13  1  0.86570001  0.47957533  0.82545013  1
  H+  H14  1  0.87341945  0.85039780  -0.00413620  1
  H+  H15  1  0.11641659  0.87593126  0.18048338  1
  H+  H16  1  0.51493795  0.37417794  0.34996776  1
  H+  H17  1  0.88838946  0.52058746  0.66331869  1
  H+  H18  1  0.14807796  0.86741031  0.66070485  1
  H+  H19  1  0.57004934  0.64937646  0.43450692  1
  H+  H20  1  0.38467716  0.35439490  0.32440690  1
  H+  H21  1  0.35777876  0.64169305  0.00948418  1
  H+  H22  1  0.21390296  0.35065826  0.66544046  1
  H+  H23  1  0.62962207  0.88028047  0.33858300  1
  H+  H24  1  0.74589086  0.87299124  0.66403732  1
  H+  H25  1  0.20991467  0.09420992  0.50479456  1
  H+  H26  1  0.60873015  0.72235145  1.01549724  1
  H+  H27  1  0.36675500  0.57113500  0.17115253  1
  H+  H28  1  0.62655929  0.25830445  0.32882416  1
  H+  H29  1  0.61267069  0.64259705  0.68149019  1
  H+  H30  1  0.92988182  0.56459035  0.21361728  1
  H+  H31  1  0.13411860  0.36858180  0.66050218  1
  H+  H32  1  0.28006970  0.88747952  0.39656211  1
  H+  H33  1  0.87659597  0.60436502  0.51297531  1
  H+  H34  1  0.39982326  0.78498432  0.64024464  1
  H+  H35  1  0.47359612  0.61645945  0.50286210  1
  H+  H36  1  0.92229757  0.82465602  0.28807602  1
  H+  H37  1  0.86549048  0.45874047  0.14803310  1
  H+  H38  1  0.27128853  0.18667527  0.15701718  1
  H+  H39  1  0.64168529  0.27805006  0.83677032  1
  H+  H40  1  0.75648184  0.64322333  0.35035127  1
  H+  H41  1  0.86266848  0.88561290  0.50714403  1
  H+  H42  1  0.37581051  0.26836491  0.16515879  1
  H+  H43  1  0.11192048  0.38744140  0.82920103  1
  H+  H44  1  0.64829639  0.63398841  0.84252458  1
  H+  H45  1  0.60337088  0.47343834  1.00008408  1
  H+  H46  1  0.66052431  1.05236865  0.50053767  1
  H+  H47  1  0.10652810  0.63340781  0.66824672  1
  H+  H48  1  0.24752150  0.36771660  0.34276553  1
  H+  H49  1  0.61720342  0.38441227  0.99212273  1
  H+  H50  1  0.72520176  0.37245472  -0.01014239  1
  H+  H51  1  0.51971328  0.91847862  0.47827805  1
  H+  H52  1  0.14606512  0.39084212  0.31849882  1
  H+  H53  1  0.37528113  0.77336595  1.00822568  1
  H+  H54  1  0.88016503  0.76783205  0.51924551  1
  H+  H55  1  0.10766617  0.47676551  0.67189876  1
  H+  H56  1  0.72936767  0.36572297  0.66618462  1
  H+  H57  1  0.64470523  1.02328206  0.32509042  1
  H+  H58  1  0.77570205  0.39030390  0.82491896  1
  H+  H59  1  0.64371786  0.14141070  0.84376048  1
  H+  H60  1  0.86222163  0.22093284  0.34267247  1
  H+  H61  1  0.61313244  0.71687382  0.49034830  1
  H+  H62  1  0.35400689  0.67798625  0.19871399  1
  H+  H63  1  0.35816707  0.02116058  0.46625469  1
  H+  H64  1  0.55731306  0.88107942  0.30066406  1
  H+  H65  1  0.35476340  0.12808837  1.01562945  1
  H+  H66  1  0.13950174  0.52132754  0.50256532  1
  H+  H67  1  0.28694422  0.13321546  0.82528057  1
  H+  H68  1  0.39964781  0.87221127  0.64757045  1
  H+  H69  1  0.14575051  0.11652836  0.83892748  1
  H+  H70  1  0.62219374  0.51250676  0.51338699  1
  H+  H71  1  0.28186141  0.88678322  0.67029267  1
  H+  H72  1  0.13001295  0.01811022  0.99865547  1
  H+  H73  1  0.69441048  0.10371334  0.56200895  1
  H+  H74  1  0.88654696  0.27910246  0.83646093  1
  H+  H75  1  0.60334800  0.47028887  0.68672648  1
  H+  H76  1  0.88523859  0.77232801  0.34931246  1
  H+  H77  1  0.02632989  0.63166287  0.15067424  1
  H+  H78  1  0.61224251  0.23165638  0.16065385  1
  H+  H79  1  0.16993830  0.09807644  0.60051278  1
  H+  H80  1  0.64943791  0.05710855  0.85729560  1
  H+  H81  1  0.01458704  0.38453363  -0.00226564  1
  H+  H82  1  0.11455741  0.38499665  0.49278826  1
  H+  H83  1  0.89995465  0.26737341  0.50861406  1
  H+  H84  1  0.70830344  0.60318838  0.66238257  1
  H+  H85  1  0.11171525  0.13381442  0.34201842  1
  H+  H86  1  0.57018470  0.40438568  0.44003203  1
  H+  H87  1  0.76736746  0.64056828  0.80674666  1
  H+  H88  1  0.49144642  0.60113987  0.33721800  1
  H+  H89  1  0.11646210  0.13965862  0.15953080  1
  H+  H90  1  0.39558827  0.65810255  0.65556538  1
  H+  H91  1  0.34546450  0.60612206  0.33077100  1
  H+  H92  1  0.63859895  0.03258130  0.99936589  1
  H+  H93  1  0.86392871  0.47119984  0.50633065  1
  H+  H94  1  0.62659086  0.61526522  0.32559270  1
  H+  H95  1  1.04341247  0.90016375  0.66705847  1
  H+  H96  1  0.52231159  0.13496983  0.34975544  1
  H+  H97  1  0.87078388  0.13757876  0.67086387  1
  H+  H98  1  0.63917162  0.36624442  0.83882024  1
  H+  H99  1  0.32132311  0.41071221  0.44199604  1
  H+  H100  1  0.31319731  0.86355005  0.32831907  1
  H+  H101  1  0.87303489  0.71839725  0.16956975  1
  H+  H102  1  0.60055381  0.13832644  0.16599453  1
  H+  H103  1  0.91248582  0.32026650  0.26648457  1
  H+  H104  1  0.38921235  0.03236811  0.33573183  1
  H+  H105  1  -0.02378688  0.36093972  0.66346177  1
  H+  H106  1  0.35137466  0.72643021  0.82368031  1
  H+  H107  1  0.60053392  0.36998604  0.35103842  1
  H+  H108  1  0.12944904  0.35551692  0.16440313  1
  H+  H109  1  0.34516831  0.92385257  0.72800926  1
  H+  H110  1  0.63244024  1.02706913  0.17694648  1
  H+  H111  1  0.60942208  0.94252871  0.80673088  1
  H+  H112  1  0.21571487  0.85926221  0.99260119  1
  H+  H113  1  0.12154268  0.09656377  0.50953196  1
  H+  H114  1  0.80477125  0.13927762  0.49804192  1
  H+  H115  1  0.12510829  0.51957010  0.32343205  1
  H+  H116  1  0.02693876  0.38583348  0.49624863  1
  H+  H117  1  0.13450332  0.86371679  0.83355557  1
  H+  H118  1  0.85132977  0.62513507  0.01171626  1
  H+  H119  1  0.61063089  0.13382000  0.35026271  1
  H+  H120  1  0.55534508  0.98369358  0.78350868  1
  H+  H121  1  0.45881370  0.85295614  0.83003489  1
  H+  H122  1  0.88434164  0.36855531  0.83952968  1
  H+  H123  1  0.23408265  0.12976610  0.65762464  1
  H+  H124  1  0.76785193  0.12745675  0.16124095  1
  H+  H125  1  0.90248257  0.79407564  0.66636447  1
  H+  H126  1  0.13560956  0.76693414  0.18556203  1
  H+  H127  1  0.16367501  0.83855108  0.89439047  1
  H+  H128  1  0.13902876  0.02817717  0.30979304  1
  H+  H129  1  0.47683950  0.37021974  0.51000558  1
  H+  H130  1  0.51356836  0.89578242  0.16576866  1
  H+  H131  1  0.71385816  0.34603891  0.31793561  1
  H+  H132  1  0.87002771  0.47673325  0.32395762  1
  H+  H133  1  0.12120941  0.26098061  0.99499501  1
  H+  H134  1  0.64813157  0.36691449  0.17186211  1
  H+  H135  1  0.82889738  0.68042318  0.62367619  1
  H+  H136  1  0.71588578  0.35798266  0.51587885  1
  H+  H137  1  0.70904705  0.87431000  0.84052558  1
  H+  H138  1  0.90135219  0.32640649  0.92340861  1
  H+  H139  1  0.90623200  0.03916241  0.82854986  1
  H+  H140  1  0.37646647  0.48504623  0.64215654  1
  H+  H141  1  1.01652573  0.62817447  0.49875333  1
  H+  H142  1  0.12790405  0.35333331  0.99113381  1
  H+  H143  1  0.51414556  0.37398774  -0.00386838  1
  H+  H144  1  0.85412427  0.96280608  0.19563600  1
  H+  H145  1  0.10946957  0.63991906  1.00140544  1
  H+  H146  1  0.39668739  0.01859793  0.65114060  1
  H+  H147  1  0.97666234  0.61302887  0.66268349  1
  H+  H148  1  0.26925885  0.13745820  0.32680837  1
  H+  H149  1  0.71074402  0.59958759  0.99998352  1
  H+  H150  1  0.73261063  0.61850043  0.17606084  1
  H+  H151  1  0.41202548  0.83747738  0.33359329  1
  H+  H152  1  0.66159016  0.33747933  0.57669342  1
  H+  H153  1  0.98891188  0.12563828  0.33184746  1
  H+  H154  1  0.98244579  0.11385530  0.66270594  1
  H+  H155  1  0.37768407  0.86334935  0.83354862  1
  H+  H156  1  0.97271659  0.61009786  0.99434262  1
  H+  H157  1  0.84425171  0.92704725  0.45023956  1
  H+  H158  1  0.36391849  0.64527096  0.48440120  1
  H+  H159  1  0.86313222  0.89110814  0.82115716  1
  H+  H160  1  0.64754923  0.77338102  0.67344820  1
  H+  H161  1  0.13402781  0.52443114  0.83868711  1
  H+  H162  1  0.64788153  1.02849690  0.65151607  1
  H+  H163  1  0.66273589  0.81583881  0.55728392  1
  H+  H164  1  0.36984280  0.13101711  0.66806651  1
  H+  H165  1  0.91815494  0.61504462  0.29468908  1
  H+  H166  1  0.62310406  0.60209797  0.51052420  1
  H+  H167  1  0.86936109  0.22651625  0.67131796  1
  H+  H168  1  0.45997077  0.13916259  0.15223790  1
  H+  H169  1  0.28515547  0.90932143  0.82413860  1
  H+  H170  1  0.43188786  0.38959257  0.18848549  1
  H+  H171  1  0.96583864  0.10708572  0.99181634  1
  H+  H172  1  0.69478562  0.77470362  0.33666243  1
  H+  H173  1  0.38534526  0.37642556  0.51064480  1
  H+  H174  1  0.83356045  0.40341985  0.06198363  1
  H+  H175  1  1.04381799  0.88923702  0.33916842  1
  H+  H176  1  0.09675635  0.87451093  0.49858138  1
  H+  H177  1  0.86629599  0.38518600  0.67188186  1
  H+  H178  1  0.46847625  0.09708331  1.00418619  1
  H+  H179  1  0.26078308  0.28363656  0.72000951  1
  H+  H180  1  0.78121895  0.15394239  0.82480031  1
  H+  H181  1  0.88783929  0.25730238  0.17874685  1
  H+  H182  1  0.28933778  0.73395763  0.69654528  1
  H+  H183  1  0.53329635  0.88536764  0.64456435  1
  H+  H184  1  0.91378093  0.57893202  0.57028688  1
  H+  H185  1  0.35716297  0.48212284  0.49660066  1
  H+  H186  1  0.36491680  1.00312936  0.15163530  1
  H+  H187  1  0.86508696  0.14188988  1.00000778  1
  H+  H188  1  0.56337669  0.69883479  0.33990959  1
  H+  H189  1  0.57956492  0.66592337  0.85210003  1
  H+  H190  1  0.89445542  0.75189468  0.85428604  1
  H+  H191  1  0.39088889  0.11854958  0.32850475  1
  H+  H192  1  0.87157278  0.25939429  -0.01068580  1
  H+  H193  1  0.36217119  0.48422457  0.32082936  1
  H+  H194  1  0.64201412  0.61736912  0.17353450  1
  H+  H195  1  0.21941297  0.35531145  0.50864408  1
  H+  H196  1  1.11416285  0.96359942  0.18585068  1
  H+  H197  1  0.86673303  0.46961615  1.00373452  1
  H+  H198  1  0.79972055  0.90452523  0.35099273  1
  H+  H199  1  0.13117398  0.49130446  0.15011948  1
  H+  H200  1  0.13473523  0.61299128  0.17266549  1
  H+  H201  1  0.93573498  0.09150606  0.59918807  1
  H+  H202  1  0.24679833  0.87098385  0.48502389  1
  H+  H203  1  0.52396658  0.14313649  0.82657701  1
  H+  H204  1  0.13069118  0.52473787  -0.01332983  1
  H+  H205  1  0.07753093  0.41421022  0.39863733  1
  H+  H206  1  0.37630215  0.80438309  0.17073247  1
  H+  H207  1  0.21659894  0.60335930  0.31862067  1
  H+  H208  1  0.41316125  0.49740709  0.66378988  1
  H+  H209  1  0.84627511  -0.03069313  0.96757772  1
  H+  H210  1  0.16126115  0.07347092  0.14629829  1
  H+  H211  1  0.62514845  0.47372698  0.16995207  1
  H+  H212  1  0.21782256  0.10678416  0.99631311  1
  H+  H213  1  0.31394326  0.67791676  0.73751334  1
  H+  H214  1  0.77531210  0.37202659  0.15361092  1
  H+  H215  1  0.33037186  0.17908659  0.06584506  1
  H+  H216  1  0.27389790  0.64129658  0.48413520  1
  H+  H217  1  0.89257726  0.85095159  0.20100132  1
  H+  H218  1  0.86390404  0.98126942  0.66341083  1
  H+  H219  1  0.57649312  0.92877384  0.07174667  1
  H+  H220  1  0.34329144  0.96349814  0.01478257  1
  H+  H221  1  0.61937125  0.76426739  0.18332358  1
  H+  H222  1  0.90276024  1.03558597  0.33568142  1
  H+  H223  1  0.87901341  0.35049124  0.32409809  1
  H+  H224  1  0.88976580  0.34554538  0.17323288  1
  H+  H225  1  0.12757846  0.74151628  0.35048302  1
  H+  H226  1  0.60724505  0.47122357  0.84084598  1
  H+  H227  1  0.26337995  0.63413210  0.82536853  1
  H+  H228  1  0.91691201  0.81188716  0.95467001  1
  H+  H229  1  0.62259961  0.14107200  0.67378674  1
  H+  H230  1  0.38120560  0.34686559  -0.01107430  1
  H+  H231  1  0.66881064  0.08835509  0.23503142  1
  H+  H232  1  0.58500122  0.21993564  0.50973363  1
  H+  H233  1  1.01626319  0.88204387  1.02650255  1
  H+  H234  1  0.36935994  0.48389207  0.16471219  1
  H+  H235  1  0.26933411  0.36354250  0.99680778  1
  H+  H236  1  0.46072074  0.86532656  1.00607759  1
  H+  H237  1  0.13715282  0.27633168  0.83836345  1
  H+  H238  1  0.64033197  0.27681021  0.66735492  1
  H+  H239  1  0.48665873  0.35306135  0.84338735  1
  H+  H240  1  0.60087919  0.13093252  0.01655076  1
  H+  H241  1  0.51523022  0.61979519  0.16292976  1
  H+  H242  1  0.88506977  0.90016330  0.35467281  1
  H+  H243  1  0.38142435  0.78062578  0.48658721  1
  H+  H244  1  0.25831365  0.61847800  0.17550407  1
  H+  H245  1  0.88673543  0.61370869  0.83358759  1
  H+  H246  1  0.34298208  0.87455107  1.01551248  1
  H+  H247  1  0.60579041  0.63110349  0.01156454  1
  H+  H248  1  0.53862717  0.38347953  0.17301122  1
  H+  H249  1  0.83129881  0.62294440  0.36539533  1
  H+  H250  1  0.36023271  0.22415710  0.33235712  1
  H+  H251  1  0.38184064  0.13488668  0.82445850  1
  H+  H252  1  0.10361946  0.98101318  0.82714745  1
  H+  H253  1  0.03858310  0.71998778  0.37386660  1
  H+  H254  1  0.09219021  0.21783650  0.50492138  1
  H+  H255  1  0.11540473  0.25878344  0.16837273  1
  H+  H256  1  0.37743031  0.61881940  0.83091315  1
  H+  H257  1  0.31769139  0.32837016  0.14004608  1
  H+  H258  1  0.14366935  0.77611034  0.66047807  1
  H+  H259  1  0.77491108  0.14148942  0.00745594  1
  H+  H260  1  0.35457390  0.47568473  0.82404162  1
  H+  H261  1  0.64237411  0.86353254  0.65693412  1
  H+  H262  1  0.48598010  0.66521186  0.65882140  1
  H+  H263  1  0.86577457  0.89177788  0.66329581  1
  H+  H264  1  0.86766399  0.13519483  0.34302513  1
  H+  H265  1  1.03458056  0.14639084  0.82489121  1
  H+  H266  1  0.38635509  0.25956861  -0.00867808  1
  H+  H267  1  0.10385722  0.23043324  0.67221555  1
  H+  H268  1  0.88871438  0.59869702  0.16442689  1
  H+  H269  1  0.21300977  0.61166412  0.65608468  1
  H+  H270  1  0.45738438  0.60929217  0.81488438  1
  H+  H271  1  0.47384604  0.62512702  0.99275612  1
  H+  H272  1  0.60027138  0.38146354  0.50360920  1
  H+  H273  1  0.24659321  0.35405372  0.15366827  1
  H+  H274  1  0.99852458  0.61208525  0.31597819  1
  H+  H275  1  0.87519689  1.09343021  0.18130579  1
  H+  H276  1  0.12698924  0.76355247  0.51181170  1
  H+  H277  1  0.73572229  0.11668942  0.66258975  1
  H+  H278  1  0.59672680  0.88414356  0.16789968  1
  H+  H279  1  0.11874172  0.14969919  0.67083277  1
  H+  H280  1  0.09796938  0.12848923  0.00975278  1
  H+  H281  1  0.72980059  0.85051904  0.50347385  1
  H+  H282  1  0.75759737  0.62542529  0.51092173  1
  H+  H283  1  0.36770822  0.33834169  0.65851852  1
  H+  H284  1  0.11382401  0.72893998  0.82360174  1
  H+  H285  1  0.86949083  0.35844192  0.99006313  1
  H+  H286  1  0.37691171  -0.00385841  0.82581532  1
  H+  H287  1  0.67477200  0.60303425  0.26718595  1
  H+  H288  1  0.07593610  0.15166883  0.40422895  1
  H+  H289  1  0.91955695  0.32707877  0.60293164  1
  H+  H290  1  0.13514735  0.89388784  0.32972933  1
  H+  H291  1  0.60411266  0.67983596  0.74554370  1
  H+  H292  1  0.84601370  0.92079211  0.07131649  1
  H+  H293  1  0.66903433  0.32477116  0.22849159  1
  H+  H294  1  0.43519557  0.08407628  0.59543858  1
  H+  H295  1  0.83838021  0.17466600  0.76344282  1
  H+  H296  1  0.31059040  0.37712357  0.74759248  1
  H+  H297  1  0.98428650  0.83713518  0.86193773  1
  H+  H298  1  0.53227940  0.13772090  0.67259015  1
  H+  H299  1  0.15368401  0.57571696  0.23619004  1
  H+  H300  1  0.09404704  0.92117510  0.72828380  1
  H+  H301  1  0.37372567  0.14425727  0.15172093  1
  H+  H302  1  0.80268765  0.43413459  0.37622307  1
  H+  H303  1  0.22004929  0.61269922  0.99473407  1
  H+  H304  1  0.15938740  0.57778257  0.59407213  1
  H+  H305  1  0.40776521  0.33251980  0.57495372  1
  H+  H306  1  0.57957384  0.91322622  0.70809592  1
  H+  H307  1  0.70847581  0.85158745  0.19242007  1
  H+  H308  1  0.32803274  0.65409682  0.38449578  1
  H+  H309  1  0.26743134  0.30276025  0.37855752  1
  H+  H310  1  0.39160240  0.25183417  0.83830135  1
  H+  H311  1  0.44425894  0.12856843  0.88817647  1
  H+  H312  1  0.44479507  0.11227206  0.47559112  1
  H+  H313  1  0.56402611  0.15622531  0.07387398  1
  H+  H314  1  0.97668016  0.61687311  0.83656771  1
  H+  H315  1  0.07739682  0.66472547  0.44046116  1
  H+  H316  1  0.32237827  0.38694850  0.05731654  1
  H+  H317  1  0.41944982  0.61168008  0.56061195  1
  H+  H318  1  0.56996646  0.16038890  0.45423532  1
  H+  H319  1  0.67524065  0.81563050  0.27840331  1
  H+  H320  1  0.62315379  0.81646933  0.94723810  1
  H+  H321  1  0.42855558  0.33525158  0.26432011  1
  H+  H322  1  0.39660081  0.53874308  0.26008530  1
  H+  H323  1  0.57518105  0.66151632  0.10543343  1
  H+  H324  1  0.40893217  0.04983495  0.94566577  1
  H+  H325  1  0.16132290  0.09642990  0.25573596  1
  H+  H326  1  0.08314101  0.42039350  0.73362191  1
  H+  H327  1  0.08217352  0.42163683  0.05327326  1
  H+  H328  1  0.83581282  0.66126614  0.10807066  1
  H+  H329  1  0.16474505  0.58634296  0.89739641  1
  H+  H330  1  0.16655103  0.08014424  0.89883586  1
  H+  H331  1  0.02435071  0.39023578  0.82867512  1
  H+  H332  1  0.41817819  0.31381339  0.90469351  1
  H+  H333  1  0.11154249  0.63863480  0.82568906  1
  H+  H334  1  0.84933126  0.71284927  0.01720599  1
  H+  H335  1  0.88408627  0.92937684  0.75615686  1
  H+  H336  1  0.15997862  0.33024936  0.56706078  1
  H+  H337  1  0.08280775  0.66610524  0.72994940  1
  H+  H338  1  0.58089215  0.41472236  0.77762174  1
  H+  H339  1  0.01486725  0.13045282  0.15965699  1
  H+  H340  1  0.39005486  0.84656921  0.26304049  1
  H+  H341  1  0.06636843  0.15848112  0.06950077  1
  H+  H342  1  0.79744083  0.89008229  0.92101880  1
  H+  H343  1  0.91244407  0.57956725  0.93573442  1
  H+  H344  1  0.64433022  0.57437723  0.60650818  1
  H+  H345  1  0.89179885  0.12129442  0.83105848  1
  H+  H346  1  0.83415895  0.67486986  0.75318518  1
  H+  H347  1  0.83188172  0.15641127  0.10403191  1
  H+  H348  1  0.38663494  0.89952423  0.17275787  1
  H+  H349  1  0.17343089  0.82637091  0.24583610  1
  H+  H350  1  0.31186068  0.14739980  0.43229365  1
  H+  H351  1  0.81550442  0.66138202  0.45215774  1
  H+  H352  1  0.00969018  0.92760298  0.80065769  1
  H+  H353  1  0.85566229  0.16891607  0.43568136  1
  H+  H354  1  0.41024880  0.84327915  0.54368866  1
  H+  H355  1  0.09501145  0.96188737  0.49970493  1
  H+  H356  1  0.72087019  0.57393660  0.87143209  1
  H+  H357  1  0.09286374  0.67371625  0.09743606  1
  H+  H358  1  0.18846909  0.46974716  0.10931532  1
  H+  H359  1  0.58533513  0.94439541  0.42531219  1
  H+  H360  1  0.91819999  0.09312057  0.92754029  1
  H+  H361  1  0.67180533  0.34600953  0.92694652  1
  H+  H362  1  0.32399458  0.65762686  0.07296755  1
  H+  H363  1  0.97385463  0.85634866  0.51324408  1
  H+  H364  1  0.13481550  0.60801994  0.50417972  1
  H+  H365  1  0.65359502  0.57320859  0.93787752  1
  H+  H366  1  0.09158574  0.17346791  0.76506882  1
  H+  H367  1  0.26770324  0.38817878  0.83344587  1
  H+  H368  1  0.86343303  0.63013605  0.66129459  1
  H+  H369  1  0.15798850  0.32806898  0.90101586  1
  H+  H370  1  0.88901969  0.35132278  0.51558215  1
  H+  H371  1  0.42113891  0.60630993  0.93084968  1
  H+  H372  1  0.16606509  0.83034145  0.56764326  1
  H+  H373  1  0.85438202  0.96603661  0.07515128  1
  H+  H374  1  0.17270071  0.35397551  0.26063046  1
  H+  H375  1  0.83922257  0.41710524  0.73185295  1
  H+  H376  1  0.94024541  0.14101632  0.49816937  1
  H+  H377  1  0.59129126  0.17253918  0.76796954  1
  H+  H378  1  0.67243784  0.10294673  0.94464917  1
  H+  H379  1  0.61649445  0.38900303  0.68829044  1
  H+  H380  1  0.34546074  0.16317137  0.72889648  1
  H+  H381  1  0.84515986  0.40658774  0.45193249  1
  H+  H382  1  0.32688102  0.92384588  0.10553946  1
  H+  H383  1  0.91647937  0.08074529  0.24285674  1
  O2-  O384  1  0.07184609  0.16598641  0.14107177  1
  O2-  O385  1  0.05874309  0.15647314  0.49024936  1
  O2-  O386  1  0.09515056  0.17386390  0.81081645  1
  O2-  O387  1  0.12902091  0.44496670  0.12259075  1
  O2-  O388  1  0.08601334  0.41736127  0.47846299  1
  O2-  O389  1  0.08387102  0.41990670  0.81280693  1
  O2-  O390  1  0.08919890  0.66721801  0.14255094  1
  O2-  O391  1  0.07782516  0.65850918  0.48549974  1
  O2-  O392  1  0.08125358  0.66826825  0.80902529  1
  O2-  O393  1  0.08606803  0.90824244  0.16488576  1
  O2-  O394  1  0.06190256  0.90058436  0.48628396  1
  O2-  O395  1  0.06124600  0.92305642  0.80979245  1
  O2-  O396  1  0.32775949  0.22183309  0.13577028  1
  O2-  O397  1  0.30796491  0.14025329  0.47729258  1
  O2-  O398  1  0.34657245  0.16583823  0.80965193  1
  O2-  O399  1  0.30676023  0.37693824  0.13665956  1
  O2-  O400  1  0.32940214  0.41949855  0.48694263  1
  O2-  O401  1  0.32555152  0.41401634  0.81430621  1
  O2-  O402  1  0.32170446  0.64193883  0.16444274  1
  O2-  O403  1  0.33299122  0.67354455  0.46688130  1
  O2-  O404  1  0.32292388  0.66512269  0.80732358  1
  O2-  O405  1  0.34564075  0.94038371  0.14839006  1
  O2-  O406  1  0.30024017  0.89774606  0.45880843  1
  O2-  O407  1  0.34485249  0.93611453  0.80881857  1
  O2-  O408  1  0.57323422  0.16984746  0.14924991  1
  O2-  O409  1  0.55004645  0.15973924  0.49626223  1
  O2-  O410  1  0.58991078  0.17404814  0.81343720  1
  O2-  O411  1  0.59894320  0.41403282  0.15551883  1
  O2-  O412  1  0.56939871  0.41037583  0.48687801  1
  O2-  O413  1  0.57742488  0.40991521  0.82426956  1
  O2-  O414  1  0.57518974  0.66116879  0.15113609  1
  O2-  O415  1  0.57565199  0.65328232  0.47937400  1
  O2-  O416  1  0.62926853  0.67887602  0.82683254  1
  O2-  O417  1  0.57423258  0.91999198  0.15088581  1
  O2-  O418  1  0.58115044  0.95457849  0.46836059  1
  O2-  O419  1  0.55953541  0.93168941  0.78276352  1
  O2-  O420  1  0.82929844  0.15077470  0.14863665  1
  O2-  O421  1  0.86558705  0.17050955  0.48071950  1
  O2-  O422  1  0.84093188  0.17887201  0.80923647  1
  O2-  O423  1  0.83420704  0.39764906  0.13442489  1
  O2-  O424  1  0.83455644  0.40839121  0.49515143  1
  O2-  O425  1  0.83726494  0.41866534  0.81095138  1
  O2-  O426  1  0.84022709  0.65862417  0.15325336  1
  O2-  O427  1  0.81921163  0.65664005  0.49722143  1
  O2-  O428  1  0.82893596  0.66768065  0.79753933  1
  O2-  O429  1  0.82226114  0.89737241  0.18929543  1
  O2-  O430  1  0.82998163  0.91365324  0.49372908  1
  O2-  O431  1  0.90923669  0.93699921  0.79722613  1
  O2-  O432  1  0.16635824  0.11425333  0.17731715  1
  O2-  O433  1  0.15091164  0.06650822  0.52465715  1
  O2-  O434  1  0.17087269  0.08123580  0.85352914  1
  O2-  O435  1  0.15178657  0.32105500  0.18364165  1
  O2-  O436  1  0.15816125  0.32492929  0.52160529  1
  O2-  O437  1  0.16078553  0.33541845  0.85566693  1
  O2-  O438  1  0.16001308  0.57844159  0.18918101  1
  O2-  O439  1  0.16941059  0.58187657  0.51834855  1
  O2-  O440  1  0.16364866  0.58603333  0.85171583  1
  O2-  O441  1  0.15961731  0.82554879  0.20205247  1
  O2-  O442  1  0.15782791  0.82579204  0.52249819  1
  O2-  O443  1  0.16803746  0.83837165  0.84881126  1
  O2-  O444  1  0.39763114  0.10639723  0.14458022  1
  O2-  O445  1  0.38901568  0.08144330  0.45309909  1
  O2-  O446  1  0.43496623  0.10290464  0.84781938  1
  O2-  O447  1  0.44024631  0.34177302  0.19904918  1
  O2-  O448  1  0.41439078  0.34392740  0.52551604  1
  O2-  O449  1  0.42319776  0.31365016  0.85785533  1
  O2-  O450  1  0.39995862  0.54275644  0.18266665  1
  O2-  O451  1  0.41286365  0.59218720  0.51766478  1
  O2-  O452  1  0.41204706  0.59173458  0.84496770  1
  O2-  O453  1  0.41217561  0.85984163  0.19023692  1
  O2-  O454  1  0.40459974  0.84204301  0.49890667  1
  O2-  O455  1  0.39942641  0.82389463  0.84427437  1
  O2-  O456  1  0.66629985  0.08830814  0.18954217  1
  O2-  O457  1  0.70770253  0.10589869  0.51846853  1
  O2-  O458  1  0.68167332  0.11887344  0.86324343  1
  O2-  O459  1  0.67752252  0.33224257  0.18370263  1
  O2-  O460  1  0.65691062  0.33512780  0.53121663  1
  O2-  O461  1  0.67434122  0.33928494  0.85108451  1
  O2-  O462  1  0.67281387  0.58995513  0.19196764  1
  O2-  O463  1  0.65167197  0.57247955  0.53053902  1
  O2-  O464  1  0.66464963  0.56859000  0.86612335  1
  O2-  O465  1  0.64650990  0.82173964  0.20375487  1
  O2-  O466  1  0.66640349  0.81199615  0.51335663  1
  O2-  O467  1  0.73841577  0.84361376  0.85268024  1
  O2-  O468  1  0.90568423  0.06471151  0.19843035  1
  O2-  O469  1  0.97456080  0.11881705  0.52026485  1
  O2-  O470  1  0.92508484  0.09523191  0.84810728  1
  O2-  O471  1  0.91729240  0.31712282  0.19438569  1
  O2-  O472  1  0.92561794  0.32685472  0.52722811  1
  O2-  O473  1  0.91310455  0.33694957  0.85697856  1
  O2-  O474  1  0.92024041  0.56602594  0.16949420  1
  O2-  O475  1  0.91031654  0.57600934  0.52476160  1
  O2-  O476  1  0.91586346  0.58473712  0.85152568  1
  O2-  O477  1  0.92309471  0.81861963  0.20815589  1
  O2-  O478  1  0.91307286  0.82830564  0.53315346  1
  O2-  O479  1  0.93290685  0.79458081  0.88410693  1
  O2-  O480  1  0.16239758  0.09065705  0.30085825  1
  O2-  O481  1  0.17833677  0.12062567  0.64284503  1
  O2-  O482  1  0.15797747  0.07642668  0.98015262  1
  O2-  O483  1  0.19361391  0.38559799  0.29960384  1
  O2-  O484  1  0.15936104  0.33449641  0.64341521  1
  O2-  O485  1  0.15527340  0.32017470  0.97740934  1
  O2-  O486  1  0.15546190  0.57813938  0.30535943  1
  O2-  O487  1  0.15384940  0.57728346  0.63983858  1
  O2-  O488  1  0.16227117  0.58648459  0.97474758  1
  O2-  O489  1  0.18697942  0.83548403  0.32590474  1
  O2-  O490  1  0.17860306  0.83617790  0.64552969  1
  O2-  O491  1  0.15662896  0.83183596  0.97307864  1
  O2-  O492  1  0.42412242  0.08911978  0.31818603  1
  O2-  O493  1  0.42884197  0.08075600  0.63957545  1
  O2-  O494  1  0.40603516  0.06634337  0.98742861  1
  O2-  O495  1  0.42036008  0.32986110  0.31253741  1
  O2-  O496  1  0.40344169  0.32020592  0.63537302  1
  O2-  O497  1  0.41723135  0.31986740  0.97400433  1
  O2-  O498  1  0.39691917  0.54278196  0.30564447  1
  O2-  O499  1  0.44671040  0.67228825  0.63155013  1
  O2-  O500  1  0.41786372  0.61145320  0.97507502  1
  O2-  O501  1  0.36781131  0.83332984  0.30617034  1
  O2-  O502  1  0.42926285  0.84493015  0.62616466  1
  O2-  O503  1  0.39948922  0.83371719  0.99487758  1
  O2-  O504  1  0.67137146  0.08463403  0.31418603  1
  O2-  O505  1  0.67549539  0.09139520  0.64715851  1
  O2-  O506  1  0.67399461  0.09535879  0.98915994  1
  O2-  O507  1  0.65250758  0.31653388  0.30826384  1
  O2-  O508  1  0.66787860  0.33793645  0.65381137  1
  O2-  O509  1  0.66761544  0.35136518  0.97206475  1
  O2-  O510  1  0.67911234  0.61590930  0.31184175  1
  O2-  O511  1  0.64714046  0.57941567  0.65232845  1
  O2-  O512  1  0.65046911  0.57210814  0.98466290  1
  O2-  O513  1  0.68705037  0.82218729  0.32331297  1
  O2-  O514  1  0.67788979  0.83295003  0.65207945  1
  O2-  O515  1  0.64497264  0.82824362  0.98874267  1
  O2-  O516  1  0.92680168  0.09385021  0.31714615  1
  O2-  O517  1  0.92322825  0.08331994  0.64335197  1
  O2-  O518  1  0.90749209  0.08317955  0.97208902  1
  O2-  O519  1  0.91145039  0.32203476  0.31294744  1
  O2-  O520  1  0.91543271  0.32891359  0.64852305  1
  O2-  O521  1  0.89827923  0.32320447  0.97140805  1
  O2-  O522  1  0.94244957  0.57724428  0.29405826  1
  O2-  O523  1  0.91564741  0.58127456  0.64759779  1
  O2-  O524  1  0.91116851  0.57503160  0.98076881  1
  O2-  O525  1  0.92096742  0.83117246  0.33303874  1
  O2-  O526  1  0.92554375  0.85119526  0.64812263  1
  O2-  O527  1  0.90633203  0.82000393  0.99842248  1
  O2-  O528  1  0.06518472  0.15678299  0.02253466  1
  O2-  O529  1  0.08295961  0.16383770  0.36046370  1
  O2-  O530  1  0.08052555  0.17139281  0.68928488  1
  O2-  O531  1  0.07604566  0.41593550  0.00793457  1
  O2-  O532  1  0.07614251  0.41599240  0.35342965  1
  O2-  O533  1  0.08005976  0.41688657  0.68825510  1
  O2-  O534  1  0.07771321  0.66801974  0.01761283  1
  O2-  O535  1  0.07069823  0.69053264  0.36551934  1
  O2-  O536  1  0.08045743  0.66726035  0.68449589  1
  O2-  O537  1  0.07891498  0.91356753  0.03512022  1
  O2-  O538  1  0.10292341  0.92526284  0.32481129  1
  O2-  O539  1  0.10046967  0.91745862  0.68408495  1
  O2-  O540  1  0.32727720  0.16356878  0.02159458  1
  O2-  O541  1  0.32701967  0.16310655  0.34610492  1
  O2-  O542  1  0.34220479  0.16297545  0.68367196  1
  O2-  O543  1  0.32847124  0.38701931  0.01243303  1
  O2-  O544  1  0.29263804  0.36398041  0.37028205  1
  O2-  O545  1  0.29243354  0.34356080  0.70738830  1
  O2-  O546  1  0.32021084  0.66245494  0.02872807  1
  O2-  O547  1  0.32276830  0.64466813  0.33994903  1
  O2-  O548  1  0.30819281  0.69182014  0.69297157  1
  O2-  O549  1  0.30792825  0.90244307  0.02781180  1
  O2-  O550  1  0.27650304  0.88937767  0.34722856  1
  O2-  O551  1  0.34407954  0.91604917  0.68293377  1
  O2-  O552  1  0.55939131  0.14882198  0.02857432  1
  O2-  O553  1  0.58312280  0.16583467  0.36581030  1
  O2-  O554  1  0.59118317  0.16975251  0.69002575  1
  O2-  O555  1  0.57713605  0.40914098  0.00902715  1
  O2-  O556  1  0.57218074  0.39871993  0.37057298  1
  O2-  O557  1  0.58537361  0.41545963  0.70766198  1
  O2-  O558  1  0.57670117  0.66151645  0.02873782  1
  O2-  O559  1  0.55016269  0.64214788  0.35417774  1
  O2-  O560  1  0.59619525  0.68323082  0.70104077  1
  O2-  O561  1  0.57792896  0.93037223  0.02634283  1
  O2-  O562  1  0.59331965  0.90696595  0.33624921  1
  O2-  O563  1  0.59158899  0.91073094  0.66434694  1
  O2-  O564  1  0.83867976  0.17585846  0.01656049  1
  O2-  O565  1  0.83373306  0.16135463  0.35964337  1
  O2-  O566  1  0.83960357  0.16601313  0.68757890  1
  O2-  O567  1  0.83508511  0.40708046  0.01539694  1
  O2-  O568  1  0.83097832  0.42058201  0.34391415  1
  O2-  O569  1  0.83822446  0.41813402  0.68645284  1
  O2-  O570  1  0.81847800  0.65087703  0.02953238  1
  O2-  O571  1  0.81332282  0.66440459  0.37466768  1
  O2-  O572  1  0.83200472  0.66403631  0.66556064  1
  O2-  O573  1  0.81158097  0.90528668  -0.03564656  1
  O2-  O574  1  0.85855088  0.93538516  0.36712737  1
  O2-  O575  1  0.83235220  0.91990126  0.67904482  1
