# generated using pymatgen
data_H2O
_symmetry_space_group_name_H-M   'P 1'
_cell_length_a   17.99212657
_cell_length_b   17.98977652
_cell_length_c   21.99619568
_cell_angle_alpha   89.97079429
_cell_angle_beta   90.01875243
_cell_angle_gamma   120.01108293
_symmetry_Int_Tables_number   1
_chemical_formula_structural   H2O
_chemical_formula_sum   'H384 O192'
_cell_volume   6165.06843503
_cell_formula_units_Z   192
loop_
 _symmetry_equiv_pos_site_id
 _symmetry_equiv_pos_as_xyz
  1  'x, y, z'
loop_
 _atom_type_symbol
 _atom_type_oxidation_number
  H+  1.0
  O2-  -2.0
loop_
 _atom_site_type_symbol
 _atom_site_label
 _atom_site_symmetry_multiplicity
 _atom_site_fract_x
 _atom_site_fract_y
 _atom_site_fract_z
 _atom_site_occupancy
  H+  H0  1  0.87169286  0.89436452  0.68378793  1
  H+  H1  1  0.77842854  0.88479889  0.67145280  1
  H+  H2  1  0.39546580  0.28366195  0.18489108  1
  H+  H3  1  0.86424635  0.88620413  0.48641421  1
  H+  H4  1  0.64460460  0.27848280  1.02406160  1
  H+  H5  1  0.85494160  0.21991497  0.16431934  1
  H+  H6  1  0.26640191  0.13987858  0.33471376  1
  H+  H7  1  0.87286928  0.64075654  0.50130052  1
  H+  H8  1  0.17029918  0.30062257  0.85107305  1
  H+  H9  1  0.33684139  0.18007890  0.75151731  1
  H+  H10  1  0.53087202  0.13968304  0.81719356  1
  H+  H11  1  0.95715723  0.85978269  0.17200248  1
  H+  H12  1  0.59647650  0.38843635  0.49067902  1
  H+  H13  1  0.87609394  0.73326879  0.85100437  1
  H+  H14  1  0.09563689  0.14328554  1.00467860  1
  H+  H15  1  0.22344922  0.35445330  0.19093516  1
  H+  H16  1  0.10765734  0.21556479  0.35232663  1
  H+  H17  1  0.73791417  0.35403936  0.65411631  1
  H+  H18  1  0.24120043  0.38202890  0.51568798  1
  H+  H19  1  0.67401056  0.33143244  0.70728634  1
  H+  H20  1  0.39336782  0.86405321  0.50617123  1
  H+  H21  1  0.40014392  0.78104546  0.65914023  1
  H+  H22  1  0.62505412  0.13368372  0.01081992  1
  H+  H23  1  0.87147158  0.48473351  0.00507910  1
  H+  H24  1  0.22927538  0.37455124  0.01118917  1
  H+  H25  1  0.01347626  0.36726990  0.83119145  1
  H+  H26  1  0.88378462  0.86255205  0.32669216  1
  H+  H27  1  0.36100598  0.13861130  0.69735685  1
  H+  H28  1  0.76619965  0.63836707  0.15647564  1
  H+  H29  1  0.35597078  0.88555521  0.34513428  1
  H+  H30  1  0.26783095  0.63331455  0.33863661  1
  H+  H31  1  0.41334004  0.33145118  0.56245463  1
  H+  H32  1  0.77951279  0.38768348  0.33816799  1
  H+  H33  1  0.64599027  0.35875359  0.79626283  1
  H+  H34  1  0.15997023  0.59135130  0.56656642  1
  H+  H35  1  0.13227792  0.00660684  0.49670467  1
  H+  H36  1  0.88593477  0.61454423  0.32770279  1
  H+  H37  1  0.19625450  0.12302259  0.00482792  1
  H+  H38  1  0.84604978  0.87929688  0.16291179  1
  H+  H39  1  0.39858128  0.27405429  0.66223087  1
  H+  H40  1  0.63880574  0.61918210  0.32921370  1
  H+  H41  1  0.40394987  0.26816489  0.97015553  1
  H+  H42  1  0.87093594  0.47278041  0.49645496  1
  H+  H43  1  0.18214394  0.66244344  0.96658128  1
  H+  H44  1  0.85558544  0.13100324  0.16154597  1
  H+  H45  1  0.37414055  0.63166017  0.98634593  1
  H+  H46  1  0.86269010  0.14128612  0.00777101  1
  H+  H47  1  0.11059832  0.47351139  0.49467632  1
  H+  H48  1  0.35873062  0.23751663  0.83742260  1
  H+  H49  1  0.53514267  0.13051366  0.00559372  1
  H+  H50  1  0.08626285  0.41459882  0.43505096  1
  H+  H51  1  0.92621264  0.59201096  0.92817758  1
  H+  H52  1  0.10473891  0.91865409  0.77781571  1
  H+  H53  1  0.12601156  0.10730125  0.33231803  1
  H+  H54  1  0.62713676  0.39592435  1.02227959  1
  H+  H55  1  0.83297669  0.16745728  0.06981220  1
  H+  H56  1  0.25003406  0.14253444  0.48656343  1
  H+  H57  1  0.68856225  0.82250821  0.84312531  1
  H+  H58  1  -0.01840302  0.37022996  0.00083437  1
  H+  H59  1  0.63803227  0.01850714  0.17913296  1
  H+  H60  1  0.52032843  0.63588341  1.02429674  1
  H+  H61  1  0.85472418  0.72493484  0.15588804  1
  H+  H62  1  0.87879702  0.38893986  0.48847705  1
  H+  H63  1  0.21553458  0.62912817  0.66761904  1
  H+  H64  1  0.59325149  0.13351972  0.26510978  1
  H+  H65  1  0.76269285  0.11344086  0.82305863  1
  H+  H66  1  0.76650107  0.89640178  0.15604783  1
  H+  H67  1  0.90346391  0.37986970  0.84748811  1
  H+  H68  1  0.37386055  0.49634876  0.49544335  1
  H+  H69  1  0.88258777  0.61650918  0.98308849  1
  H+  H70  1  0.13315489  0.60791876  0.32595280  1
  H+  H71  1  0.52271659  0.65326090  0.49069191  1
  H+  H72  1  0.52614723  0.64780685  0.33418828  1
  H+  H73  1  0.08251654  0.72724510  0.69252793  1
  H+  H74  1  0.34621384  0.16238848  -0.09227166  1
  H+  H75  1  0.86051233  0.97694154  0.00394780  1
  H+  H76  1  0.61823348  0.12753737  0.67276142  1
  H+  H77  1  0.97497688  0.60346782  0.54972995  1
  H+  H78  1  0.02275872  0.13121664  0.16433959  1
  H+  H79  1  0.82591611  0.94875337  0.82964620  1
  H+  H80  1  0.55628498  0.12907522  0.54536045  1
  H+  H81  1  0.87474932  0.86246092  0.83533234  1
  H+  H82  1  0.53419824  0.61264908  0.78916272  1
  H+  H83  1  0.34633006  0.38996005  0.03883925  1
  H+  H84  1  0.13919076  1.02767441  0.17276146  1
  H+  H85  1  0.41293134  0.13705243  0.47943419  1
  H+  H86  1  0.87088981  0.49116763  0.67411441  1
  H+  H87  1  0.12913353  -0.00126264  0.65415132  1
  H+  H88  1  0.36082607  0.39473579  0.16961282  1
  H+  H89  1  0.62504692  1.02856188  0.37631303  1
  H+  H90  1  0.15770850  0.37962263  0.84704214  1
  H+  H91  1  0.40584218  0.10070775  0.96338265  1
  H+  H92  1  0.02350225  0.64104212  0.32939220  1
  H+  H93  1  0.32022342  0.67288193  0.10434916  1
  H+  H94  1  0.53055127  0.38393255  0.82973740  1
  H+  H95  1  0.37323883  0.88795580  0.16235285  1
  H+  H96  1  0.60610386  0.39317083  0.87108852  1
  H+  H97  1  0.61455740  -0.02781143  0.83280564  1
  H+  H98  1  0.54707360  0.91823417  0.50580982  1
  H+  H99  1  0.39508526  0.01873082  0.16599142  1
  H+  H100  1  0.87567065  0.39665833  0.01231009  1
  H+  H101  1  0.40220295  0.86278844  0.00359329  1
  H+  H102  1  0.12106223  0.39973005  0.00784970  1
  H+  H103  1  0.53781504  0.88988858  0.67634240  1
  H+  H104  1  0.24114750  0.86390557  0.17662697  1
  H+  H105  1  0.54054149  0.09582306  0.52049944  1
  H+  H106  1  0.64791222  0.85609651  0.66004461  1
  H+  H107  1  -0.01931317  0.88369697  0.72110285  1
  H+  H108  1  0.37539373  0.50630443  0.01328174  1
  H+  H109  1  0.88525900  0.36057299  0.66288385  1
  H+  H110  1  0.63581316  0.78587787  0.31844358  1
  H+  H111  1  0.38132982  0.11071104  0.33627780  1
  H+  H112  1  0.27363083  0.79197568  0.70704981  1
  H+  H113  1  0.13431567  0.87301228  0.64077989  1
  H+  H114  1  0.34511348  0.66962377  0.89646900  1
  H+  H115  1  0.38306485  0.61860576  0.32526498  1
  H+  H116  1  0.13077585  0.61165781  0.50335267  1
  H+  H117  1  0.62499885  0.88563478  0.01402861  1
  H+  H118  1  0.35442627  -0.02534791  0.34744949  1
  H+  H119  1  0.61125817  0.12249365  0.15903547  1
  H+  H120  1  0.14534922  0.74562132  -0.00634193  1
  H+  H121  1  0.09081277  0.47723178  0.16092798  1
  H+  H122  1  0.60724864  0.72692623  0.01853645  1
  H+  H123  1  0.97405501  0.35359326  0.33262582  1
  H+  H124  1  0.37999920  0.53834116  0.66554309  1
  H+  H125  1  0.35176678  -0.03611933  0.54833190  1
  H+  H126  1  0.22147907  0.11276136  0.70403993  1
  H+  H127  1  -0.02150102  0.35205756  0.50027862  1
  H+  H128  1  0.35249101  0.63551694  0.15621055  1
  H+  H129  1  0.85531801  0.72625666  -0.00110438  1
  H+  H130  1  0.97292273  0.88545315  0.83077454  1
  H+  H131  1  0.04481814  0.31601242  0.79012451  1
  H+  H132  1  0.25586857  0.85715122  0.49616991  1
  H+  H133  1  0.53920368  0.39485313  0.00467621  1
  H+  H134  1  0.10506191  1.00153069  0.75460800  1
  H+  H135  1  0.01865160  0.64211960  0.79575908  1
  H+  H136  1  0.39483783  0.50326288  0.83094384  1
  H+  H137  1  0.28309175  0.86365576  0.00469806  1
  H+  H138  1  0.77623284  0.63922650  0.34372767  1
  H+  H139  1  1.01636198  0.88330787  1.00273306  1
  H+  H140  1  0.93969819  0.58901000  0.68224225  1
  H+  H141  1  0.11345059  0.88857416  0.33218668  1
  H+  H142  1  0.42634911  0.16398575  0.50794684  1
  H+  H143  1  0.38522652  0.37488866  0.50914213  1
  H+  H144  1  0.63694164  0.40446116  0.66076748  1
  H+  H145  1  0.14063451  0.77355769  0.32056443  1
  H+  H146  1  0.77669479  0.88849936  0.48978978  1
  H+  H147  1  0.65717422  0.63351180  0.63498737  1
  H+  H148  1  0.42774748  0.59317647  0.11640841  1
  H+  H149  1  0.11131142  0.46774529  0.34012766  1
  H+  H150  1  0.50587670  0.38513916  0.48723975  1
  H+  H151  1  0.13930270  0.26214227  0.18718535  1
  H+  H152  1  0.86292595  0.12707939  0.49976586  1
  H+  H153  1  0.38844541  0.78306550  0.85239285  1
  H+  H154  1  0.56676314  0.64520355  0.62932603  1
  H+  H155  1  0.26276005  0.88170255  0.83207847  1
  H+  H156  1  -0.00213608  0.37000426  0.64983482  1
  H+  H157  1  0.20375035  0.84587266  0.66117862  1
  H+  H158  1  0.63816025  0.26556846  0.31263165  1
  H+  H159  1  0.38715052  0.62792478  0.50689918  1
  H+  H160  1  0.88996424  0.77077014  0.50389555  1
  H+  H161  1  0.73339185  0.36826722  1.02534673  1
  H+  H162  1  0.11494100  0.08302452  0.51551761  1
  H+  H163  1  0.38667025  0.28126280  0.32729022  1
  H+  H164  1  0.90373391  0.82585313  0.23429891  1
  H+  H165  1  0.40967448  0.07826594  0.76803800  1
  H+  H166  1  0.89466850  0.02688552  0.66066604  1
  H+  H167  1  0.64359360  0.63848660  0.18004968  1
  H+  H168  1  0.53910539  0.88976401  0.01885081  1
  H+  H169  1  0.97350249  0.86264887  0.32517793  1
  H+  H170  1  0.37848342  0.77285431  0.32892100  1
  H+  H171  1  0.65378505  1.01758244  0.67665611  1
  H+  H172  1  0.01761326  0.65293671  0.17153778  1
  H+  H173  1  0.73389713  0.11532340  0.99942888  1
  H+  H174  1  0.87818106  0.61938549  0.17273867  1
  H+  H175  1  0.22278193  0.35617540  0.34060267  1
  H+  H176  1  0.88810015  0.35896370  0.33053901  1
  H+  H177  1  0.90302337  0.53806206  0.83209514  1
  H+  H178  1  0.14287781  0.05400065  0.84906410  1
  H+  H179  1  0.14047869  0.77713205  0.17761962  1
  H+  H180  1  0.21472156  0.61753482  0.17487868  1
  H+  H181  1  0.34998991  -0.02723217  0.81997048  1
  H+  H182  1  0.88132561  0.11098191  0.32982764  1
  H+  H183  1  0.86641280  0.49649039  0.16184816  1
  H+  H184  1  0.34939246  0.16318744  0.24987478  1
  H+  H185  1  0.39153430  0.77587482  0.17530449  1
  H+  H186  1  0.74044441  0.25420343  0.46163880  1
  H+  H187  1  0.11790670  0.48729486  0.00321669  1
  H+  H188  1  0.46444053  0.10317797  0.31904564  1
  H+  H189  1  0.88166313  0.86144700  0.99031001  1
  H+  H190  1  0.38450504  0.87000024  0.84676390  1
  H+  H191  1  0.66004428  0.54071319  0.63121885  1
  H+  H192  1  0.64157249  0.60047840  0.82228563  1
  H+  H193  1  0.47923000  0.37811064  0.17458766  1
  H+  H194  1  0.60622786  0.49491548  0.16450903  1
  H+  H195  1  0.88652499  0.02387377  0.17540614  1
  H+  H196  1  0.02154430  0.97407573  0.12704697  1
  H+  H197  1  0.25893514  0.14700358  0.84856605  1
  H+  H198  1  0.36363063  0.96145310  0.00465134  1
  H+  H199  1  0.35461220  0.64520530  0.67703355  1
  H+  H200  1  0.14357965  0.51697309  0.83222399  1
  H+  H201  1  -0.04186534  0.35026364  0.17397663  1
  H+  H202  1  0.71647915  0.11445230  0.36750234  1
  H+  H203  1  0.58496531  0.41776802  0.39391409  1
  H+  H204  1  0.23901816  0.62162958  0.97686189  1
  H+  H205  1  0.11056841  0.97607368  0.33794126  1
  H+  H206  1  0.83191412  0.91744538  0.06348659  1
  H+  H207  1  0.79072777  0.64328336  0.84868231  1
  H+  H208  1  0.14802722  0.37123415  0.51566636  1
  H+  H209  1  0.00558477  0.63351153  0.01222995  1
  H+  H210  1  0.13386256  0.11755462  0.69853605  1
  H+  H211  1  0.63855889  0.10829301  0.84474077  1
  H+  H212  1  0.09997953  0.71837743  0.48744570  1
  H+  H213  1  0.15723218  0.08089556  0.27072714  1
  H+  H214  1  0.14591425  0.11790880  0.17411890  1
  H+  H215  1  0.11231698  0.37861468  0.34477026  1
  H+  H216  1  0.05160177  0.17523530  0.85031467  1
  H+  H217  1  0.73577391  0.61522210  0.98432568  1
  H+  H218  1  0.59006468  0.91130384  0.73905398  1
  H+  H219  1  0.89092247  0.28079954  1.00219746  1
  H+  H220  1  0.66256343  0.27556574  0.16981732  1
  H+  H221  1  0.60854878  0.89819538  0.34403938  1
  H+  H222  1  0.11789776  0.49101356  0.67669532  1
  H+  H223  1  0.86514347  0.72721162  0.34181003  1
  H+  H224  1  0.65007247  0.27198842  0.79723345  1
  H+  H225  1  0.51715380  0.89127175  0.34626949  1
  H+  H226  1  0.36858682  0.39419801  0.34369148  1
  H+  H227  1  0.77922236  0.39053794  0.16157773  1
  H+  H228  1  0.63892281  0.35526941  0.32184679  1
  H+  H229  1  0.02041463  0.87495695  0.48720869  1
  H+  H230  1  0.23251998  0.86520103  0.32758716  1
  H+  H231  1  0.50225306  0.11676818  0.16105478  1
  H+  H232  1  0.62080860  0.80053746  0.16684368  1
  H+  H233  1  0.85788077  0.21990822  0.34857103  1
  H+  H234  1  0.79114575  0.39774287  0.80725632  1
  H+  H235  1  0.90690203  0.31384602  0.23598168  1
  H+  H236  1  0.38395924  0.72835023  0.98467822  1
  H+  H237  1  0.12338730  0.62213146  0.67181510  1
  H+  H238  1  0.12724471  0.76339343  0.82059346  1
  H+  H239  1  0.77301393  0.89080306  0.33465195  1
  H+  H240  1  0.30109376  0.41904300  0.83493977  1
  H+  H241  1  0.96868474  0.11811559  0.99036083  1
  H+  H242  1  0.39714173  0.86518081  0.65908397  1
  H+  H243  1  0.76878025  0.11407323  0.50205362  1
  H+  H244  1  0.52977900  0.39067431  0.33437325  1
  H+  H245  1  0.53183130  0.66290495  0.17147627  1
  H+  H246  1  0.64980355  0.29328350  0.49804705  1
  H+  H247  1  0.82655066  0.64651220  0.68801513  1
  H+  H248  1  0.32121383  0.90495558  0.44159400  1
  H+  H249  1  0.28348745  0.13193538  0.19608079  1
  H+  H250  1  0.90265689  0.62713181  0.84587380  1
  H+  H251  1  0.64772629  0.02308471  1.00327443  1
  H+  H252  1  0.65170523  0.52068922  0.83794531  1
  H+  H253  1  0.65262369  0.76765185  0.65063324  1
  H+  H254  1  0.08011335  0.61480416  0.02852587  1
  H+  H255  1  0.10493757  0.23652191  1.01027733  1
  H+  H256  1  0.88652151  0.26362452  0.50542960  1
  H+  H257  1  0.01756507  0.13020885  0.34370271  1
  H+  H258  1  0.65109547  0.87795983  0.51014466  1
  H+  H259  1  0.14839325  0.37137018  0.66437189  1
  H+  H260  1  0.72196655  0.10998347  0.17345405  1
  H+  H261  1  0.16347355  0.31945885  0.28158150  1
  H+  H262  1  0.28127288  0.40696150  0.67537840  1
  H+  H263  1  0.13302509  0.16025521  0.84422576  1
  H+  H264  1  0.61326693  0.84211852  0.84714011  1
  H+  H265  1  -0.05849437  0.06953010  0.81709612  1
  H+  H266  1  0.18048704  0.34207661  0.60662570  1
  H+  H267  1  0.27407492  0.64797333  0.49485233  1
  H+  H268  1  0.12271365  0.84356829  0.50258267  1
  H+  H269  1  0.38873377  1.03994921  0.65723174  1
  H+  H270  1  0.62190404  0.05661129  0.52427693  1
  H+  H271  1  -0.01694822  0.11450845  0.66053097  1
  H+  H272  1  0.07869882  0.16626992  0.10377365  1
  H+  H273  1  0.40409311  0.38495573  0.83229472  1
  H+  H274  1  0.09986504  -0.02520383  1.00368994  1
  H+  H275  1  0.61596501  0.73757407  0.49032910  1
  H+  H276  1  0.46664995  0.63103597  0.66812870  1
  H+  H277  1  0.72568449  0.85874242  0.99285283  1
  H+  H278  1  0.39931722  0.11155667  0.18573876  1
  H+  H279  1  0.11602051  0.83163291  0.85872537  1
  H+  H280  1  0.30005824  0.12362839  -0.02921127  1
  H+  H281  1  0.89331490  0.02361986  0.50262180  1
  H+  H282  1  0.37789783  0.52137790  0.16476091  1
  H+  H283  1  0.67707656  0.83804074  0.56550170  1
  H+  H284  1  0.43075185  0.84032857  0.56389005  1
  H+  H285  1  0.42047187  0.64006991  0.84958958  1
  H+  H286  1  0.36647428  0.73549164  0.49186464  1
  H+  H287  1  0.88183091  0.74458063  0.69876096  1
  H+  H288  1  0.40467045  0.06175089  0.55987795  1
  H+  H289  1  0.63811822  0.32282180  0.56271791  1
  H+  H290  1  0.58457625  0.68145854  0.39331619  1
  H+  H291  1  0.41987840  0.34543744  0.27008604  1
  H+  H292  1  0.90865822  0.58930776  0.23393715  1
  H+  H293  1  0.67055523  0.59953077  0.23583693  1
  H+  H294  1  0.91303200  0.83573761  0.92994198  1
  H+  H295  1  0.66176849  0.17242090  0.43459226  1
  H+  H296  1  0.06036737  0.92623341  0.09122605  1
  H+  H297  1  0.61774692  0.21674020  0.66818926  1
  H+  H298  1  0.60959262  0.12657075  0.33426787  1
  H+  H299  1  0.38214460  0.11587839  0.82312889  1
  H+  H300  1  0.33639216  0.91048742  0.10257372  1
  H+  H301  1  0.12017855  0.98372588  0.58460704  1
  H+  H302  1  0.68852097  0.33332875  0.23040736  1
  H+  H303  1  0.84332722  0.42306531  0.39602640  1
  H+  H304  1  0.64336122  0.51748339  -0.01402906  1
  H+  H305  1  0.82433848  0.66556917  0.05881904  1
  H+  H306  1  0.05631283  0.13306160  0.45266674  1
  H+  H307  1  0.07215835  0.67749962  0.11067303  1
  H+  H308  1  0.41304057  0.83580004  0.27173046  1
  H+  H309  1  0.58424788  0.15716414  0.09785579  1
  H+  H310  1  0.47752093  0.11141141  0.68371097  1
  H+  H311  1  0.68866486  0.37840309  0.91626070  1
  H+  H312  1  0.18072286  0.83701590  0.24517288  1
  H+  H313  1  0.52167252  0.88933169  0.83082923  1
  H+  H314  1  0.83147195  0.91633465  0.39501101  1
  H+  H315  1  0.18120020  0.78663629  0.92835103  1
  H+  H316  1  0.31933242  0.42157116  0.11353757  1
  H+  H317  1  0.09079246  0.18870076  0.74397677  1
  H+  H318  1  0.33420815  0.23743927  0.48541087  1
  H+  H319  1  0.63904805  0.52927526  0.32728354  1
  H+  H320  1  0.18153141  0.35111049  0.94595205  1
  H+  H321  1  0.41251412  0.58933945  0.26620637  1
  H+  H322  1  0.36353167  0.48017996  0.34023286  1
  H+  H323  1  0.48880685  0.35909962  0.65072222  1
  H+  H324  1  0.66115789  0.85321406  0.26353990  1
  H+  H325  1  0.16373491  0.57595306  0.89008785  1
  H+  H326  1  0.66505001  0.58795721  0.56157899  1
  H+  H327  1  0.83333906  0.15972331  0.40814788  1
  H+  H328  1  0.80685953  0.32188298  0.71011043  1
  H+  H329  1  0.58253746  0.43633061  0.10585751  1
  H+  H330  1  0.93333346  0.33215162  0.59110341  1
  H+  H331  1  0.28117638  0.63440912  0.84189481  1
  H+  H332  1  0.80932648  0.89808554  0.76772837  1
  H+  H333  1  0.12380707  0.23774292  0.68052003  1
  H+  H334  1  0.41782504  0.60259799  0.56785631  1
  H+  H335  1  0.69219384  0.33975922  0.90743753  1
  H+  H336  1  0.06906748  0.42282011  0.10066879  1
  H+  H337  1  0.59290155  0.63206892  0.72992149  1
  H+  H338  1  0.92778585  0.34735732  0.90851399  1
  H+  H339  1  0.88339675  0.02314760  0.32659362  1
  H+  H340  1  0.32104931  0.17835851  0.39363850  1
  H+  H341  1  0.61706092  0.61111143  0.49152988  1
  H+  H342  1  0.86820135  0.42614872  0.76416989  1
  H+  H343  1  1.00381336  0.89327719  0.65287698  1
  H+  H344  1  0.59211607  0.15615401  0.76179943  1
  H+  H345  1  0.51777967  0.67397404  0.86514680  1
  H+  H346  1  0.01290715  0.63207057  0.46782542  1
  H+  H347  1  0.86739302  0.09402205  0.82544082  1
  H+  H348  1  0.08573237  0.42141260  0.73124683  1
  H+  H349  1  0.91531768  0.08379829  0.23491931  1
  H+  H350  1  0.32888012  0.66716832  0.39769911  1
  H+  H351  1  0.79756815  0.12596561  0.75552218  1
  H+  H352  1  0.14555326  0.80960532  0.56438334  1
  H+  H353  1  0.58663338  0.68923629  0.11048135  1
  H+  H354  1  0.29311142  0.15051277  0.07268058  1
  H+  H355  1  0.92660611  0.08216549  0.56314508  1
  H+  H356  1  0.43625799  0.84880565  0.94061267  1
  H+  H357  1  0.44589118  0.05484126  0.92617273  1
  H+  H358  1  0.67192799  0.58024797  0.91910626  1
  H+  H359  1  0.91583230  0.83701263  0.55940116  1
  H+  H360  1  0.12848292  0.62235647  0.17867621  1
  H+  H361  1  0.33059306  0.67816050  0.73683160  1
  H+  H362  1  0.61024492  0.51508650  0.49189819  1
  H+  H363  1  0.08530922  0.67080200  0.38736307  1
  H+  H364  1  0.34555771  0.44391705  0.73243735  1
  H+  H365  1  0.07895938  0.90032015  0.42677145  1
  H+  H366  1  0.34247486  0.43310812  0.43729557  1
  H+  H367  1  0.88742882  0.52532417  0.32438396  1
  H+  H368  1  0.39239515  0.34813100  0.98412391  1
  H+  H369  1  0.30909494  0.87928274  0.74068266  1
  H+  H370  1  0.16141707  0.57791593  0.26775002  1
  H+  H371  1  0.90851970  0.08147513  0.93091141  1
  H+  H372  1  0.66793158  0.07936587  0.90557961  1
  H+  H373  1  0.16061093  0.09917700  0.93314030  1
  H+  H374  1  0.60521605  0.90439855  0.10949261  1
  H+  H375  1  0.84736530  0.66830165  0.43826179  1
  H+  H376  1  0.42802546  0.56441875  0.95180480  1
  H+  H377  1  0.27601334  0.18111021  0.07516081  1
  H+  H378  1  0.43085123  0.34888006  0.88993588  1
  H+  H379  1  0.89228640  0.56210186  0.58755827  1
  H+  H380  1  0.65474391  0.82098495  0.93844095  1
  H+  H381  1  0.84572684  0.43601210  0.09772268  1
  H+  H382  1  0.48581876  0.85733937  0.17858740  1
  H+  H383  1  0.61033278  0.45059022  0.71014684  1
  O2-  O384  1  0.08290567  0.15789278  0.14811887  1
  O2-  O385  1  0.06210446  0.12850908  0.49713644  1
  O2-  O386  1  0.10596306  0.19665026  0.82877570  1
  O2-  O387  1  0.05698517  0.41859988  0.14465703  1
  O2-  O388  1  0.08357913  0.41330429  0.48067878  1
  O2-  O389  1  0.06604523  0.37366444  0.80637578  1
  O2-  O390  1  0.07845572  0.68314294  0.15597370  1
  O2-  O391  1  0.07537972  0.66012348  0.46591851  1
  O2-  O392  1  0.07636935  0.67575157  0.77383085  1
  O2-  O393  1  0.04829098  0.93924234  0.13465866  1
  O2-  O394  1  0.08015933  0.89616231  0.47208983  1
  O2-  O395  1  0.07381911  0.94986194  0.78268987  1
  O2-  O396  1  0.34663424  0.16094290  0.20528814  1
  O2-  O397  1  0.29780302  0.18505612  0.46108982  1
  O2-  O398  1  0.32812784  0.17347137  0.83848913  1
  O2-  O399  1  0.32728992  0.42385894  0.16001217  1
  O2-  O400  1  0.34407108  0.43513504  0.48269444  1
  O2-  O401  1  0.35967666  0.44392634  0.81629029  1
  O2-  O402  1  0.32385781  0.67083838  0.14852945  1
  O2-  O403  1  0.33290940  0.67479179  0.47710425  1
  O2-  O404  1  0.34431070  0.67277102  0.85078072  1
  O2-  O405  1  0.33894675  0.91500237  0.14827709  1
  O2-  O406  1  0.31804719  0.89226066  0.48603056  1
  O2-  O407  1  0.32211764  0.90903086  0.81560143  1
  O2-  O408  1  0.58063581  0.15506728  0.14429149  1
  O2-  O409  1  0.67825748  0.21926561  0.46453190  1
  O2-  O410  1  0.59241589  0.16421095  0.80712352  1
  O2-  O411  1  0.57423409  0.43446993  0.15015531  1
  O2-  O412  1  0.56693009  0.41729861  0.47136929  1
  O2-  O413  1  0.59478524  0.40662084  0.83023239  1
  O2-  O414  1  0.59122204  0.69938659  0.15709067  1
  O2-  O415  1  0.58116939  0.67875208  0.47224725  1
  O2-  O416  1  0.57938516  0.60448076  0.77147385  1
  O2-  O417  1  0.59965228  0.90080433  0.15586513  1
  O2-  O418  1  0.60915719  0.94952144  0.49370572  1
  O2-  O419  1  0.58184150  0.91202750  0.81662705  1
  O2-  O420  1  0.82326934  0.15869677  0.14609940  1
  O2-  O421  1  0.82703088  0.15341803  0.48663399  1
  O2-  O422  1  0.81574909  0.13183140  0.79889892  1
  O2-  O423  1  0.84165510  0.43603007  0.14434167  1
  O2-  O424  1  0.85305057  0.42191736  0.47075235  1
  O2-  O425  1  0.85485198  0.43173721  0.80707701  1
  O2-  O426  1  0.82588589  0.66498397  0.13911929  1
  O2-  O427  1  0.85246675  0.67720322  0.48296829  1
  O2-  O428  1  0.85032193  0.67257056  0.86382616  1
  O2-  O429  1  0.82659023  0.91729635  0.14386271  1
  O2-  O430  1  0.83555539  0.91784785  0.47153884  1
  O2-  O431  1  0.80173927  0.88983682  0.81338985  1
  O2-  O432  1  0.17400333  0.08589806  0.19066081  1
  O2-  O433  1  0.15237859  0.05593985  0.52483421  1
  O2-  O434  1  0.17505062  0.11114494  0.86729972  1
  O2-  O435  1  0.16641982  0.31716659  0.20942955  1
  O2-  O436  1  0.18436304  0.35189025  0.53592483  1
  O2-  O437  1  0.19801344  0.36233672  0.86410023  1
  O2-  O438  1  0.15552247  0.58828084  0.19136213  1
  O2-  O439  1  0.16530130  0.58851256  0.52188292  1
  O2-  O440  1  0.17438465  0.57652036  0.84571379  1
  O2-  O441  1  0.18120798  0.83750772  0.19470534  1
  O2-  O442  1  0.14812042  0.80829552  0.51904259  1
  O2-  O443  1  0.15534135  0.81005368  0.85184313  1
  O2-  O444  1  0.43256355  0.08055576  0.17853375  1
  O2-  O445  1  0.37427949  0.00720532  0.58143620  1
  O2-  O446  1  0.41115773  0.08238192  0.81368024  1
  O2-  O447  1  0.41836427  0.34543730  0.19200858  1
  O2-  O448  1  0.40956706  0.33654616  0.51726242  1
  O2-  O449  1  0.42841905  0.34718400  0.84475916  1
  O2-  O450  1  0.41080335  0.58777469  0.15919185  1
  O2-  O451  1  0.42153106  0.60221105  0.52283626  1
  O2-  O452  1  0.46242297  0.62065268  0.85920742  1
  O2-  O453  1  0.42500166  0.83663312  0.18927590  1
  O2-  O454  1  0.43224403  0.84185516  0.51857880  1
  O2-  O455  1  0.41976746  0.84558732  0.86266849  1
  O2-  O456  1  0.65978257  0.08007616  0.18640226  1
  O2-  O457  1  0.65163847  0.02481609  0.53403830  1
  O2-  O458  1  0.66460972  0.07461903  0.86031616  1
  O2-  O459  1  0.69680856  0.33450871  0.18520982  1
  O2-  O460  1  0.64517491  0.33885601  0.52004504  1
  O2-  O461  1  0.68056286  0.33287150  0.78205950  1
  O2-  O462  1  0.66905725  0.60217427  0.19028895  1
  O2-  O463  1  0.64468200  0.57751470  0.50520851  1
  O2-  O464  1  0.67351520  0.58102187  0.85058682  1
  O2-  O465  1  0.65311175  0.86477548  0.17754814  1
  O2-  O466  1  0.67416624  0.83930956  0.51963334  1
  O2-  O467  1  0.63195110  0.80188026  0.86292820  1
  O2-  O468  1  0.91836895  0.08457461  0.18914300  1
  O2-  O469  1  0.91983399  0.08377603  0.51776591  1
  O2-  O470  1  0.90064167  0.06780110  0.84687197  1
  O2-  O471  1  0.89995914  0.31094626  0.19124620  1
  O2-  O472  1  0.91844688  0.32572439  0.51644237  1
  O2-  O473  1  0.93362184  0.35060816  0.86343728  1
  O2-  O474  1  0.91134331  0.59152854  0.18797607  1
  O2-  O475  1  0.91304019  0.57603856  0.54401522  1
  O2-  O476  1  0.93946351  0.59839465  0.84623806  1
  O2-  O477  1  0.89796762  0.82441162  0.18866408  1
  O2-  O478  1  0.91800471  0.83476182  0.51527140  1
  O2-  O479  1  0.91817349  0.84738966  0.85113277  1
  O2-  O480  1  0.15834270  0.07851753  0.31583049  1
  O2-  O481  1  0.15738445  0.07742523  0.70514269  1
  O2-  O482  1  0.14561747  0.08766227  0.98015144  1
  O2-  O483  1  0.16176081  0.32335673  0.32773528  1
  O2-  O484  1  0.17834637  0.33968055  0.65324217  1
  O2-  O485  1  0.16989457  0.34388478  0.99033649  1
  O2-  O486  1  0.16390186  0.57732952  0.31328806  1
  O2-  O487  1  0.15578337  0.59772478  0.65186397  1
  O2-  O488  1  0.17747094  0.60529958  0.97026593  1
  O2-  O489  1  0.17385016  0.83530911  0.30592424  1
  O2-  O490  1  0.14501265  0.82352671  0.64453791  1
  O2-  O491  1  0.19839435  0.77534859  0.96853723  1
  O2-  O492  1  0.40089985  0.07186512  0.32003691  1
  O2-  O493  1  0.41432439  0.08121933  0.69156819  1
  O2-  O494  1  0.43339911  0.06438740  0.96770421  1
  O2-  O495  1  0.42094746  0.34330125  0.31555193  1
  O2-  O496  1  0.42887125  0.32620274  0.63714542  1
  O2-  O497  1  0.43352958  0.33239155  0.96887372  1
  O2-  O498  1  0.41604244  0.59028809  0.31044404  1
  O2-  O499  1  0.40904681  0.60241498  0.65038968  1
  O2-  O500  1  0.41663067  0.56995403  0.99466476  1
  O2-  O501  1  0.40710102  0.83462587  0.31656980  1
  O2-  O502  1  0.43260789  0.84115797  0.64413925  1
  O2-  O503  1  0.43739235  0.83962861  0.98548540  1
  O2-  O504  1  0.65512094  0.09319097  0.37839835  1
  O2-  O505  1  0.67663666  0.08009693  0.66447857  1
  O2-  O506  1  0.67227475  0.08165900  0.98519922  1
  O2-  O507  1  0.67288126  0.32901379  0.30688057  1
  O2-  O508  1  0.67579959  0.33253761  0.66130564  1
  O2-  O509  1  0.67049197  0.34077147  1.03121649  1
  O2-  O510  1  0.67089395  0.59089456  0.31411991  1
  O2-  O511  1  0.68525835  0.59813229  0.61163107  1
  O2-  O512  1  0.67421452  0.57847937  0.96655360  1
  O2-  O513  1  0.66680086  0.84823234  0.30775484  1
  O2-  O514  1  0.68098218  0.83228955  0.64031759  1
  O2-  O515  1  0.66284708  0.82818463  0.98377161  1
  O2-  O516  1  0.91326194  0.08391154  0.31182023  1
  O2-  O517  1  0.92771432  0.08224665  0.63921950  1
  O2-  O518  1  0.90784029  0.08269357  0.97594183  1
  O2-  O519  1  0.91282928  0.32216713  0.31908262  1
  O2-  O520  1  0.93721817  0.33414344  0.63662369  1
  O2-  O521  1  0.92009724  0.34163151  0.98755497  1
  O2-  O522  1  0.91682210  0.58640267  0.30905788  1
  O2-  O523  1  0.88451031  0.54938277  0.66254392  1
  O2-  O524  1  0.91692007  0.58835654  0.97321937  1
  O2-  O525  1  0.91237874  0.83028240  0.31137902  1
  O2-  O526  1  0.95323895  0.86491577  0.68103064  1
  O2-  O527  1  0.90967135  0.82893188  0.97515591  1
  O2-  O528  1  0.06843671  0.17482228  0.02269974  1
  O2-  O529  1  0.07580483  0.15281883  0.36171718  1
  O2-  O530  1  0.09086718  0.17910276  0.69974918  1
  O2-  O531  1  0.08722253  0.42855539  0.01922758  1
  O2-  O532  1  0.08075678  0.40912441  0.35794750  1
  O2-  O533  1  0.09490203  0.42938529  0.68674068  1
  O2-  O534  1  0.06238501  0.65761330  0.03473026  1
  O2-  O535  1  0.08566688  0.67215297  0.34199028  1
  O2-  O536  1  0.05589712  0.66677543  0.70820303  1
  O2-  O537  1  0.07435645  0.91661585  0.02162396  1
  O2-  O538  1  0.08000939  0.91330860  0.34969962  1
  O2-  O539  1  0.10658447  0.95061617  0.62393720  1
  O2-  O540  1  0.35708767  0.15992954  -0.04664318  1
  O2-  O541  1  0.32800958  0.17297740  0.34763886  1
  O2-  O542  1  0.33166563  0.17194008  0.70706335  1
  O2-  O543  1  0.32031842  0.42581686  0.04162039  1
  O2-  O544  1  0.33634003  0.42247067  0.35908757  1
  O2-  O545  1  0.34166736  0.44904352  0.68806363  1
  O2-  O546  1  0.34641540  0.66636838  -0.02596123  1
  O2-  O547  1  0.32940316  0.66606894  0.35222552  1
  O2-  O548  1  0.32557081  0.67771394  0.69259276  1
  O2-  O549  1  0.33751644  0.90522955  0.02589368  1
  O2-  O550  1  0.32227020  0.91216338  0.36090842  1
  O2-  O551  1  0.29687475  0.85296791  0.69902513  1
  O2-  O552  1  0.59179776  0.16176248  0.02597524  1
  O2-  O553  1  0.58257270  0.15051284  0.30482169  1
  O2-  O554  1  0.58632768  0.15770265  0.68517021  1
  O2-  O555  1  0.59797308  0.43253341  0.02012396  1
  O2-  O556  1  0.59076189  0.41935495  0.34848269  1
  O2-  O557  1  0.60812104  0.43912825  0.66670259  1
  O2-  O558  1  0.57832977  0.67233108  0.04211081  1
  O2-  O559  1  0.58701203  0.67960961  0.34783193  1
  O2-  O560  1  0.61276367  0.66962258  0.65925167  1
  O2-  O561  1  0.59913041  0.91770561  0.03477577  1
  O2-  O562  1  0.57574847  0.92239067  0.36332088  1
  O2-  O563  1  0.59661611  0.91478652  0.69364593  1
  O2-  O564  1  0.83455923  0.17290888  0.02402441  1
  O2-  O565  1  0.82744014  0.15875269  0.36284061  1
  O2-  O566  1  0.76083599  0.12886045  0.68168485  1
  O2-  O567  1  0.84686692  0.42922726  0.02754402  1
  O2-  O568  1  0.84098217  0.42241953  0.35014884  1
  O2-  O569  1  0.84066062  0.37486552  0.68708089  1
  O2-  O570  1  0.82442764  0.66456408  0.01321098  1
  O2-  O571  1  0.83744515  0.66675050  0.35713500  1
  O2-  O572  1  0.84714687  0.68973334  0.71998385  1
  O2-  O573  1  0.83211421  0.91598055  0.01813332  1
  O2-  O574  1  0.83344413  0.91664973  0.34923516  1
  O2-  O575  1  0.83380762  0.91770323  0.69476348  1
