# generated using pymatgen
data_H2O
_symmetry_space_group_name_H-M   'P 1'
_cell_length_a   17.98523223
_cell_length_b   17.98361879
_cell_length_c   21.99267314
_cell_angle_alpha   89.99069670
_cell_angle_beta   90.02467635
_cell_angle_gamma   120.00551430
_symmetry_Int_Tables_number   1
_chemical_formula_structural   H2O
_chemical_formula_sum   'H384 O192'
_cell_volume   6159.95604904
_cell_formula_units_Z   192
loop_
 _symmetry_equiv_pos_site_id
 _symmetry_equiv_pos_as_xyz
  1  'x, y, z'
loop_
 _atom_type_symbol
 _atom_type_oxidation_number
  H+  1.0
  O2-  -2.0
loop_
 _atom_site_type_symbol
 _atom_site_label
 _atom_site_symmetry_multiplicity
 _atom_site_fract_x
 _atom_site_fract_y
 _atom_site_fract_z
 _atom_site_occupancy
  H+  H0  1  0.88464441  0.77166403  0.50953778  1
  H+  H1  1  0.63866489  0.61800482  0.66425928  1
  H+  H2  1  0.83505080  0.42211099  0.06880711  1
  H+  H3  1  0.57662370  0.18131992  0.72616603  1
  H+  H4  1  0.72806024  0.60910947  0.17214969  1
  H+  H5  1  0.74686836  0.11345804  0.85202987  1
  H+  H6  1  0.37986137  1.02954173  0.49904598  1
  H+  H7  1  0.13203014  0.60674086  0.31864792  1
  H+  H8  1  0.34567107  -0.04160904  0.33966083  1
  H+  H9  1  0.98056401  0.36633296  0.66840545  1
  H+  H10  1  0.75493361  0.87529667  0.32421595  1
  H+  H11  1  0.87329202  0.64097293  0.17101506  1
  H+  H12  1  0.26949045  0.40130721  0.67969254  1
  H+  H13  1  0.97294350  0.23230890  0.77285791  1
  H+  H14  1  0.93170459  0.61215705  0.99494413  1
  H+  H15  1  0.24740060  0.38274605  0.97969333  1
  H+  H16  1  0.12121935  0.85324865  0.33877708  1
  H+  H17  1  0.26766258  0.88349586  0.49805801  1
  H+  H18  1  0.61187921  -0.02584363  0.15774647  1
  H+  H19  1  0.39197010  0.52904197  0.65585185  1
  H+  H20  1  0.14526648  0.84131862  1.01394038  1
  H+  H21  1  0.38523313  0.62030077  0.16980827  1
  H+  H22  1  0.61006870  0.36345358  0.16632593  1
  H+  H23  1  0.87297759  0.93731949  0.00050467  1
  H+  H24  1  0.12205133  0.85734080  0.85295823  1
  H+  H25  1  0.88005492  0.70904181  0.00785848  1
  H+  H26  1  0.87699457  0.51206514  0.82230913  1
  H+  H27  1  0.87240384  0.60582988  0.82712679  1
  H+  H28  1  0.85821632  0.97049986  0.32829008  1
  H+  H29  1  1.05067542  0.06781505  0.11378319  1
  H+  H30  1  0.57376796  0.14417524  0.44014823  1
  H+  H31  1  0.10369553  0.96984250  0.34739833  1
  H+  H32  1  0.13821832  0.09287778  0.18155829  1
  H+  H33  1  0.63805521  0.77414299  0.17079359  1
  H+  H34  1  0.88707356  0.61061360  0.66533680  1
  H+  H35  1  0.38649175  0.76463481  0.51015890  1
  H+  H36  1  0.21828761  0.34684977  0.51976467  1
  H+  H37  1  0.60822561  -0.05585794  0.35307114  1
  H+  H38  1  0.62355492  0.84596277  0.49945023  1
  H+  H39  1  0.37918737  0.85648824  0.33061118  1
  H+  H40  1  0.61520804  0.64185030  0.33076885  1
  H+  H41  1  0.07666558  0.42729384  0.10968052  1
  H+  H42  1  0.55973139  0.90338981  0.42513195  1
  H+  H43  1  0.39758357  0.62202522  0.98952019  1
  H+  H44  1  0.43237107  0.34224947  0.62934320  1
  H+  H45  1  0.62951861  0.59882233  0.83348933  1
  H+  H46  1  0.24131044  0.13272844  0.81041107  1
  H+  H47  1  0.40287318  0.05399528  0.26165088  1
  H+  H48  1  0.52185433  0.63337104  0.83314233  1
  H+  H49  1  0.63369306  0.74791504  1.01021988  1
  H+  H50  1  0.77313788  0.86749686  0.00330368  1
  H+  H51  1  0.45686195  0.13968208  0.83474836  1
  H+  H52  1  0.47623244  0.59047570  0.49933429  1
  H+  H53  1  0.15148428  0.25378425  -0.00335641  1
  H+  H54  1  0.15853297  0.68573850  0.38664954  1
  H+  H55  1  0.64447077  0.53082754  0.51578454  1
  H+  H56  1  0.11793570  0.24135484  0.69350495  1
  H+  H57  1  0.31326861  0.16570253  0.73337497  1
  H+  H58  1  0.34743233  0.38726816  0.66624717  1
  H+  H59  1  0.12029612  0.73583356  0.34926099  1
  H+  H60  1  0.88535176  0.75738769  0.84128464  1
  H+  H61  1  0.11564944  0.48823497  0.69004991  1
  H+  H62  1  0.36205343  0.99068198  0.00984173  1
  H+  H63  1  0.78177971  0.41017719  0.33514981  1
  H+  H64  1  0.58499620  0.65703687  0.42953503  1
  H+  H65  1  0.13819476  0.54168846  0.84136685  1
  H+  H66  1  0.88908224  0.52207688  0.66253428  1
  H+  H67  1  0.87780071  0.36587695  0.33678522  1
  H+  H68  1  0.87783988  0.77127715  0.33672076  1
  H+  H69  1  0.74070076  0.86017301  0.67150415  1
  H+  H70  1  0.67098025  0.59140246  0.60397838  1
  H+  H71  1  0.54964515  0.40423711  0.68181067  1
  H+  H72  1  0.26245103  0.80145685  0.80187089  1
  H+  H73  1  0.13914404  0.61404873  0.67036655  1
  H+  H74  1  0.74218254  0.08905506  0.34630943  1
  H+  H75  1  0.67200355  1.00533186  0.85203759  1
  H+  H76  1  0.51287674  0.13565622  0.49481827  1
  H+  H77  1  0.63394554  0.27214252  0.49987621  1
  H+  H78  1  0.02644726  0.12989004  0.34503626  1
  H+  H79  1  0.40770105  0.84882428  0.69794102  1
  H+  H80  1  0.48835401  0.63001724  -0.00209779  1
  H+  H81  1  0.35484405  0.63082390  0.33594004  1
  H+  H82  1  0.13376299  0.37160806  0.67424116  1
  H+  H83  1  0.88952037  0.10577671  0.32082438  1
  H+  H84  1  0.61678730  0.10366679  0.51540468  1
  H+  H85  1  0.57919939  0.14624637  0.82059629  1
  H+  H86  1  0.12738725  0.62689831  0.16582080  1
  H+  H87  1  0.87998878  0.52242749  0.51076194  1
  H+  H88  1  0.11178965  0.88663110  0.49998590  1
  H+  H89  1  0.87307788  0.35884981  0.00460631  1
  H+  H90  1  0.35523958  0.71966356  0.33746945  1
  H+  H91  1  0.49352643  0.87618450  0.84352536  1
  H+  H92  1  0.13221159  0.35163131  0.51515777  1
  H+  H93  1  0.87780716  0.27772721  0.51374551  1
  H+  H94  1  0.21994403  0.09924387  0.65857956  1
  H+  H95  1  0.59820457  0.22926622  0.15062175  1
  H+  H96  1  0.60778566  0.50791431  0.98706083  1
  H+  H97  1  0.53761409  0.88403624  0.68282943  1
  H+  H98  1  0.80210269  0.61315332  0.01049188  1
  H+  H99  1  0.84305615  0.22673311  0.02625487  1
  H+  H100  1  0.88888714  0.12652115  0.17592574  1
  H+  H101  1  0.35859656  0.13015569  0.33240813  1
  H+  H102  1  0.29444438  0.39625797  0.15972264  1
  H+  H103  1  0.11150191  0.88033775  0.67946675  1
  H+  H104  1  1.03138653  0.05192015  0.82879420  1
  H+  H105  1  0.99917949  0.63047662  0.17714337  1
  H+  H106  1  0.41127671  0.58272991  0.26513609  1
  H+  H107  1  0.86549270  0.38303419  0.66783287  1
  H+  H108  1  0.10681049  0.21381070  0.50425316  1
  H+  H109  1  0.27346357  0.14065619  1.01656790  1
  H+  H110  1  0.86140791  0.98018881  0.15557931  1
  H+  H111  1  0.35544528  0.88190185  0.49838908  1
  H+  H112  1  0.13116190  0.29581133  0.81370384  1
  H+  H113  1  0.72929993  0.11454405  0.66016925  1
  H+  H114  1  -0.02890182  0.60998336  0.83028906  1
  H+  H115  1  0.38760768  0.52430686  0.32539317  1
  H+  H116  1  0.37119407  0.91950214  0.65189118  1
  H+  H117  1  0.14012474  0.79115430  0.15931536  1
  H+  H118  1  0.67280691  0.83709442  0.25916761  1
  H+  H119  1  0.78712935  0.88527733  0.83019413  1
  H+  H120  1  0.87535790  0.85649142  0.18409933  1
  H+  H121  1  0.92314952  0.34436998  0.56733423  1
  H+  H122  1  0.85677169  0.89009365  0.51354801  1
  H+  H123  1  0.14163332  0.26432694  0.33641951  1
  H+  H124  1  0.48089174  0.86361442  0.17783851  1
  H+  H125  1  0.27655931  0.63590542  0.67111858  1
  H+  H126  1  0.50890680  0.37210823  0.33678410  1
  H+  H127  1  0.86568899  0.72430482  0.67540308  1
  H+  H128  1  0.11386795  0.12790069  0.34517484  1
  H+  H129  1  0.97397743  0.86092561  0.51140365  1
  H+  H130  1  0.52344323  0.64043950  0.66729295  1
  H+  H131  1  0.87061925  0.39522488  0.81521716  1
  H+  H132  1  0.33159934  0.13283869  0.81981469  1
  H+  H133  1  0.32218524  0.17102678  0.42666162  1
  H+  H134  1  0.14251303  0.11841885  0.98212956  1
  H+  H135  1  0.84824808  0.24808744  0.81569911  1
  H+  H136  1  0.11722590  0.94804148  0.16504858  1
  H+  H137  1  0.59544308  0.97195317  0.49932114  1
  H+  H138  1  0.36373190  0.73106655  0.99856428  1
  H+  H139  1  0.48327568  0.34268062  0.85043432  1
  H+  H140  1  0.94384352  0.19058017  0.78842173  1
  H+  H141  1  0.27895191  0.37997851  0.34549913  1
  H+  H142  1  0.89516059  0.02219296  0.66540654  1
  H+  H143  1  0.87561192  0.11305013  0.48684955  1
  H+  H144  1  0.24999622  0.81490921  0.77302268  1
  H+  H145  1  0.56131268  0.20914421  0.32953457  1
  H+  H146  1  0.60630208  0.71623086  0.48818739  1
  H+  H147  1  0.12905741  1.05806152  0.76800328  1
  H+  H148  1  0.57213801  0.06525730  0.87832044  1
  H+  H149  1  0.87363793  0.22887693  0.35391988  1
  H+  H150  1  0.65711002  0.78003556  0.85340205  1
  H+  H151  1  0.45134311  0.61389586  0.86714346  1
  H+  H152  1  0.75031619  0.13538148  0.50898878  1
  H+  H153  1  0.87107806  0.13221024  0.66576749  1
  H+  H154  1  0.53061522  0.38523429  0.01191674  1
  H+  H155  1  0.34711604  0.10059723  0.16707322  1
  H+  H156  1  0.11451653  0.96553423  0.00171283  1
  H+  H157  1  0.11291890  0.47710226  0.32405846  1
  H+  H158  1  0.60217517  0.87509337  1.00743545  1
  H+  H159  1  0.72040677  0.10461523  1.00838268  1
  H+  H160  1  0.98442674  0.10048794  0.81103543  1
  H+  H161  1  0.88401399  0.83018630  0.99862976  1
  H+  H162  1  0.77459895  0.63740823  0.67456550  1
  H+  H163  1  0.67770493  0.33847562  0.93170562  1
  H+  H164  1  0.12529480  0.10307403  0.51648014  1
  H+  H165  1  0.98788992  0.38077520  0.80244075  1
  H+  H166  1  0.37645961  0.63435104  0.48967709  1
  H+  H167  1  0.12865300  1.01318881  0.51178755  1
  H+  H168  1  0.85103302  0.97038720  0.48916730  1
  H+  H169  1  0.02948266  0.87397638  0.00533100  1
  H+  H170  1  0.12470373  0.15503406  0.79040923  1
  H+  H171  1  0.38677752  0.26587833  0.84739037  1
  H+  H172  1  0.85680186  0.14815012  0.03830876  1
  H+  H173  1  0.37962239  0.48927598  1.00207129  1
  H+  H174  1  0.57466662  0.05211353  0.84621532  1
  H+  H175  1  0.35852031  0.72930590  0.15817588  1
  H+  H176  1  0.85980592  0.87439447  0.67088609  1
  H+  H177  1  0.93172948  0.07898273  1.05484928  1
  H+  H178  1  0.38768131  0.88030199  0.99339526  1
  H+  H179  1  0.64212936  0.38242333  0.31538124  1
  H+  H180  1  0.86382229  0.39202457  0.49269315  1
  H+  H181  1  0.36031979  0.22000063  0.32761397  1
  H+  H182  1  0.71352135  0.85126211  0.50997731  1
  H+  H183  1  0.39765023  1.00954585  0.80894358  1
  H+  H184  1  0.77855648  0.39052027  0.00669263  1
  H+  H185  1  0.89690610  0.27382574  0.65711026  1
  H+  H186  1  0.07936007  0.66996549  0.73651280  1
  H+  H187  1  0.27720095  0.66115163  0.82301075  1
  H+  H188  1  0.64929816  0.37070064  0.65323953  1
  H+  H189  1  0.72194792  0.12343933  0.18271768  1
  H+  H190  1  0.11796985  0.60173624  0.52079456  1
  H+  H191  1  0.58456065  0.47719496  0.17971900  1
  H+  H192  1  0.98529987  0.62027151  0.32927645  1
  H+  H193  1  0.33902908  0.67351340  1.05759942  1
  H+  H194  1  0.40164011  0.55756929  0.85350130  1
  H+  H195  1  0.64421794  0.27790925  0.98997788  1
  H+  H196  1  0.39398535  0.36518037  0.99962149  1
  H+  H197  1  0.71287789  0.91916126  0.98047052  1
  H+  H198  1  0.14112523  0.77547304  0.66764240  1
  H+  H199  1  0.73037389  0.36572006  0.83407095  1
  H+  H200  1  0.77512935  0.38227761  0.66324147  1
  H+  H201  1  0.39290210  0.61740585  0.65357700  1
  H+  H202  1  0.88372160  0.84532611  0.84133851  1
  H+  H203  1  0.91590977  0.82744735  0.60234814  1
  H+  H204  1  0.26464966  0.13970246  0.48720479  1
  H+  H205  1  0.61884159  0.39656288  0.49609082  1
  H+  H206  1  0.15528299  0.38304070  0.17950207  1
  H+  H207  1  0.85599483  0.87655527  0.33569851  1
  H+  H208  1  0.92053036  0.09460033  0.98554639  1
  H+  H209  1  0.76808570  0.62763933  0.82711399  1
  H+  H210  1  0.36454192  0.45002769  0.49965910  1
  H+  H211  1  0.39365393  0.76403993  0.66860310  1
  H+  H212  1  0.73218844  0.61448582  0.33097439  1
  H+  H213  1  0.61839087  0.47655497  0.83186833  1
  H+  H214  1  0.47222837  0.09040112  0.16191521  1
  H+  H215  1  0.28261890  0.89578045  0.02279386  1
  H+  H216  1  0.42741841  0.34851442  0.26095266  1
  H+  H217  1  0.62319017  0.39595324  0.00050415  1
  H+  H218  1  0.60876276  0.24596189  0.82109499  1
  H+  H219  1  0.97157549  0.37778767  0.18008143  1
  H+  H220  1  0.37583635  0.48889512  0.15711068  1
  H+  H221  1  0.63404696  0.88541016  0.83502482  1
  H+  H222  1  0.88828801  0.96019857  0.81915480  1
  H+  H223  1  0.50221847  0.87050970  0.34943355  1
  H+  H224  1  0.87482990  0.49292552  0.33958286  1
  H+  H225  1  0.50432572  0.87866805  0.50222568  1
  H+  H226  1  0.13007622  0.77239217  0.51446572  1
  H+  H227  1  0.12942627  1.00342622  0.66051752  1
  H+  H228  1  1.00893992  0.37371285  0.98589290  1
  H+  H229  1  0.61619107  0.64027654  0.16370950  1
  H+  H230  1  0.11008284  0.40230582  0.79174073  1
  H+  H231  1  0.12325520  0.51566957  0.51751514  1
  H+  H232  1  0.05191458  0.60269344  -0.02644547  1
  H+  H233  1  0.36199649  0.22920707  0.02231922  1
  H+  H234  1  0.88438269  0.15949572  0.39747416  1
  H+  H235  1  0.77279730  0.64055651  0.49812822  1
  H+  H236  1  0.10017942  0.97082009  0.82477221  1
  H+  H237  1  0.63701354  0.76702138  0.67114416  1
  H+  H238  1  0.61052918  0.14670957  0.15027402  1
  H+  H239  1  0.76659405  0.39989967  0.15425736  1
  H+  H240  1  0.64652413  0.86562171  0.67250129  1
  H+  H241  1  0.54808059  0.33583547  0.38323961  1
  H+  H242  1  0.72475686  0.36160057  0.49955375  1
  H+  H243  1  0.85297382  0.39582478  0.16375378  1
  H+  H244  1  0.61571747  0.88620215  0.15954236  1
  H+  H245  1  0.96669245  0.36616348  0.33327349  1
  H+  H246  1  0.21074497  0.85480541  0.33272482  1
  H+  H247  1  0.10880914  0.49130915  0.16382270  1
  H+  H248  1  0.85819888  0.23942448  0.17874631  1
  H+  H249  1  0.48027779  0.13681708  0.66424713  1
  H+  H250  1  0.45652174  0.07668545  0.32275210  1
  H+  H251  1  0.61098412  0.23214464  0.66287461  1
  H+  H252  1  0.47643193  0.62317759  0.17290331  1
  H+  H253  1  0.86802059  0.63868762  0.34291874  1
  H+  H254  1  0.63290882  1.01192151  -0.00020683  1
  H+  H255  1  0.09921365  0.63678521  0.82957031  1
  H+  H256  1  0.38600182  0.04203869  0.65957811  1
  H+  H257  1  0.05938801  0.17591712  0.01006782  1
  H+  H258  1  0.15463405  0.37419207  0.97431979  1
  H+  H259  1  1.01194816  0.88330183  0.34905134  1
  H+  H260  1  0.07551615  0.39045582  0.28892915  1
  H+  H261  1  0.63995082  0.61708939  0.51034242  1
  H+  H262  1  0.33432042  0.21838956  0.66748443  1
  H+  H263  1  0.57050785  0.19440283  0.29958442  1
  H+  H264  1  0.38598222  0.36389473  0.32157478  1
  H+  H265  1  0.02631518  0.63988699  0.67480911  1
  H+  H266  1  0.26829230  0.64291957  0.15234486  1
  H+  H267  1  0.22227683  0.60898334  0.32173973  1
  H+  H268  1  0.61835113  0.65177023  1.00652542  1
  H+  H269  1  0.64153896  0.77755641  0.31998815  1
  H+  H270  1  0.62321668  0.97663209  0.67930623  1
  H+  H271  1  0.14570939  0.35512353  0.33780919  1
  H+  H272  1  0.59116374  0.67502525  0.10456984  1
  H+  H273  1  0.63926151  0.11459885  0.66591100  1
  H+  H274  1  0.64072455  0.52925222  0.32892766  1
  H+  H275  1  -0.02595428  0.85758314  0.66337986  1
  H+  H276  1  0.42315784  0.85556968  0.89493336  1
  H+  H277  1  0.01109482  0.63712072  0.50567815  1
  H+  H278  1  0.22061739  0.10378070  0.33072788  1
  H+  H279  1  0.91370405  0.51799309  0.99227908  1
  H+  H280  1  0.64365081  0.37118246  0.83989298  1
  H+  H281  1  0.87702384  0.76844008  0.18446074  1
  H+  H282  1  0.59474025  0.07014877  0.35180604  1
  H+  H283  1  0.65610010  0.30469892  0.30748053  1
  H+  H284  1  0.09077094  0.72134256  0.83570637  1
  H+  H285  1  0.85963612  0.63666384  0.49848213  1
  H+  H286  1  0.22782940  0.86928068  0.66504146  1
  H+  H287  1  0.01604583  0.87630209  0.83272889  1
  H+  H288  1  0.15609498  0.57366449  0.61065327  1
  H+  H289  1  0.83123033  0.41437345  0.75543356  1
  H+  H290  1  0.32603762  0.15206786  0.11931095  1
  H+  H291  1  0.10034049  0.16380904  0.09507293  1
  H+  H292  1  0.32245625  0.90453314  0.40237361  1
  H+  H293  1  0.40062049  0.09529559  0.89366934  1
  H+  H294  1  0.35907529  0.31999513  0.58412134  1
  H+  H295  1  0.66858022  0.33476862  0.59127427  1
  H+  H296  1  0.91388100  0.12916745  0.90439550  1
  H+  H297  1  0.84082997  0.16719926  0.72125376  1
  H+  H298  1  0.07895539  0.91572817  0.44067677  1
  H+  H299  1  0.83244543  0.90101727  0.73368312  1
  H+  H300  1  0.54850794  0.53886665  0.95590341  1
  H+  H301  1  0.97460966  0.11842040  0.16553272  1
  H+  H302  1  0.34478478  0.42816850  0.06044476  1
  H+  H303  1  0.63474448  0.49342732  0.67525318  1
  H+  H304  1  0.82146096  0.17685717  0.12146269  1
  H+  H305  1  0.90427365  0.82762461  0.27497053  1
  H+  H306  1  0.72718776  0.86525994  0.16808031  1
  H+  H307  1  0.95969256  0.36086959  0.87028549  1
  H+  H308  1  0.07223970  0.66694050  0.44743898  1
  H+  H309  1  0.59776164  0.42193914  0.77100928  1
  H+  H310  1  0.33574960  0.66947916  0.73041826  1
  H+  H311  1  0.69922542  0.03903291  0.28640876  1
  H+  H312  1  0.47077455  0.87090578  -0.00906206  1
  H+  H313  1  0.60641797  0.13357277  1.00008033  1
  H+  H314  1  0.91602490  0.81028638  0.93601896  1
  H+  H315  1  0.90947706  0.58020810  0.57208473  1
  H+  H316  1  0.14831943  0.60035464  0.89965605  1
  H+  H317  1  0.20313119  0.84534588  0.85367063  1
  H+  H318  1  0.52587015  0.64160877  0.33367422  1
  H+  H319  1  0.90027289  0.54166425  0.17960566  1
  H+  H320  1  0.69500560  0.06619054  0.92037912  1
  H+  H321  1  0.07314116  0.66741918  0.10982118  1
  H+  H322  1  0.42200908  0.31997893  0.94824279  1
  H+  H323  1  0.86904191  0.30169181  0.94790110  1
  H+  H324  1  0.16818357  0.59449107  0.22022639  1
  H+  H325  1  0.96356777  0.11536345  0.47435092  1
  H+  H326  1  0.15942549  0.07695834  0.92447734  1
  H+  H327  1  0.58714027  0.43661201  0.44503912  1
  H+  H328  1  0.65967655  0.34717383  0.21730081  1
  H+  H329  1  0.68777034  0.84624748  0.91304416  1
  H+  H330  1  0.36608717  0.94935295  0.72103727  1
  H+  H331  1  0.92010870  0.07988738  0.26092310  1
  H+  H332  1  0.15805147  0.06623808  0.58964333  1
  H+  H333  1  0.80521533  0.17449164  0.44959373  1
  H+  H334  1  0.83552187  0.91105235  0.10060597  1
  H+  H335  1  0.37203954  0.44954977  0.75794069  1
  H+  H336  1  0.47007095  0.12298000  -0.01463875  1
  H+  H337  1  0.82737536  0.65904057  0.76545828  1
  H+  H338  1  0.08850761  0.16010488  0.44212415  1
  H+  H339  1  0.14835373  0.67328067  -0.01233327  1
  H+  H340  1  0.01833660  0.37665641  0.49439734  1
  H+  H341  1  0.07893358  0.90903640  0.73864680  1
  H+  H342  1  0.88288513  0.08195146  0.90988262  1
  H+  H343  1  0.38270660  0.11976810  0.49623894  1
  H+  H344  1  0.18409353  0.34644697  0.23447216  1
  H+  H345  1  0.41972924  0.56897896  0.55936152  1
  H+  H346  1  0.15823673  0.06800235  0.27341571  1
  H+  H347  1  0.10769798  0.52575469  1.00945099  1
  H+  H348  1  0.65424040  0.57668742  0.89773573  1
  H+  H349  1  0.57605526  0.90698307  0.06773224  1
  H+  H350  1  0.75838397  0.20875976  0.78330738  1
  H+  H351  1  0.40183876  0.87813184  0.18191388  1
  H+  H352  1  0.16222083  0.35642381  0.87187841  1
  H+  H353  1  0.40865788  0.82181830  0.57167516  1
  H+  H354  1  0.98088881  0.11092728  0.67671582  1
  H+  H355  1  0.63868507  0.09015164  0.22586166  1
  H+  H356  1  0.38207834  0.12315209  0.99563888  1
  H+  H357  1  0.15827035  0.33574249  0.61451248  1
  H+  H358  1  0.49881189  0.55362311  0.79484209  1
  H+  H359  1  0.64856939  0.07123399  0.57365589  1
  H+  H360  1  0.43860082  0.40641088  0.14571530  1
  H+  H361  1  0.84466081  0.66247011  0.10853588  1
  H+  H362  1  0.09284178  0.90200986  0.10082701  1
  H+  H363  1  0.22543479  0.09056725  0.18618257  1
  H+  H364  1  0.57800881  0.16821292  0.05698415  1
  H+  H365  1  0.17252676  0.81960326  0.95336659  1
  H+  H366  1  0.93101997  0.59600301  0.26645836  1
  H+  H367  1  0.37930735  0.13313348  0.66808336  1
  H+  H368  1  0.41957796  0.83544794  0.27117458  1
  H+  H369  1  0.34349159  0.66746616  0.43449514  1
  H+  H370  1  0.16471736  0.83497772  0.57193145  1
  H+  H371  1  0.08361476  0.40725134  0.43869480  1
  H+  H372  1  0.57219194  0.65644951  0.73126751  1
  H+  H373  1  0.36711094  0.74699691  0.82014074  1
  H+  H374  1  0.41243233  0.92784106  0.80903039  1
  H+  H375  1  0.91049509  0.34711391  0.23942488  1
  H+  H376  1  0.36677253  0.96396927  0.11138993  1
  H+  H377  1  0.51072026  0.01213830  0.38825090  1
  H+  H378  1  0.67327320  0.58984579  0.23267595  1
  H+  H379  1  0.83527499  0.42519618  0.43357471  1
  H+  H380  1  0.60934959  0.92434552  0.77636253  1
  H+  H381  1  0.34222322  0.40655490  0.40187012  1
  H+  H382  1  0.34619959  0.28798747  0.48808830  1
  H+  H383  1  0.83270732  0.66229056  0.40343594  1
  O2-  O384  1  0.06930340  0.12504795  0.12998695  1
  O2-  O385  1  0.07968499  0.15442176  0.48717185  1
  O2-  O386  1  0.10589729  0.19870933  0.77605835  1
  O2-  O387  1  0.07634164  0.42697455  0.15451874  1
  O2-  O388  1  0.08072881  0.40382302  0.48298550  1
  O2-  O389  1  0.08325770  0.43696677  0.77328553  1
  O2-  O390  1  0.07987954  0.66914986  0.15388483  1
  O2-  O391  1  0.07306466  0.66783269  0.49251335  1
  O2-  O392  1  0.06411898  0.66355152  0.81529084  1
  O2-  O393  1  0.08600097  0.89087292  0.14542027  1
  O2-  O394  1  0.08160204  0.91805868  0.48663684  1
  O2-  O395  1  0.07705483  0.90754987  0.81759761  1
  O2-  O396  1  0.32233694  0.13837649  0.16322292  1
  O2-  O397  1  0.32264348  0.17999779  0.47154991  1
  O2-  O398  1  0.30533752  0.16487274  0.80094592  1
  O2-  O399  1  0.35344143  0.42892843  0.14205671  1
  O2-  O400  1  0.32621270  0.38797238  0.48530954  1
  O2-  O401  1  0.40440749  0.46782586  0.79718740  1
  O2-  O402  1  0.33102227  0.67044805  0.14139727  1
  O2-  O403  1  0.35862130  0.67624558  0.47819443  1
  O2-  O404  1  0.33379539  0.68825681  0.80315288  1
  O2-  O405  1  0.38848926  0.96567092  0.15404742  1
  O2-  O406  1  0.32738716  0.91273656  0.48105639  1
  O2-  O407  1  0.40678636  0.96986831  0.78236307  1
  O2-  O408  1  0.57311471  0.16881033  0.13555403  1
  O2-  O409  1  0.57608844  0.16085607  0.48316214  1
  O2-  O410  1  0.56716904  0.18842798  0.80151942  1
  O2-  O411  1  0.54099378  0.41509084  0.18708602  1
  O2-  O412  1  0.59285847  0.43343017  0.48911044  1
  O2-  O413  1  0.59119283  0.41622105  0.81585133  1
  O2-  O414  1  0.58700916  0.67239291  0.14998470  1
  O2-  O415  1  0.58064691  0.65388919  0.47452361  1
  O2-  O416  1  0.55031367  0.61344911  0.80220253  1
  O2-  O417  1  0.58217468  0.91360545  0.14405379  1
  O2-  O418  1  0.56386250  0.91132844  0.48249157  1
  O2-  O419  1  0.61110286  0.92443258  0.82180708  1
  O2-  O420  1  0.82677493  0.17681172  0.16686901  1
  O2-  O421  1  0.81046025  0.17280784  0.49393221  1
  O2-  O422  1  0.79729770  0.19276269  0.80246948  1
  O2-  O423  1  0.82845770  0.42867344  0.14397231  1
  O2-  O424  1  0.83107390  0.42042932  0.47898016  1
  O2-  O425  1  0.83315159  0.41843318  0.80163105  1
  O2-  O426  1  0.83591853  0.66282447  0.15301714  1
  O2-  O427  1  0.83255820  0.66874797  0.48086278  1
  O2-  O428  1  0.82885358  0.65517105  0.81137816  1
  O2-  O429  1  0.83102228  0.91816991  0.14513754  1
  O2-  O430  1  0.82112637  0.91775097  0.51354199  1
  O2-  O431  1  0.84132518  0.89995808  0.80808076  1
  O2-  O432  1  0.16289644  0.06039743  0.20018558  1
  O2-  O433  1  0.15805177  0.07354227  0.53068153  1
  O2-  O434  1  0.13537807  0.07770716  0.80998144  1
  O2-  O435  1  0.18941918  0.35578848  0.19023311  1
  O2-  O436  1  0.15839584  0.32015833  0.53494782  1
  O2-  O437  1  0.13277685  0.34652585  0.83245730  1
  O2-  O438  1  0.16352089  0.59432883  0.17558344  1
  O2-  O439  1  0.14522446  0.57083673  0.53890877  1
  O2-  O440  1  0.16010402  0.60087497  0.85502213  1
  O2-  O441  1  0.18490879  0.85380465  0.15627416  1
  O2-  O442  1  0.16386028  0.83463915  0.52658906  1
  O2-  O443  1  0.14458463  0.81979258  0.86912274  1
  O2-  O444  1  0.41381150  0.05057794  0.17962798  1
  O2-  O445  1  0.41339321  0.09069788  0.51115170  1
  O2-  O446  1  0.39851137  0.09592296  0.84799969  1
  O2-  O447  1  0.48393238  0.39223078  0.13403152  1
  O2-  O448  1  0.37057643  0.34427367  0.51032570  1
  O2-  O449  1  0.43478088  0.30037087  0.87509900  1
  O2-  O450  1  0.41575435  0.59113938  0.18720440  1
  O2-  O451  1  0.41572409  0.55677417  0.51488906  1
  O2-  O452  1  0.34876464  0.49163493  0.83223388  1
  O2-  O453  1  0.42208988  0.83882805  0.19562439  1
  O2-  O454  1  0.40916905  0.82551114  0.52707449  1
  O2-  O455  1  0.43221119  0.85730049  0.84961259  1
  O2-  O456  1  0.65710287  0.08693473  0.18475501  1
  O2-  O457  1  0.64529597  0.06998851  0.52819841  1
  O2-  O458  1  0.71707740  0.05921593  0.87736563  1
  O2-  O459  1  0.64798262  0.33877303  0.17293238  1
  O2-  O460  1  0.66420473  0.33258702  0.51498021  1
  O2-  O461  1  0.67191808  0.33666313  0.85231924  1
  O2-  O462  1  0.66758976  0.58438718  0.18769098  1
  O2-  O463  1  0.67357442  0.59258470  0.53004858  1
  O2-  O464  1  0.66805541  0.58030658  0.85292168  1
  O2-  O465  1  0.66705117  0.83629051  0.18439543  1
  O2-  O466  1  0.64980261  0.81222650  0.51210035  1
  O2-  O467  1  0.68598470  0.84110184  0.86302794  1
  O2-  O468  1  0.91574515  0.09005691  0.18279223  1
  O2-  O469  1  0.90470637  0.09381839  0.45820413  1
  O2-  O470  1  0.97477103  0.04957398  0.83376711  1
  O2-  O471  1  0.90988424  0.34614262  0.19429041  1
  O2-  O472  1  0.91736267  0.34019446  0.52213992  1
  O2-  O473  1  0.93470848  0.35171246  0.82965577  1
  O2-  O474  1  0.93261336  0.59989231  0.19691325  1
  O2-  O475  1  0.90851862  0.58265724  0.52656217  1
  O2-  O476  1  0.90528076  0.57386065  0.83907870  1
  O2-  O477  1  0.89834967  0.82432500  0.20561355  1
  O2-  O478  1  0.91455043  0.83045776  0.52817329  1
  O2-  O479  1  0.91501112  0.81670297  0.85849806  1
  O2-  O480  1  0.15867918  0.07303470  0.31951806  1
  O2-  O481  1  0.15993732  0.06321224  0.64112552  1
  O2-  O482  1  0.16155422  0.07747829  0.96887004  1
  O2-  O483  1  0.17596831  0.32580145  0.32282372  1
  O2-  O484  1  0.16344538  0.34090705  0.65975487  1
  O2-  O485  1  0.18838286  0.34726472  0.96175929  1
  O2-  O486  1  0.16231637  0.57669515  0.30448237  1
  O2-  O487  1  0.16494010  0.57903807  0.65676699  1
  O2-  O488  1  0.09724380  0.47100615  1.02930674  1
  O2-  O489  1  0.14858615  0.82048135  0.32352905  1
  O2-  O490  1  0.16698228  0.83609051  0.65204238  1
  O2-  O491  1  0.18019547  0.81734018  0.99752941  1
  O2-  O492  1  0.39913758  0.05961884  0.30641530  1
  O2-  O493  1  0.41596159  0.10698065  0.65192208  1
  O2-  O494  1  0.40874963  0.09369252  0.97290708  1
  O2-  O495  1  0.41610164  0.33368323  0.30410134  1
  O2-  O496  1  0.36999502  0.31442351  0.62854454  1
  O2-  O497  1  0.42022758  0.32813783  0.99320789  1
  O2-  O498  1  0.41368754  0.58435915  0.31084387  1
  O2-  O499  1  0.42512513  0.58882772  0.63906652  1
  O2-  O500  1  0.43187042  0.59365234  0.97866966  1
  O2-  O501  1  0.41602407  0.83170998  0.31715057  1
  O2-  O502  1  0.42800104  0.82984514  0.66329503  1
  O2-  O503  1  0.41337500  0.84915861  0.97225524  1
  O2-  O504  1  0.68538334  0.04786570  0.32773226  1
  O2-  O505  1  0.66594085  0.08097992  0.65163802  1
  O2-  O506  1  0.66744266  0.07205026  0.98264896  1
  O2-  O507  1  0.68195594  0.36538849  0.29629268  1
  O2-  O508  1  0.67142255  0.33366760  0.63713283  1
  O2-  O509  1  0.67882425  0.33915008  0.97703648  1
  O2-  O510  1  0.67221550  0.58787671  0.31335426  1
  O2-  O511  1  0.67127187  0.58961733  0.65023584  1
  O2-  O512  1  0.60891207  0.56063439  0.96587606  1
  O2-  O513  1  0.67628399  0.83849698  0.30508281  1
  O2-  O514  1  0.67382558  0.83073931  0.65886381  1
  O2-  O515  1  0.69157792  0.85776790  0.97569135  1
  O2-  O516  1  0.91682640  0.07324962  0.30625107  1
  O2-  O517  1  0.92550639  0.08372438  0.65481164  1
  O2-  O518  1  0.93779060  0.12247211  1.02551074  1
  O2-  O519  1  0.90451953  0.33080879  0.32363382  1
  O2-  O520  1  0.92417913  0.33639433  0.64719121  1
  O2-  O521  1  0.89401779  0.31789331  0.98842054  1
  O2-  O522  1  0.92642555  0.59224806  0.31375214  1
  O2-  O523  1  0.92005777  0.58347959  0.64943985  1
  O2-  O524  1  0.95274580  0.57633515  0.97608054  1
  O2-  O525  1  0.90599700  0.83191725  0.32188668  1
  O2-  O526  1  0.91365865  0.82636324  0.64853674  1
  O2-  O527  1  0.91967667  0.80719411  0.98133216  1
  O2-  O528  1  0.12036349  0.19442782  0.01600602  1
  O2-  O529  1  0.08552318  0.16017473  0.36172197  1
  O2-  O530  1  0.09141981  0.18154616  0.71048066  1
  O2-  O531  1  0.07168640  0.41044140  -0.02180506  1
  O2-  O532  1  0.08023181  0.41212705  0.33035245  1
  O2-  O533  1  0.08249462  0.42568157  0.70632444  1
  O2-  O534  1  0.11368412  0.61480978  -0.02833358  1
  O2-  O535  1  0.10497118  0.67510747  0.36770757  1
  O2-  O536  1  0.08616792  0.67157648  0.69142120  1
  O2-  O537  1  0.08960974  0.90778269  0.02002019  1
  O2-  O538  1  0.07188633  0.91066937  0.36525802  1
  O2-  O539  1  0.08073103  0.91145347  0.69293518  1
  O2-  O540  1  0.33090809  0.16685396  0.03511703  1
  O2-  O541  1  0.33150403  0.16298778  0.34778550  1
  O2-  O542  1  0.31627790  0.16097379  0.68578771  1
  O2-  O543  1  0.34609557  0.42735135  0.01510405  1
  O2-  O544  1  0.34142278  0.41224188  0.35703693  1
  O2-  O545  1  0.33309279  0.42844480  0.68547749  1
  O2-  O546  1  0.34274878  0.67184239  0.01269759  1
  O2-  O547  1  0.32244683  0.65897957  0.35143632  1
  O2-  O548  1  0.33803894  0.66601146  0.68440088  1
  O2-  O549  1  0.34438564  0.93666723  0.03294498  1
  O2-  O550  1  0.32139281  0.89941109  0.35696004  1
  O2-  O551  1  0.34326137  0.94386761  0.67641710  1
  O2-  O552  1  0.58107761  0.16918963  0.01150269  1
  O2-  O553  1  0.54452072  0.06927575  0.37067309  1
  O2-  O554  1  0.57575217  0.17281779  0.68085518  1
  O2-  O555  1  0.59358169  0.42599289  0.01597545  1
  O2-  O556  1  0.56435567  0.38745410  0.35921476  1
  O2-  O557  1  0.61072019  0.43212213  0.69088350  1
  O2-  O558  1  0.60092372  0.68963835  0.02759703  1
  O2-  O559  1  0.58746997  0.67432383  0.34600512  1
  O2-  O560  1  0.58268048  0.67020251  0.68675537  1
  O2-  O561  1  0.57644276  0.90951124  0.02191244  1
  O2-  O562  1  0.55955807  0.89396081  0.37331820  1
  O2-  O563  1  0.59906360  0.91716242  0.69619038  1
  O2-  O564  1  0.81454096  0.16756275  0.04500896  1
  O2-  O565  1  0.84808941  0.16713685  0.36677277  1
  O2-  O566  1  0.83929332  0.16436784  0.67664414  1
  O2-  O567  1  0.83852377  0.41613965  0.02340891  1
  O2-  O568  1  0.83860684  0.43192588  0.35499617  1
  O2-  O569  1  0.83392772  0.41278280  0.68191552  1
  O2-  O570  1  0.85902392  0.65096753  0.02716840  1
  O2-  O571  1  0.83217825  0.66323555  0.35778402  1
  O2-  O572  1  0.83452835  0.66359587  0.69113497  1
  O2-  O573  1  0.83335948  0.88576016  0.02288908  1
  O2-  O574  1  0.82287395  0.90953863  0.34330585  1
  O2-  O575  1  0.82776546  0.90267268  0.68787409  1
