# generated using pymatgen
data_H2O
_symmetry_space_group_name_H-M   'P 1'
_cell_length_a   17.99430631
_cell_length_b   17.99573063
_cell_length_c   22.01774550
_cell_angle_alpha   89.99382298
_cell_angle_beta   89.98751208
_cell_angle_gamma   119.99424838
_symmetry_Int_Tables_number   1
_chemical_formula_structural   H2O
_chemical_formula_sum   'H384 O192'
_cell_volume   6174.94673330
_cell_formula_units_Z   192
loop_
 _symmetry_equiv_pos_site_id
 _symmetry_equiv_pos_as_xyz
  1  'x, y, z'
loop_
 _atom_type_symbol
 _atom_type_oxidation_number
  H+  1.0
  O2-  -2.0
loop_
 _atom_site_type_symbol
 _atom_site_label
 _atom_site_symmetry_multiplicity
 _atom_site_fract_x
 _atom_site_fract_y
 _atom_site_fract_z
 _atom_site_occupancy
  H+  H0  1  0.13331133  0.35552273  0.32199698  1
  H+  H1  1  0.84919227  0.97728922  0.16252698  1
  H+  H2  1  0.82378191  0.68513724  0.41103922  1
  H+  H3  1  0.47887962  0.37277427  0.83012081  1
  H+  H4  1  0.37031939  0.97725516  0.49379145  1
  H+  H5  1  0.38233154  0.37014632  0.67079504  1
  H+  H6  1  0.10793516  0.71991087  0.33680788  1
  H+  H7  1  0.10589674  0.70929013  0.48501627  1
  H+  H8  1  0.87132670  0.86274940  0.49452448  1
  H+  H9  1  0.38328588  0.90651252  0.67006704  1
  H+  H10  1  0.11918890  0.63670899  0.33509307  1
  H+  H11  1  0.86890044  -0.03002745  0.82732969  1
  H+  H12  1  0.86469967  0.85826323  0.00609801  1
  H+  H13  1  0.85993869  0.62471109  0.48795944  1
  H+  H14  1  0.88259523  0.36234377  0.84436019  1
  H+  H15  1  0.86299269  -0.01782335  0.33146051  1
  H+  H16  1  0.02996524  0.11863638  0.68681838  1
  H+  H17  1  0.69241485  0.10309181  0.84082609  1
  H+  H18  1  0.82349979  0.91937679  0.07206947  1
  H+  H19  1  0.88013675  0.52181888  0.50181566  1
  H+  H20  1  0.13048753  0.10395687  0.85246260  1
  H+  H21  1  0.60912116  0.25862395  0.99690845  1
  H+  H22  1  -0.02670641  0.34756080  0.16181771  1
  H+  H23  1  0.63353467  0.76335783  0.50408846  1
  H+  H24  1  0.88264106  0.77336162  0.87483617  1
  H+  H25  1  0.29116380  0.39866952  0.48776564  1
  H+  H26  1  0.35132268  0.63514081  0.00862077  1
  H+  H27  1  0.61706733  0.64390044  0.33727347  1
  H+  H28  1  0.90159907  0.88333026  0.33137797  1
  H+  H29  1  0.63986847  0.61963235  0.83382773  1
  H+  H30  1  0.62476421  0.73030446  0.82005633  1
  H+  H31  1  0.37674730  0.52008175  1.00966902  1
  H+  H32  1  0.13129658  0.69868622  0.11428213  1
  H+  H33  1  1.02929658  0.38918302  0.83363555  1
  H+  H34  1  0.32589822  0.67081066  0.06627156  1
  H+  H35  1  0.38985288  0.27277410  0.17712856  1
  H+  H36  1  0.36179203  0.39351944  0.33563156  1
  H+  H37  1  1.00191294  0.83740420  0.52130471  1
  H+  H38  1  0.39421391  0.15919036  0.67701652  1
  H+  H39  1  0.62616337  0.13325124  0.14854427  1
  H+  H40  1  0.02379364  0.39802320  0.00134067  1
  H+  H41  1  0.65298998  0.11829714  0.49049508  1
  H+  H42  1  0.86841590  0.76965941  0.00316312  1
  H+  H43  1  0.48322327  0.10557599  0.17385010  1
  H+  H44  1  0.39891495  0.53030167  0.84481269  1
  H+  H45  1  0.28461987  0.90603389  0.33992619  1
  H+  H46  1  0.51145576  0.63088266  0.67439449  1
  H+  H47  1  0.86139646  0.37444297  0.16978953  1
  H+  H48  1  0.13392095  0.52673996  0.65576663  1
  H+  H49  1  1.00184319  0.62581325  0.97838498  1
  H+  H50  1  0.83798329  0.98477426  0.48643145  1
  H+  H51  1  0.25161344  0.61931927  0.50465955  1
  H+  H52  1  0.17899842  0.54942785  0.33418464  1
  H+  H53  1  -0.00903424  0.35355520  0.33668172  1
  H+  H54  1  0.12966165  0.61634365  0.98961255  1
  H+  H55  1  0.88152204  0.85113783  0.66345951  1
  H+  H56  1  0.87150993  0.88341798  0.83557855  1
  H+  H57  1  0.25870244  0.13905507  0.66267138  1
  H+  H58  1  0.61505017  0.22658589  0.49238744  1
  H+  H59  1  0.74707231  0.90026774  0.48058063  1
  H+  H60  1  0.37984672  0.48631280  0.49249337  1
  H+  H61  1  0.36480054  0.22324156  0.49554924  1
  H+  H62  1  0.36649332  0.52437971  0.32767279  1
  H+  H63  1  0.96616442  0.11871779  0.32192434  1
  H+  H64  1  0.85448643  0.23538298  0.31354415  1
  H+  H65  1  0.52515241  0.38676626  0.49672929  1
  H+  H66  1  0.73177948  0.11779802  0.63921981  1
  H+  H67  1  0.37738779  0.74110445  0.34956120  1
  H+  H68  1  0.60453724  0.38865294  0.67185463  1
  H+  H69  1  0.22280714  0.61819018  0.83682673  1
  H+  H70  1  0.60342434  0.88636145  0.00830973  1
  H+  H71  1  0.35878520  0.21396125  1.00082892  1
  H+  H72  1  0.61697788  0.01102414  0.99159036  1
  H+  H73  1  0.60399013  0.86913044  0.50415196  1
  H+  H74  1  0.23827361  0.11047672  0.50180863  1
  H+  H75  1  0.46780173  0.85374902  0.51055607  1
  H+  H76  1  0.39412674  0.87417902  0.33325456  1
  H+  H77  1  0.23282497  0.19158061  0.62207033  1
  H+  H78  1  0.38911877  0.37570711  0.82764504  1
  H+  H79  1  0.58482940  -0.01266976  0.63198005  1
  H+  H80  1  0.60919584  0.96107271  0.50527528  1
  H+  H81  1  0.99671013  0.61709757  0.31809924  1
  H+  H82  1  0.61012915  0.88596017  0.35798538  1
  H+  H83  1  0.62591771  0.51289857  0.18551938  1
  H+  H84  1  0.85039726  0.38467116  0.67623419  1
  H+  H85  1  0.88566582  0.52517025  0.67095332  1
  H+  H86  1  0.88574505  0.10502305  0.84470762  1
  H+  H87  1  0.37002002  0.12667080  0.34690022  1
  H+  H88  1  0.13004737  0.36981993  -0.01420365  1
  H+  H89  1  0.39167191  0.11373415  0.50669367  1
  H+  H90  1  0.11807579  0.47886982  0.84037093  1
  H+  H91  1  0.22357270  0.61736604  0.65400967  1
  H+  H92  1  0.22644184  0.36324281  0.32742199  1
  H+  H93  1  0.98158434  0.75444690  0.55804858  1
  H+  H94  1  0.71184539  0.86465562  1.00518886  1
  H+  H95  1  0.16162222  0.12824088  0.18306023  1
  H+  H96  1  0.72160819  0.35078476  0.18261385  1
  H+  H97  1  0.89543212  0.62413838  0.81851376  1
  H+  H98  1  0.20423091  0.21839734  0.11212343  1
  H+  H99  1  0.92544776  0.07242476  0.61416312  1
  H+  H100  1  0.35122228  0.73750699  0.81962825  1
  H+  H101  1  -0.02909877  0.11494369  -0.00234417  1
  H+  H102  1  0.93971254  0.11815620  0.16129817  1
  H+  H103  1  0.92622672  0.80833511  0.18217689  1
  H+  H104  1  0.86445090  0.89629447  0.16511625  1
  H+  H105  1  0.11630468  0.22505354  0.33456798  1
  H+  H106  1  0.14040349  0.10540070  0.33346717  1
  H+  H107  1  0.11534371  0.97023342  0.49376277  1
  H+  H108  1  0.38209019  0.86022853  0.50311411  1
  H+  H109  1  0.24512968  0.89020318  0.65762242  1
  H+  H110  1  0.51452223  0.63154011  0.01547829  1
  H+  H111  1  0.14102834  0.85259498  0.48750669  1
  H+  H112  1  0.51333997  0.87275755  0.66907463  1
  H+  H113  1  0.13683320  0.86270175  0.84182404  1
  H+  H114  1  0.71746062  0.84953238  0.65932036  1
  H+  H115  1  0.35262033  0.85063800  0.15918967  1
  H+  H116  1  0.84848272  0.12558233  1.00716390  1
  H+  H117  1  0.26435824  0.39064934  0.01335229  1
  H+  H118  1  0.90604875  0.10814351  0.67525443  1
  H+  H119  1  0.47198243  0.37001214  0.66494851  1
  H+  H120  1  0.27218557  0.89261226  0.81637898  1
  H+  H121  1  0.15168225  0.86511398  0.67402944  1
  H+  H122  1  0.89705108  0.39872325  0.02860638  1
  H+  H123  1  0.80954722  0.14364058  0.88748790  1
  H+  H124  1  0.48172106  0.87208704  0.34104748  1
  H+  H125  1  0.37597989  0.77250260  0.65672849  1
  H+  H126  1  0.35236150  0.64816106  0.80296892  1
  H+  H127  1  0.61774611  0.73288705  0.33700638  1
  H+  H128  1  0.62712590  0.60315547  0.17437748  1
  H+  H129  1  0.39389009  0.36666475  0.50773295  1
  H+  H130  1  0.97417996  0.09912440  0.51730769  1
  H+  H131  1  0.40882307  0.62057265  0.86766478  1
  H+  H132  1  0.89678626  0.28852668  0.66482113  1
  H+  H133  1  0.76572815  0.38232494  0.49129824  1
  H+  H134  1  0.04433922  0.66633013  0.03996496  1
  H+  H135  1  0.83360171  0.69795107  0.14453310  1
  H+  H136  1  0.86457233  0.25277518  0.99107205  1
  H+  H137  1  0.82098007  0.65755128  0.75450919  1
  H+  H138  1  0.60091808  0.96085531  0.82298479  1
  H+  H139  1  1.01849293  0.88186852  0.85087927  1
  H+  H140  1  0.41069095  0.45725714  0.12754079  1
  H+  H141  1  0.12115964  0.39148164  0.15396838  1
  H+  H142  1  0.72758110  0.61088759  0.50640077  1
  H+  H143  1  0.36880492  0.72780676  0.15835192  1
  H+  H144  1  0.22911232  0.85262842  0.48575283  1
  H+  H145  1  0.87332080  0.73304856  0.79897388  1
  H+  H146  1  0.35712767  0.98189551  0.82533993  1
  H+  H147  1  0.17544435  0.32931696  0.78026699  1
  H+  H148  1  0.13502185  -0.00343779  0.16617490  1
  H+  H149  1  0.28006574  0.12458810  0.34940478  1
  H+  H150  1  0.98099049  0.61828998  0.16615079  1
  H+  H151  1  0.62760108  0.52163724  -0.01740529  1
  H+  H152  1  0.10213779  0.95950346  0.68832769  1
  H+  H153  1  0.64572940  0.85578477  0.82938490  1
  H+  H154  1  0.03487510  0.88433551  0.33968444  1
  H+  H155  1  0.15677947  0.25384074  0.15146119  1
  H+  H156  1  0.59081696  0.13045366  0.84575672  1
  H+  H157  1  0.46416179  0.60402595  0.17752331  1
  H+  H158  1  0.85735976  0.38567154  0.49208652  1
  H+  H159  1  0.88565765  0.60681973  0.16975586  1
  H+  H160  1  0.62274289  0.89709074  0.15610002  1
  H+  H161  1  0.18372338  0.34429548  0.22677935  1
  H+  H162  1  0.89291065  0.79228573  0.33334894  1
  H+  H163  1  0.06294308  0.44560607  0.32375414  1
  H+  H164  1  0.51168635  0.37441949  0.18128663  1
  H+  H165  1  0.33784311  0.16798125  0.10429667  1
  H+  H166  1  0.62194724  0.23010178  0.34213670  1
  H+  H167  1  0.24936583  0.38132449  0.17081507  1
  H+  H168  1  0.12157338  0.87933637  0.34355610  1
  H+  H169  1  0.39990741  0.11443341  0.17523067  1
  H+  H170  1  0.12770431  -0.03247602  1.01322353  1
  H+  H171  1  0.76886720  0.39258712  0.85525609  1
  H+  H172  1  0.47480688  0.37491619  0.33117443  1
  H+  H173  1  0.89623808  0.53653692  0.82854559  1
  H+  H174  1  0.75306578  0.60999979  0.16160956  1
  H+  H175  1  0.09349071  0.17295918  0.55147420  1
  H+  H176  1  1.02301215  0.40277998  0.67392522  1
  H+  H177  1  0.89480434  0.53150424  0.32173701  1
  H+  H178  1  0.36480700  0.14919348  0.83411876  1
  H+  H179  1  0.31927061  0.67079009  0.72220142  1
  H+  H180  1  0.60456341  0.87666518  0.66427407  1
  H+  H181  1  0.87094282  0.10807299  0.31863639  1
  H+  H182  1  0.14371231  0.01743410  0.33239820  1
  H+  H183  1  0.28772520  0.13991223  0.16771902  1
  H+  H184  1  0.04085798  0.91939413  0.16304247  1
  H+  H185  1  0.77949789  0.73325697  0.38324122  1
  H+  H186  1  0.36535986  0.64308842  0.34396144  1
  H+  H187  1  0.81170458  0.15269133  0.69252979  1
  H+  H188  1  0.10836757  0.63504459  0.16973236  1
  H+  H189  1  0.72856782  0.61904983  0.83681093  1
  H+  H190  1  0.63095290  0.34827774  0.18905841  1
  H+  H191  1  0.75743836  0.62656114  0.66717098  1
  H+  H192  1  0.60451139  0.63363331  0.00715940  1
  H+  H193  1  0.40786434  0.83277834  0.59856698  1
  H+  H194  1  0.11954719  0.25667916  0.67034305  1
  H+  H195  1  0.78025252  0.13823332  0.50746721  1
  H+  H196  1  0.11605128  0.39222747  0.48443255  1
  H+  H197  1  0.11378581  0.21927067  0.83389174  1
  H+  H198  1  0.84762621  0.31622957  0.29318825  1
  H+  H199  1  0.14771555  0.52424453  0.50298376  1
  H+  H200  1  0.81198155  0.20317934  0.15654345  1
  H+  H201  1  0.85913072  -0.03937584  0.67685263  1
  H+  H202  1  0.88763912  0.61430628  0.67010594  1
  H+  H203  1  0.38218228  0.24451437  0.67799861  1
  H+  H204  1  0.22945833  0.12309942  -0.00315560  1
  H+  H205  1  0.72351404  0.85199214  0.16800806  1
  H+  H206  1  0.66284038  0.82180662  0.56513183  1
  H+  H207  1  0.33549650  0.67007280  0.43715868  1
  H+  H208  1  0.84756162  0.45750378  0.89553536  1
  H+  H209  1  0.87143610  0.87923841  0.52593237  1
  H+  H210  1  0.86802933  0.71393719  0.50132331  1
  H+  H211  1  -0.02937196  0.60883508  0.49956719  1
  H+  H212  1  0.62083036  0.01495326  0.34053095  1
  H+  H213  1  0.86348857  0.46506246  0.17414221  1
  H+  H214  1  0.13930233  0.89025216  0.99595101  1
  H+  H215  1  0.60511820  0.71053081  0.15963275  1
  H+  H216  1  0.48661436  0.11625897  0.32487092  1
  H+  H217  1  0.92851235  0.58582451  0.25347288  1
  H+  H218  1  0.13735602  0.36521411  0.82926238  1
  H+  H219  1  0.85336441  -0.02272544  1.01200240  1
  H+  H220  1  0.28589350  0.39483517  0.68549857  1
  H+  H221  1  0.62461294  0.77521414  1.00673129  1
  H+  H222  1  -0.02130420  0.37301597  0.50915581  1
  H+  H223  1  0.62539651  0.61118556  0.65724840  1
  H+  H224  1  0.35329726  0.63312374  0.66884548  1
  H+  H225  1  0.38796432  0.36485069  0.17541748  1
  H+  H226  1  0.01162246  0.62539996  0.68046117  1
  H+  H227  1  0.61515505  0.39000834  0.34341443  1
  H+  H228  1  0.38215778  0.07087928  0.90823132  1
  H+  H229  1  0.10930637  0.62847704  0.67041592  1
  H+  H230  1  0.72373254  0.62120537  0.33032202  1
  H+  H231  1  0.37742982  0.25283293  0.82256989  1
  H+  H232  1  0.22187910  0.61932862  0.99631274  1
  H+  H233  1  0.70542199  0.34826270  0.66183998  1
  H+  H234  1  0.10701794  0.23106537  0.99868263  1
  H+  H235  1  0.84939102  0.71531510  0.67187639  1
  H+  H236  1  0.73203299  0.10935481  0.32485657  1
  H+  H237  1  0.14278197  0.77702992  0.83097237  1
  H+  H238  1  0.12896450  0.13972864  0.68474274  1
  H+  H239  1  0.13437339  0.78981939  0.17803096  1
  H+  H240  1  0.25439603  0.64283256  0.33460759  1
  H+  H241  1  0.62495588  0.10729915  0.33190029  1
  H+  H242  1  0.48355543  0.61579422  0.50737952  1
  H+  H243  1  0.71578239  0.14054280  0.65987396  1
  H+  H244  1  0.44857473  0.08553254  0.00073691  1
  H+  H245  1  0.12901357  0.87855874  0.17906217  1
  H+  H246  1  0.45728187  0.11526800  0.85931191  1
  H+  H247  1  0.61522570  0.48401952  0.82678022  1
  H+  H248  1  0.35913292  0.63591181  0.15592464  1
  H+  H249  1  0.63212004  0.36915962  0.84376953  1
  H+  H250  1  0.29205874  0.40676171  0.82386543  1
  H+  H251  1  0.58595296  0.66662779  0.43260181  1
  H+  H252  1  0.11246916  0.48694160  0.00097299  1
  H+  H253  1  0.97657880  0.10786794  0.84606096  1
  H+  H254  1  0.63468975  0.36345419  0.50301858  1
  H+  H255  1  0.21605574  0.79988972  0.29741578  1
  H+  H256  1  0.13746425  0.12521057  -0.00697359  1
  H+  H257  1  0.11883555  0.64028690  0.82577298  1
  H+  H258  1  0.35963750  0.72812732  0.49870520  1
  H+  H259  1  0.39488159  0.61634399  0.50851571  1
  H+  H260  1  0.75945076  0.62773219  0.99938583  1
  H+  H261  1  0.15871847  0.78105243  -0.01683528  1
  H+  H262  1  0.03067259  0.64426865  0.81693074  1
  H+  H263  1  0.53571261  0.63986249  0.82859291  1
  H+  H264  1  0.73341764  0.85371627  0.83067377  1
  H+  H265  1  0.61334767  0.63209233  0.49170043  1
  H+  H266  1  0.37436067  0.85803446  0.83410973  1
  H+  H267  1  0.52866936  0.13518840  0.49203334  1
  H+  H268  1  0.29980340  0.93112392  -0.00524104  1
  H+  H269  1  0.88050903  0.41273050  0.35054747  1
  H+  H270  1  0.41326855  0.03629649  0.66398454  1
  H+  H271  1  0.37699520  0.51537715  0.17907977  1
  H+  H272  1  0.11653592  0.51505803  0.18019913  1
  H+  H273  1  0.10808189  0.39753162  0.68151222  1
  H+  H274  1  0.49032086  0.87229897  0.18069580  1
  H+  H275  1  0.57351895  0.64939096  0.10230236  1
  H+  H276  1  0.46783525  0.85892102  -0.01684593  1
  H+  H277  1  0.73180690  0.36968855  0.33043560  1
  H+  H278  1  0.73530618  0.88051866  0.32276660  1
  H+  H279  1  0.60098409  0.37551813  -0.00114279  1
  H+  H280  1  0.86305705  0.58506591  -0.02351680  1
  H+  H281  1  0.46843627  0.34136585  0.97418300  1
  H+  H282  1  0.43299550  0.83885442  0.24125491  1
  H+  H283  1  0.15199254  0.28224666  0.49890801  1
  H+  H284  1  0.12559820  1.00967690  0.85719654  1
  H+  H285  1  0.37712118  0.99210472  0.33596399  1
  H+  H286  1  0.58563762  0.11878225  0.00176556  1
  H+  H287  1  0.61761564  0.48026017  0.34309305  1
  H+  H288  1  0.40285813  0.31124244  0.91988845  1
  H+  H289  1  0.01260603  0.87330381  0.68989367  1
  H+  H290  1  0.55630453  0.16702852  0.79397772  1
  H+  H291  1  0.42730252  0.08557012  0.26376323  1
  H+  H292  1  0.07576304  0.41932564  0.43008408  1
  H+  H293  1  0.80215514  0.14844878  0.38024842  1
  H+  H294  1  0.58548986  0.42401335  0.76735714  1
  H+  H295  1  0.63766757  0.52197439  0.50596559  1
  H+  H296  1  0.61246011  0.21384276  0.15631995  1
  H+  H297  1  0.08911793  0.17051095  0.39485719  1
  H+  H298  1  0.87407143  0.18683321  0.74739080  1
  H+  H299  1  0.66202251  0.33261624  0.56259171  1
  H+  H300  1  0.57309001  0.92244165  0.06355219  1
  H+  H301  1  0.06914965  0.64166729  0.43364728  1
  H+  H302  1  0.67371390  0.89956818  0.28185335  1
  H+  H303  1  0.41823393  0.57607291  0.95007292  1
  H+  H304  1  0.41056384  0.57588807  0.60617247  1
  H+  H305  1  0.33831497  0.15891618  0.43642819  1
  H+  H306  1  0.16920714  0.34335759  0.93050623  1
  H+  H307  1  0.55281132  0.41140547  0.04224855  1
  H+  H308  1  0.34936872  0.43352542  0.75953780  1
  H+  H309  1  0.41656788  0.34147758  0.27198020  1
  H+  H310  1  0.19063050  0.83651047  0.92348773  1
  H+  H311  1  0.16862762  0.59151730  0.89999036  1
  H+  H312  1  0.82963909  0.89937778  0.73377611  1
  H+  H313  1  0.08434884  0.15239459  0.78055057  1
  H+  H314  1  0.07683213  0.28982436  0.62468872  1
  H+  H315  1  0.91543170  0.30740425  0.22069207  1
  H+  H316  1  0.93079264  0.85751658  0.24261629  1
  H+  H317  1  0.39488940  0.58418101  0.26861860  1
  H+  H318  1  0.92675745  0.81743268  0.61348642  1
  H+  H319  1  0.91534566  0.34517886  0.60418501  1
  H+  H320  1  0.81625822  0.64001533  0.05748932  1
  H+  H321  1  0.15983554  0.83160328  0.26166418  1
  H+  H322  1  0.65114972  0.32460511  0.94189682  1
  H+  H323  1  0.86124658  0.42629900  0.08481971  1
  H+  H324  1  0.58479888  0.40339414  0.12967733  1
  H+  H325  1  0.83421052  0.31354468  0.96415511  1
  H+  H326  1  0.83703810  0.43337102  0.40460180  1
  H+  H327  1  0.08257429  0.90964818  0.43513020  1
  H+  H328  1  0.42721319  0.08841672  0.56473419  1
  H+  H329  1  0.61235786  0.26403144  0.65187869  1
  H+  H330  1  0.54155869  0.12394093  0.69719680  1
  H+  H331  1  0.91194530  0.07885371  0.93875365  1
  H+  H332  1  0.56588020  0.06473698  0.61988475  1
  H+  H333  1  0.08853969  0.66193749  0.73862044  1
  H+  H334  1  0.65801705  0.58253036  0.59750581  1
  H+  H335  1  0.57752750  0.66217034  0.73118004  1
  H+  H336  1  0.63753450  0.06975735  0.90201970  1
  H+  H337  1  0.07084457  0.91199949  0.78730857  1
  H+  H338  1  0.79937185  0.15000710  0.05913776  1
  H+  H339  1  0.58949557  0.91340250  0.76005338  1
  H+  H340  1  0.66950112  0.32825983  0.27277369  1
  H+  H341  1  0.34281327  0.11853955  0.01260156  1
  H+  H342  1  0.91300672  0.84038795  0.92791311  1
  H+  H343  1  0.89349512  0.28155841  0.51658121  1
  H+  H344  1  0.37961531  0.77090806  0.98565821  1
  H+  H345  1  0.70508921  0.10199838  0.98796196  1
  H+  H346  1  0.35565095  0.94083830  0.72965800  1
  H+  H347  1  0.40086524  0.82114805  0.89279442  1
  H+  H348  1  0.12780326  0.13232380  0.50527528  1
  H+  H349  1  0.17481934  0.58327400  0.56764158  1
  H+  H350  1  0.09309685  0.17843366  0.05965207  1
  H+  H351  1  0.58366960  0.41796568  0.43609981  1
  H+  H352  1  0.16362528  0.08229960  0.92299007  1
  H+  H353  1  0.89931818  0.08561408  0.22633210  1
  H+  H354  1  0.63708900  0.99342534  0.15360069  1
  H+  H355  1  0.41570306  0.33520640  0.56976851  1
  H+  H356  1  0.60816426  0.47989399  0.67126553  1
  H+  H357  1  0.38158978  0.51717356  0.66771869  1
  H+  H358  1  0.66191102  0.58899994  0.92834292  1
  H+  H359  1  0.85061713  0.22182261  0.84304796  1
  H+  H360  1  0.88485259  0.51293696  -0.00337352  1
  H+  H361  1  0.35272117  0.18084227  0.76373359  1
  H+  H362  1  0.16197537  0.58123671  0.23566534  1
  H+  H363  1  0.18251733  0.09110994  0.24410845  1
  H+  H364  1  0.62712144  0.27755476  0.85053186  1
  H+  H365  1  0.86007816  0.16875724  0.46217145  1
  H+  H366  1  0.66763460  0.58419305  0.26896802  1
  H+  H367  1  0.32278777  0.41183497  0.07362141  1
  H+  H368  1  0.33527809  0.91276772  0.12170685  1
  H+  H369  1  0.58787829  0.16917761  0.40112487  1
  H+  H370  1  0.91658029  0.32565337  0.89397372  1
  H+  H371  1  0.66175152  0.81367001  0.22468813  1
  H+  H372  1  0.62664539  0.76250872  0.65841280  1
  H+  H373  1  0.18163838  0.34605981  0.55371940  1
  H+  H374  1  0.08661526  0.42013104  0.09685482  1
  H+  H375  1  0.89359065  0.11206916  0.52860491  1
  H+  H376  1  0.56284341  0.14835778  0.06361270  1
  H+  H377  1  0.57877045  0.91169395  0.41872213  1
  H+  H378  1  0.65202361  0.06992541  0.54928279  1
  H+  H379  1  0.18194541  0.07960511  0.56210044  1
  H+  H380  1  0.33505971  0.42236499  0.39623025  1
  H+  H381  1  0.34587591  0.92537198  0.43125428  1
  H+  H382  1  0.81547560  0.41000778  0.73412306  1
  H+  H383  1  0.82246482  0.93013001  0.39262080  1
  O2-  O384  1  0.14800787  0.20009011  0.13001367  1
  O2-  O385  1  0.09603676  0.16625843  0.50758967  1
  O2-  O386  1  0.08282925  0.15605976  0.82594465  1
  O2-  O387  1  0.08257210  0.41366685  0.14177976  1
  O2-  O388  1  0.08541815  0.42408446  0.47469638  1
  O2-  O389  1  0.09199316  0.41528088  0.83701655  1
  O2-  O390  1  0.09169247  0.67513171  0.14846262  1
  O2-  O391  1  0.06871089  0.64599524  0.47802419  1
  O2-  O392  1  0.09422374  0.67348109  0.80543178  1
  O2-  O393  1  0.09941381  0.93786386  0.14909699  1
  O2-  O394  1  0.08134184  0.90956261  0.48040729  1
  O2-  O395  1  0.07744544  0.91425982  0.83250803  1
  O2-  O396  1  0.34620087  0.17190282  0.14911041  1
  O2-  O397  1  0.33544768  0.16168677  0.48351461  1
  O2-  O398  1  0.34625876  0.18580296  0.80983171  1
  O2-  O399  1  0.35633087  0.41980798  0.14795306  1
  O2-  O400  1  0.35211389  0.42611523  0.47581847  1
  O2-  O401  1  0.35222428  0.43728702  0.80993812  1
  O2-  O402  1  0.33471654  0.67053410  0.13953238  1
  O2-  O403  1  0.33212042  0.66612211  0.48347302  1
  O2-  O404  1  0.31678132  0.67429997  0.79822551  1
  O2-  O405  1  0.30754914  0.85334459  0.13521434  1
  O2-  O406  1  0.34334041  0.91827412  0.47645972  1
  O2-  O407  1  0.33425914  0.92650962  0.80376957  1
  O2-  O408  1  0.58525512  0.15564644  0.13837481  1
  O2-  O409  1  0.58894652  0.16674160  0.47630329  1
  O2-  O410  1  0.56206426  0.16691306  0.83790077  1
  O2-  O411  1  0.57861367  0.40556270  0.17335862  1
  O2-  O412  1  0.58577950  0.41751525  0.48184027  1
  O2-  O413  1  0.58356866  0.42250927  0.81294551  1
  O2-  O414  1  0.57390641  0.64848884  0.14836301  1
  O2-  O415  1  0.58251936  0.66270920  0.47836393  1
  O2-  O416  1  0.59116739  0.66593345  0.80657935  1
  O2-  O417  1  0.59525617  0.93102351  0.14552025  1
  O2-  O418  1  0.57347465  0.90130362  0.49147310  1
  O2-  O419  1  0.59864744  0.91042939  0.80412443  1
  O2-  O420  1  0.77194139  0.15658183  0.12942138  1
  O2-  O421  1  0.84705216  0.17095863  0.50484906  1
  O2-  O422  1  0.81831623  0.15681819  0.84404126  1
  O2-  O423  1  0.82838054  0.40470309  0.16116513  1
  O2-  O424  1  0.82606883  0.41322682  0.47468602  1
  O2-  O425  1  0.83346487  0.42536428  0.85680519  1
  O2-  O426  1  0.81340434  0.63669430  0.14347442  1
  O2-  O427  1  0.83034758  0.66061167  0.47824676  1
  O2-  O428  1  0.83352612  0.67131258  0.79988815  1
  O2-  O429  1  0.82547287  0.91587146  0.14914471  1
  O2-  O430  1  0.79299926  0.94903100  0.45705229  1
  O2-  O431  1  0.84519088  0.91093460  0.81090852  1
  O2-  O432  1  0.18803952  0.09532839  0.19860862  1
  O2-  O433  1  0.17598267  0.07844916  0.51749752  1
  O2-  O434  1  0.15890741  0.07280935  0.87032424  1
  O2-  O435  1  0.18714049  0.34882576  0.18163858  1
  O2-  O436  1  0.17734567  0.34408290  0.50920241  1
  O2-  O437  1  0.16946827  0.33097362  0.82421702  1
  O2-  O438  1  0.11899977  0.56363795  0.20317082  1
  O2-  O439  1  0.18506445  0.58217995  0.52176113  1
  O2-  O440  1  0.16363304  0.58692833  0.85461214  1
  O2-  O441  1  0.14693563  0.84073441  0.20196570  1
  O2-  O442  1  0.16640523  0.81588044  0.48054906  1
  O2-  O443  1  0.17447047  0.83711220  0.84690181  1
  O2-  O444  1  0.42562670  0.08183394  0.19285164  1
  O2-  O445  1  0.42384253  0.08413932  0.51989095  1
  O2-  O446  1  0.39344765  0.08638718  0.86435400  1
  O2-  O447  1  0.41873907  0.33279361  0.19348074  1
  O2-  O448  1  0.41910582  0.33245867  0.52471875  1
  O2-  O449  1  0.41559088  0.33886049  0.83968412  1
  O2-  O450  1  0.40359600  0.57763046  0.19129297  1
  O2-  O451  1  0.42297651  0.58456145  0.52349879  1
  O2-  O452  1  0.43559750  0.58519217  0.86869592  1
  O2-  O453  1  0.43187700  0.83293837  0.19642600  1
  O2-  O454  1  0.40555900  0.82449701  0.52164824  1
  O2-  O455  1  0.39397131  0.81792461  0.84668994  1
  O2-  O456  1  0.69583726  0.10428452  0.16460414  1
  O2-  O457  1  0.68170158  0.08794725  0.50817971  1
  O2-  O458  1  0.63297577  0.07421978  0.85596401  1
  O2-  O459  1  0.66180122  0.31662389  0.19864594  1
  O2-  O460  1  0.66521230  0.33245134  0.51746229  1
  O2-  O461  1  0.66130432  0.33919626  0.86181387  1
  O2-  O462  1  0.66095174  0.57652640  0.19165689  1
  O2-  O463  1  0.66645236  0.58287793  0.52064883  1
  O2-  O464  1  0.66858698  0.58786418  0.85162099  1
  O2-  O465  1  0.66117646  0.81812990  0.18021149  1
  O2-  O466  1  0.66031458  0.82398511  0.51962310  1
  O2-  O467  1  0.67210350  0.82069133  0.84197175  1
  O2-  O468  1  0.88684540  0.07817490  0.18197158  1
  O2-  O469  1  0.91778778  0.07386119  0.53766938  1
  O2-  O470  1  0.91508532  0.07432527  0.85906823  1
  O2-  O471  1  0.91257151  0.31612649  0.17663892  1
  O2-  O472  1  0.91958325  0.34387281  0.52625846  1
  O2-  O473  1  0.91136340  0.32735149  0.84900320  1
  O2-  O474  1  0.92326191  0.58479363  0.18557073  1
  O2-  O475  1  0.90854262  0.58326504  0.51250841  1
  O2-  O476  1  0.93287541  0.59897982  0.82423688  1
  O2-  O477  1  0.93029552  0.86119233  0.19675527  1
  O2-  O478  1  0.95659838  0.78989633  0.54712425  1
  O2-  O479  1  0.91687811  0.83546369  0.87923061  1
  O2-  O480  1  0.17379055  0.07870772  0.31901814  1
  O2-  O481  1  0.20756362  0.13459172  0.64051601  1
  O2-  O482  1  0.16878199  0.09507103  0.97907208  1
  O2-  O483  1  0.16674967  0.32882561  0.30860520  1
  O2-  O484  1  0.13098902  0.30837159  0.64572307  1
  O2-  O485  1  0.15789265  0.33544076  0.97403137  1
  O2-  O486  1  0.19242525  0.60538450  0.31848674  1
  O2-  O487  1  0.16246111  0.58706204  0.63783395  1
  O2-  O488  1  0.16178141  0.58681243  0.97810071  1
  O2-  O489  1  0.17480558  0.81840909  0.30742653  1
  O2-  O490  1  0.18579868  0.85665680  0.64315735  1
  O2-  O491  1  0.20034135  0.83866281  0.96829123  1
  O2-  O492  1  0.42608485  0.08478822  0.31042021  1
  O2-  O493  1  0.44249413  0.10241256  0.64776522  1
  O2-  O494  1  0.38596608  0.05561257  0.98687020  1
  O2-  O495  1  0.41537943  0.35090015  0.31634579  1
  O2-  O496  1  0.41029967  0.33599881  0.65262581  1
  O2-  O497  1  0.40839469  0.29978844  0.96294451  1
  O2-  O498  1  0.38926255  0.58452240  0.31370051  1
  O2-  O499  1  0.40679052  0.57871307  0.65105216  1
  O2-  O500  1  0.41083984  0.58162034  0.99401765  1
  O2-  O501  1  0.42343052  0.84122720  0.32215685  1
  O2-  O502  1  0.40968921  0.83400771  0.64410656  1
  O2-  O503  1  0.41020325  0.82686201  0.96434871  1
  O2-  O504  1  0.64868941  0.06994125  0.31717703  1
  O2-  O505  1  0.58058605  0.02486205  0.60021394  1
  O2-  O506  1  0.64478430  0.07211273  0.97347165  1
  O2-  O507  1  0.67106345  0.33473236  0.31850310  1
  O2-  O508  1  0.64802118  0.32579269  0.64264765  1
  O2-  O509  1  0.64311866  0.32073783  0.98663633  1
  O2-  O510  1  0.66506641  0.58271262  0.31436795  1
  O2-  O511  1  0.65672405  0.58105166  0.64312627  1
  O2-  O512  1  0.65782387  0.58435136  0.97379264  1
  O2-  O513  1  0.67380625  0.85565465  0.30788789  1
  O2-  O514  1  0.65888799  0.82253209  0.64153343  1
  O2-  O515  1  0.65040179  0.83560905  0.99350170  1
  O2-  O516  1  0.90798885  0.08435469  0.30443917  1
  O2-  O517  1  0.92897609  0.07182798  0.65975177  1
  O2-  O518  1  0.90989061  0.08361030  0.98379778  1
  O2-  O519  1  0.89045257  0.29925070  0.30079772  1
  O2-  O520  1  0.91472874  0.34681644  0.64979694  1
  O2-  O521  1  0.88688276  0.31221855  0.97249553  1
  O2-  O522  1  0.93226192  0.58860684  0.30083009  1
  O2-  O523  1  0.92325369  0.58699846  0.66297667  1
  O2-  O524  1  0.89160108  0.55295224  0.96270553  1
  O2-  O525  1  0.93077171  0.85137249  0.31683280  1
  O2-  O526  1  0.91473535  0.82037570  0.65754217  1
  O2-  O527  1  0.89796278  0.83092491  0.99150058  1
  O2-  O528  1  0.08038998  0.17125484  0.01526971  1
  O2-  O529  1  0.08303993  0.16467496  0.35083572  1
  O2-  O530  1  0.08937471  0.15710919  0.70338363  1
  O2-  O531  1  0.08343569  0.42471069  0.01487366  1
  O2-  O532  1  0.05113675  0.39588315  0.34853044  1
  O2-  O533  1  0.08382397  0.43515112  0.68744024  1
  O2-  O534  1  0.05947787  0.66158826  -0.00180059  1
  O2-  O535  1  0.07770357  0.65652771  0.34635029  1
  O2-  O536  1  0.07798889  0.65501219  0.69157211  1
  O2-  O537  1  0.09568665  0.90723592  0.00182502  1
  O2-  O538  1  0.09422240  0.91207745  0.35686940  1
  O2-  O539  1  0.07074101  0.90507798  0.70975143  1
  O2-  O540  1  0.32198155  0.15849174  0.02416439  1
  O2-  O541  1  0.33725072  0.14970337  0.36860617  1
  O2-  O542  1  0.35849009  0.18256904  0.69379244  1
  O2-  O543  1  0.32356110  0.42164135  0.02877372  1
  O2-  O544  1  0.32474878  0.41801198  0.35165657  1
  O2-  O545  1  0.34613143  0.42477062  0.69710828  1
  O2-  O546  1  0.32033323  0.66592890  0.02017615  1
  O2-  O547  1  0.34290590  0.68041099  0.36483561  1
  O2-  O548  1  0.32230864  0.66574612  0.67691575  1
  O2-  O549  1  0.35182676  0.97253860  0.01822057  1
  O2-  O550  1  0.34435423  0.93130788  0.35398101  1
  O2-  O551  1  0.36668267  0.94934342  0.68454006  1
  O2-  O552  1  0.55244668  0.14517511  0.01835976  1
  O2-  O553  1  0.58939657  0.16880683  0.35544370  1
  O2-  O554  1  0.53635495  0.14079753  0.65567366  1
  O2-  O555  1  0.57239884  0.41323170  0.00093170  1
  O2-  O556  1  0.58638207  0.42060670  0.35980765  1
  O2-  O557  1  0.57803955  0.42073978  0.68963290  1
  O2-  O558  1  0.57626231  0.66163131  0.02872431  1
  O2-  O559  1  0.59640586  0.67870477  0.35868888  1
  O2-  O560  1  0.57404092  0.66120172  0.68549626  1
  O2-  O561  1  0.57253085  0.91970348  0.01848808  1
  O2-  O562  1  0.58082155  0.91643187  0.37285922  1
  O2-  O563  1  0.57577737  0.90841450  0.67901291  1
  O2-  O564  1  0.81415351  0.15472328  0.01469946  1
  O2-  O565  1  0.80287786  0.14366220  0.33630406  1
  O2-  O566  1  0.87311972  0.18341930  0.70300064  1
  O2-  O567  1  0.89435403  0.44720688  0.04641562  1
  O2-  O568  1  0.84580723  0.43949493  0.35824210  1
  O2-  O569  1  0.81435004  0.40983915  0.68980639  1
  O2-  O570  1  0.82039527  0.65211241  0.01357223  1
  O2-  O571  1  0.81151989  0.70526782  0.37045377  1
  O2-  O572  1  0.81765739  0.65318237  0.68392690  1
  O2-  O573  1  0.82027044  0.91709135  0.02676267  1
  O2-  O574  1  0.83374778  0.92241621  0.34836001  1
  O2-  O575  1  0.82602308  0.89902341  0.68829806  1
