# generated using pymatgen
data_H2O
_symmetry_space_group_name_H-M   'P 1'
_cell_length_a   18.00441640
_cell_length_b   17.99450140
_cell_length_c   22.01093779
_cell_angle_alpha   89.97534672
_cell_angle_beta   89.99148217
_cell_angle_gamma   120.01224904
_symmetry_Int_Tables_number   1
_chemical_formula_structural   H2O
_chemical_formula_sum   'H384 O192'
_cell_volume   6174.96283001
_cell_formula_units_Z   192
loop_
 _symmetry_equiv_pos_site_id
 _symmetry_equiv_pos_as_xyz
  1  'x, y, z'
loop_
 _atom_type_symbol
 _atom_type_oxidation_number
  H+  1.0
  O2-  -2.0
loop_
 _atom_site_type_symbol
 _atom_site_label
 _atom_site_symmetry_multiplicity
 _atom_site_fract_x
 _atom_site_fract_y
 _atom_site_fract_z
 _atom_site_occupancy
  H+  H0  1  0.40133479  0.88218425  0.84212917  1
  H+  H1  1  0.87243152  0.89355196  0.34068108  1
  H+  H2  1  0.64717207  0.36161404  0.99642267  1
  H+  H3  1  0.37406601  0.22330152  0.49339345  1
  H+  H4  1  0.14470264  0.73585359  0.34539373  1
  H+  H5  1  0.86485033  0.26708809  0.83781154  1
  H+  H6  1  0.60027275  0.36606371  0.16986213  1
  H+  H7  1  0.51384814  0.12631644  0.34679443  1
  H+  H8  1  0.98241057  0.86795316  0.17951272  1
  H+  H9  1  0.05047398  0.89400640  0.50030994  1
  H+  H10  1  0.34840552  0.20425447  0.13868025  1
  H+  H11  1  0.28265879  0.88909548  0.39883862  1
  H+  H12  1  0.13266915  0.32228696  0.50916663  1
  H+  H13  1  0.12749626  0.26782448  0.66544555  1
  H+  H14  1  0.13803676  0.85948136  0.54235098  1
  H+  H15  1  0.42767611  0.08508327  0.89844392  1
  H+  H16  1  0.49955309  0.88734703  0.48406491  1
  H+  H17  1  0.14022840  0.10192164  0.49790782  1
  H+  H18  1  0.61634142  0.72505649  0.01225387  1
  H+  H19  1  0.90101610  0.85826638  0.64661524  1
  H+  H20  1  1.02532364  0.88743432  1.01240060  1
  H+  H21  1  0.62611019  0.47643830  0.01518974  1
  H+  H22  1  0.59335578  0.63830710  0.67463357  1
  H+  H23  1  0.66152945  0.04196994  0.14533811  1
  H+  H24  1  0.12083667  0.97172881  0.82518485  1
  H+  H25  1  0.13836157  0.63251267  0.51464870  1
  H+  H26  1  0.62030095  0.25728160  0.17694568  1
  H+  H27  1  0.14276332  0.63046122  0.16904525  1
  H+  H28  1  0.13120475  0.01345121  0.17639249  1
  H+  H29  1  0.89468824  0.53656111  0.84174904  1
  H+  H30  1  0.57758381  0.17597574  0.76240904  1
  H+  H31  1  0.74163368  0.37570904  0.48978216  1
  H+  H32  1  0.98561204  0.62440974  0.18490936  1
  H+  H33  1  0.15452814  0.10700247  0.83583171  1
  H+  H34  1  0.43069629  0.31571505  0.94267553  1
  H+  H35  1  0.39015612  0.10612497  0.49249872  1
  H+  H36  1  0.72807974  0.38102696  0.83810331  1
  H+  H37  1  0.15286610  0.33002518  0.79394318  1
  H+  H38  1  1.03093210  0.88400479  0.82356974  1
  H+  H39  1  0.86495086  0.10753344  0.32477261  1
  H+  H40  1  0.61094944  0.24016431  0.81974006  1
  H+  H41  1  0.85495031  0.13397968  0.00634024  1
  H+  H42  1  0.45507568  0.06821793  0.67898377  1
  H+  H43  1  0.15859082  0.44920672  0.49036393  1
  H+  H44  1  0.13537563  0.77173032  0.99417285  1
  H+  H45  1  0.40236447  0.79417453  0.84322059  1
  H+  H46  1  0.62677481  0.01544646  0.32808057  1
  H+  H47  1  0.11922659  0.64035123  0.01046022  1
  H+  H48  1  0.38652859  1.01517896  -0.00971586  1
  H+  H49  1  0.17493733  0.88172009  0.33885057  1
  H+  H50  1  0.16068719  0.54005066  0.67118110  1
  H+  H51  1  0.52554535  0.64599708  0.16608727  1
  H+  H52  1  0.10895675  0.37844188  0.33204824  1
  H+  H53  1  0.58924092  0.93468544  0.73687105  1
  H+  H54  1  0.24460721  0.86287049  0.51013986  1
  H+  H55  1  0.08752010  0.91083091  0.10636523  1
  H+  H56  1  0.12453615  0.89921244  0.66223494  1
  H+  H57  1  0.11919656  0.88291169  0.16625971  1
  H+  H58  1  0.40105709  0.29290748  0.33559885  1
  H+  H59  1  0.21945454  0.35491350  0.33109513  1
  H+  H60  1  0.65915318  0.12612951  0.14725646  1
  H+  H61  1  0.22593547  0.35843722  0.17662666  1
  H+  H62  1  0.13691756  0.52178917  0.31597548  1
  H+  H63  1  0.37463282  0.98677731  0.82987616  1
  H+  H64  1  0.82936743  0.12645635  0.83873522  1
  H+  H65  1  0.13652768  0.86124139  0.99382643  1
  H+  H66  1  0.87387135  0.73392233  0.16784458  1
  H+  H67  1  0.38477938  0.86288396  0.17048836  1
  H+  H68  1  0.65711037  0.28215513  0.49168733  1
  H+  H69  1  0.13364467  0.11085515  0.99282721  1
  H+  H70  1  0.60645861  0.12695184  1.00084154  1
  H+  H71  1  0.36445034  0.20483489  0.00611404  1
  H+  H72  1  0.12640946  0.73385222  0.16390484  1
  H+  H73  1  0.91281756  0.83112838  0.89938498  1
  H+  H74  1  0.35617070  0.36651754  0.49623559  1
  H+  H75  1  0.03189504  0.64580291  0.49297443  1
  H+  H76  1  0.81009156  0.76833453  0.95904855  1
  H+  H77  1  0.57448765  0.31874020  0.62801555  1
  H+  H78  1  0.86634135  0.21845978  0.48818140  1
  H+  H79  1  0.09260639  0.67360541  0.10321303  1
  H+  H80  1  0.97054043  0.10985592  1.00603810  1
  H+  H81  1  0.90978175  0.79506374  0.33754715  1
  H+  H82  1  0.85337256  0.63690551  0.50300758  1
  H+  H83  1  0.69795832  0.86731748  0.47935003  1
  H+  H84  1  0.87817928  0.40701154  0.45686245  1
  H+  H85  1  0.39181646  0.53858410  0.97854943  1
  H+  H86  1  0.29293598  0.15304135  0.33691373  1
  H+  H87  1  0.91527078  0.74556465  0.67995084  1
  H+  H88  1  0.10154033  0.38435202  0.84222449  1
  H+  H89  1  0.86574165  0.22331266  0.68946873  1
  H+  H90  1  0.53295272  0.55719213  0.36758834  1
  H+  H91  1  0.87213013  0.26352259  0.33166700  1
  H+  H92  1  0.54416543  0.38152834  0.01284510  1
  H+  H93  1  0.53741136  0.91308276  0.83938373  1
  H+  H94  1  0.70533448  0.31186488  0.68438214  1
  H+  H95  1  0.27126651  0.88329739  0.00205260  1
  H+  H96  1  0.77918146  0.90030555  0.83995646  1
  H+  H97  1  0.55870957  0.90613569  0.39316810  1
  H+  H98  1  0.52726874  0.90451234  0.67785213  1
  H+  H99  1  0.16303703  0.32376299  0.23363829  1
  H+  H100  1  0.85645886  -0.02580102  0.33944746  1
  H+  H101  1  0.35467415  0.72850307  0.34373261  1
  H+  H102  1  0.15623257  0.02280108  0.50814938  1
  H+  H103  1  0.25266868  0.34646735  0.83641111  1
  H+  H104  1  0.71377719  0.60895539  0.50997612  1
  H+  H105  1  0.36584373  0.01500847  0.32950274  1
  H+  H106  1  0.86412047  0.46592267  0.00694914  1
  H+  H107  1  0.81133785  0.41468425  0.67667521  1
  H+  H108  1  0.95655238  0.11469052  0.32750711  1
  H+  H109  1  0.01242356  0.11518027  0.49620527  1
  H+  H110  1  0.36132725  0.64172327  0.16642402  1
  H+  H111  1  0.37537667  0.34001395  0.66398872  1
  H+  H112  1  0.96307608  0.36045237  0.17666701  1
  H+  H113  1  0.56921770  0.19362463  0.65351701  1
  H+  H114  1  0.60159975  0.21674498  0.34463865  1
  H+  H115  1  0.62705327  0.66077741  0.83458876  1
  H+  H116  1  0.59197388  0.87506261  0.33559599  1
  H+  H117  1  0.65324250  0.88624813  0.84848854  1
  H+  H118  1  1.10321514  0.22214827  0.99854829  1
  H+  H119  1  0.89086824  0.86335330  0.83958160  1
  H+  H120  1  0.94258025  0.61406870  0.27636073  1
  H+  H121  1  0.32753555  -0.04749966  0.49497400  1
  H+  H122  1  0.53810687  0.14208939  0.49952007  1
  H+  H123  1  0.64407340  0.12425167  0.51150537  1
  H+  H124  1  0.92643680  0.63042543  0.66762344  1
  H+  H125  1  0.04654642  0.08611071  0.34844367  1
  H+  H126  1  0.49665757  0.35079876  0.68597124  1
  H+  H127  1  0.87159937  0.23138662  0.15309977  1
  H+  H128  1  0.89840124  0.53802688  0.50427419  1
  H+  H129  1  0.40770619  0.83343490  0.23332842  1
  H+  H130  1  0.77001603  0.63158240  0.84513348  1
  H+  H131  1  0.62802401  0.10399689  0.33333704  1
  H+  H132  1  0.52495862  0.89123174  0.16359067  1
  H+  H133  1  0.79752527  0.65710558  0.34431594  1
  H+  H134  1  0.23909174  0.62842133  0.17098714  1
  H+  H135  1  0.36702739  0.85706467  0.32747506  1
  H+  H136  1  0.85715443  0.97308488  0.01742443  1
  H+  H137  1  0.58114023  0.40638366  0.11055500  1
  H+  H138  1  0.04870615  0.65474330  0.34162172  1
  H+  H139  1  0.04924389  0.11920929  0.82019963  1
  H+  H140  1  0.14062870  -0.01366615  0.34476019  1
  H+  H141  1  0.47338957  0.62550495  0.52028926  1
  H+  H142  1  0.37532194  0.25117957  0.66106804  1
  H+  H143  1  0.60003424  0.51565700  0.65698696  1
  H+  H144  1  0.77182997  0.37844943  0.00221753  1
  H+  H145  1  0.23009512  0.61885538  -0.00281282  1
  H+  H146  1  0.41976685  0.32229893  0.56670480  1
  H+  H147  1  0.38663519  0.53324930  0.17966002  1
  H+  H148  1  0.19098012  0.84250703  0.23769112  1
  H+  H149  1  1.00958344  0.62523021  0.65813280  1
  H+  H150  1  0.86488189  0.72807775  0.83813039  1
  H+  H151  1  0.34456500  0.10747975  0.68363677  1
  H+  H152  1  0.35703413  0.11338483  0.00008837  1
  H+  H153  1  0.61763169  0.38862208  0.33889028  1
  H+  H154  1  0.23767621  0.86586743  0.17296645  1
  H+  H155  1  1.04526550  0.40133128  0.69182292  1
  H+  H156  1  0.13212756  0.54176231  0.52326049  1
  H+  H157  1  0.37450989  0.13220470  0.83038405  1
  H+  H158  1  0.73008191  0.11863567  0.66339538  1
  H+  H159  1  0.64937284  0.90298712  0.63969663  1
  H+  H160  1  0.14077371  0.65754532  0.67824943  1
  H+  H161  1  0.37629259  0.77745989  0.51168986  1
  H+  H162  1  1.05251377  0.89877085  0.34636292  1
  H+  H163  1  0.63803826  0.76766314  0.32687855  1
  H+  H164  1  0.86180055  0.39678778  0.83115861  1
  H+  H165  1  0.13994460  0.52953150  -0.00487932  1
  H+  H166  1  0.13088883  0.26449026  0.32912566  1
  H+  H167  1  0.48101424  0.35771572  0.50755184  1
  H+  H168  1  0.89012114  0.60553266  1.00474153  1
  H+  H169  1  0.22071276  0.10497574  0.99296666  1
  H+  H170  1  0.38584068  0.77465767  0.99417418  1
  H+  H171  1  0.86200335  0.25007651  0.99119862  1
  H+  H172  1  0.75721933  0.60029016  0.64895314  1
  H+  H173  1  0.63858806  0.38038226  0.84263790  1
  H+  H174  1  0.66234080  0.53364443  0.32915783  1
  H+  H175  1  0.12220510  0.42264876  0.55578136  1
  H+  H176  1  0.39657002  0.29294269  0.20356439  1
  H+  H177  1  0.64397119  0.61396559  1.00474179  1
  H+  H178  1  0.86468523  0.71654292  1.01813090  1
  H+  H179  1  0.62661564  1.01003032  -0.00623897  1
  H+  H180  1  0.48956594  0.37269283  0.18093348  1
  H+  H181  1  0.88601873  0.10598247  0.66793234  1
  H+  H182  1  0.58306744  0.87929917  0.47976944  1
  H+  H183  1  0.84306525  0.37901429  0.16559564  1
  H+  H184  1  0.40119688  0.89432790  0.66019436  1
  H+  H185  1  0.28338683  0.13592128  0.48884608  1
  H+  H186  1  0.32419883  0.42080279  -0.09102371  1
  H+  H187  1  0.46188459  0.60765817  0.33241796  1
  H+  H188  1  0.61397361  0.73525194  0.16422853  1
  H+  H189  1  0.86794292  0.35191872  -0.00645598  1
  H+  H190  1  0.99634787  0.87098129  0.65416004  1
  H+  H191  1  0.14325368  0.61471638  0.32228231  1
  H+  H192  1  0.73839216  0.11489579  0.82470989  1
  H+  H193  1  0.23421997  0.13607366  0.65536802  1
  H+  H194  1  0.96544218  0.35094735  0.32879673  1
  H+  H195  1  0.11498300  0.21964233  0.15956104  1
  H+  H196  1  0.86289819  0.38889565  0.31879363  1
  H+  H197  1  0.87907944  0.03163579  0.85613268  1
  H+  H198  1  0.28366750  0.12945359  0.83374024  1
  H+  H199  1  0.38806182  0.63301918  0.52082936  1
  H+  H200  1  0.73363833  0.89780941  0.62585199  1
  H+  H201  1  0.86392187  0.97709887  0.16500638  1
  H+  H202  1  0.11047487  0.12869796  0.15690694  1
  H+  H203  1  0.36472695  0.85909813  0.50950471  1
  H+  H204  1  0.34477694  0.41060778  0.80465392  1
  H+  H205  1  0.41334986  0.34354170  1.00895563  1
  H+  H206  1  0.89331585  0.86894425  0.18170924  1
  H+  H207  1  0.19879299  0.36010796  0.96175662  1
  H+  H208  1  0.26890560  0.64537643  0.50117579  1
  H+  H209  1  0.21832436  0.10095309  0.16749120  1
  H+  H210  1  0.81963765  0.15416343  0.74108500  1
  H+  H211  1  0.65747944  0.61822824  0.33304219  1
  H+  H212  1  0.37628052  0.09859300  0.17216287  1
  H+  H213  1  0.40636491  0.07172005  0.23324212  1
  H+  H214  1  0.16278763  0.13011459  0.32259331  1
  H+  H215  1  -0.02211992  0.11013456  0.17336277  1
  H+  H216  1  0.11857937  0.73429953  0.82904199  1
  H+  H217  1  0.72878978  0.86818445  0.17704313  1
  H+  H218  1  0.98354621  0.36735474  0.49852922  1
  H+  H219  1  0.99776111  0.29573678  0.12266998  1
  H+  H220  1  0.26391867  0.36768153  0.67985999  1
  H+  H221  1  0.66920024  0.33453257  0.93222273  1
  H+  H222  1  0.88889955  0.66386239  0.35039971  1
  H+  H223  1  0.28503234  0.89618309  0.82719352  1
  H+  H224  1  0.28441542  0.65703747  0.83277744  1
  H+  H225  1  0.56407163  0.63830433  0.40954664  1
  H+  H226  1  0.78294208  0.64676909  0.16735932  1
  H+  H227  1  0.29044596  0.66701401  0.67965982  1
  H+  H228  1  0.14554071  0.86559055  0.83687332  1
  H+  H229  1  0.90899924  0.37952840  0.68190655  1
  H+  H230  1  0.75188362  0.63695723  0.66005568  1
  H+  H231  1  0.62063366  0.38978470  0.48968444  1
  H+  H232  1  0.73712443  0.12103701  0.51211373  1
  H+  H233  1  0.17095788  0.59112841  0.23124975  1
  H+  H234  1  0.64009598  0.02916886  0.66154762  1
  H+  H235  1  0.12885173  0.22191923  0.81917690  1
  H+  H236  1  0.11168502  -0.02291369  1.00896049  1
  H+  H237  1  0.66799740  0.83852168  0.94233422  1
  H+  H238  1  0.64973978  0.31545003  0.26866386  1
  H+  H239  1  0.02773511  0.63510219  0.01309644  1
  H+  H240  1  0.92922362  0.88708816  0.50404652  1
  H+  H241  1  0.60089909  0.12753175  0.66992569  1
  H+  H242  1  0.83805642  0.44552365  0.27798234  1
  H+  H243  1  0.70966575  0.34736690  0.17801320  1
  H+  H244  1  0.51883235  0.88246586  0.01068930  1
  H+  H245  1  0.85894853  0.85372684  -0.00474607  1
  H+  H246  1  0.71548333  0.35089852  0.32340980  1
  H+  H247  1  0.10030121  0.38906329  -0.00903488  1
  H+  H248  1  0.76502678  0.88560725  0.01596045  1
  H+  H249  1  0.64108743  0.53400913  0.84892467  1
  H+  H250  1  0.15316821  0.78798481  0.64318362  1
  H+  H251  1  0.52098423  0.39182408  0.84213156  1
  H+  H252  1  0.61190707  0.21859573  0.00099868  1
  H+  H253  1  0.47552698  0.10675589  -0.00771497  1
  H+  H254  1  0.65112237  0.63046778  0.17758360  1
  H+  H255  1  0.36210420  0.97163046  0.15596556  1
  H+  H256  1  0.80280773  0.84918031  0.49038751  1
  H+  H257  1  0.41065547  0.64846940  0.84322216  1
  H+  H258  1  0.72514831  0.85660448  0.33099643  1
  H+  H259  1  0.45904906  0.86042131  0.32641184  1
  H+  H260  1  1.11978466  0.15015336  0.66185838  1
  H+  H261  1  0.60220288  0.72192291  0.48881776  1
  H+  H262  1  0.49687665  0.65547325  0.67235851  1
  H+  H263  1  0.34745519  0.47593299  0.34460051  1
  H+  H264  1  0.75479130  0.12598536  0.33946780  1
  H+  H265  1  0.36899106  0.64448222  1.01107768  1
  H+  H266  1  0.40302712  0.66116156  0.67086888  1
  H+  H267  1  0.91523710  0.55419664  0.33459997  1
  H+  H268  1  0.37366270  0.39702027  0.17274067  1
  H+  H269  1  0.71302327  0.09912927  0.98649902  1
  H+  H270  1  0.68914075  0.33494898  0.70416481  1
  H+  H271  1  0.39532544  0.25619555  0.85253553  1
  H+  H272  1  0.60250595  0.63182864  0.49761891  1
  H+  H273  1  0.48774689  0.12159499  0.83715043  1
  H+  H274  1  0.53637050  0.40237613  0.34231171  1
  H+  H275  1  0.36302844  0.73291307  0.16499461  1
  H+  H276  1  0.97683602  0.10854156  0.66390760  1
  H+  H277  1  0.51422002  0.12542006  0.15775162  1
  H+  H278  1  0.22649632  0.33158851  0.50941475  1
  H+  H279  1  0.11950520  0.91738894  0.44753171  1
  H+  H280  1  0.14215247  0.53487041  0.84642121  1
  H+  H281  1  0.48352761  0.61839164  0.00112808  1
  H+  H282  1  0.63065903  0.86042711  1.00149863  1
  H+  H283  1  0.94820814  0.13260503  0.86164707  1
  H+  H284  1  0.90303389  0.07761376  0.95154560  1
  H+  H285  1  0.42628144  0.05746890  0.45498842  1
  H+  H286  1  0.86430396  0.96973310  0.66134052  1
  H+  H287  1  0.65056495  0.79459214  0.84371614  1
  H+  H288  1  0.93713055  0.85086498  0.27680563  1
  H+  H289  1  0.10623764  0.19910346  0.49730440  1
  H+  H290  1  0.80536511  0.87992843  0.69662264  1
  H+  H291  1  0.82885904  0.66978610  0.44432965  1
  H+  H292  1  0.66709843  0.83749063  0.23501478  1
  H+  H293  1  0.90711513  0.33196517  0.23781391  1
  H+  H294  1  0.85886781  0.67469170  0.72905822  1
  H+  H295  1  0.54037455  0.66627607  0.83460087  1
  H+  H296  1  0.37937967  0.33500787  0.86097238  1
  H+  H297  1  0.42938273  0.62371553  0.60667296  1
  H+  H298  1  0.17295919  0.59565014  0.90395826  1
  H+  H299  1  0.37534035  0.76209270  0.67822478  1
  H+  H300  1  0.11474554  0.64387244  0.82991444  1
  H+  H301  1  0.61538504  0.56547216  0.59495875  1
  H+  H302  1  0.90907905  0.07322884  0.57126507  1
  H+  H303  1  0.81018718  0.40117324  0.10608304  1
  H+  H304  1  0.85899907  0.12580338  0.49772699  1
  H+  H305  1  0.83208633  0.91207524  0.10896493  1
  H+  H306  1  0.32002038  0.39846896  0.44142336  1
  H+  H307  1  0.13512227  0.31007906  0.91020587  1
  H+  H308  1  0.62595060  0.51966808  0.50455103  1
  H+  H309  1  0.84133856  0.44589331  0.40967009  1
  H+  H310  1  0.17322954  0.83647007  0.89776809  1
  H+  H311  1  0.44130324  0.62170888  0.90282633  1
  H+  H312  1  0.67536678  0.58931994  0.91077801  1
  H+  H313  1  0.57925484  0.91380587  0.07059250  1
  H+  H314  1  0.33081994  0.39177786  -0.02527410  1
  H+  H315  1  0.96002600  0.35203776  0.84125796  1
  H+  H316  1  0.36121864  0.88351771  0.00365871  1
  H+  H317  1  0.18735680  0.11677136  0.59071990  1
  H+  H318  1  0.43109564  0.36003099  0.28050930  1
  H+  H319  1  0.57083195  0.42048482  0.77922201  1
  H+  H320  1  0.17988269  0.08948782  0.26362914  1
  H+  H321  1  0.09621906  0.66837795  0.43579315  1
  H+  H322  1  0.68491214  0.60142497  0.23469081  1
  H+  H323  1  0.57200821  0.16052625  0.09758555  1
  H+  H324  1  0.08774501  0.15947020  0.72794425  1
  H+  H325  1  0.42089222  0.83994367  0.93643174  1
  H+  H326  1  0.63666266  0.03208156  0.89304279  1
  H+  H327  1  0.35109719  0.45112189  0.69482418  1
  H+  H328  1  0.34203928  0.42255566  0.11300596  1
  H+  H329  1  0.58741385  0.66842972  0.07285432  1
  H+  H330  1  0.08787756  0.42062204  0.78100581  1
  H+  H331  1  0.93824840  0.33706780  0.63142375  1
  H+  H332  1  0.62559962  0.30281269  0.57723094  1
  H+  H333  1  0.34448383  0.69403717  0.77392117  1
  H+  H334  1  0.90157839  0.50436725  0.67552548  1
  H+  H335  1  0.33145959  0.15522339  0.73953361  1
  H+  H336  1  0.83390524  0.90885077  0.43075264  1
  H+  H337  1  0.89874477  0.34724660  0.53198555  1
  H+  H338  1  0.92142727  0.58420236  0.94265856  1
  H+  H339  1  0.12938437  0.39541964  0.68295155  1
  H+  H340  1  0.16474100  0.31985351  0.60474372  1
  H+  H341  1  0.32615596  0.67007565  0.44023025  1
  H+  H342  1  0.84832225  0.43804538  0.77142104  1
  H+  H343  1  0.83405742  0.17391570  0.06156772  1
  H+  H344  1  0.09076257  0.34908441  0.15114286  1
  H+  H345  1  0.58871219  0.16218173  0.43721852  1
  H+  H346  1  0.67558020  0.09366140  0.57837924  1
  H+  H347  1  0.18089103  0.59906853  0.61078448  1
  H+  H348  1  0.89825996  0.62619467  0.18752710  1
  H+  H349  1  0.06947029  0.14769872  0.40475820  1
  H+  H350  1  0.94502879  0.84117206  0.56043673  1
  H+  H351  1  0.07611590  0.40749503  0.05586913  1
  H+  H352  1  0.81839392  0.15348075  0.39769627  1
  H+  H353  1  0.93113291  0.59092072  0.56696051  1
  H+  H354  1  0.84189372  0.66354780  0.08036452  1
  H+  H355  1  0.33499980  0.67224528  0.06928735  1
  H+  H356  1  0.87651228  0.01160894  0.51278443  1
  H+  H357  1  0.37778752  0.61747609  0.33329260  1
  H+  H358  1  0.73243858  0.61106309  1.00712506  1
  H+  H359  1  0.09261287  0.91672646  0.72513029  1
  H+  H360  1  0.08459771  0.41872992  0.38690322  1
  H+  H361  1  0.35883220  0.39330595  0.34526886  1
  H+  H362  1  0.35417688  0.94892198  0.73735840  1
  H+  H363  1  0.89357806  0.31793974  0.92846833  1
  H+  H364  1  0.91263435  0.08512139  0.23033980  1
  H+  H365  1  0.58766792  0.41904851  0.43279368  1
  H+  H366  1  0.16981236  0.07358491  0.89965025  1
  H+  H367  1  0.42052668  0.85338257  0.60135654  1
  H+  H368  1  0.61359450  0.89092344  0.16300767  1
  H+  H369  1  0.31896763  0.13592562  0.08743369  1
  H+  H370  1  0.98459452  0.62798870  0.84101457  1
  H+  H371  1  0.10207948  0.68759534  0.73173507  1
  H+  H372  1  0.89189069  0.15490886  0.14925683  1
  H+  H373  1  0.08555475  0.17028287  0.06264930  1
  H+  H374  1  0.41146773  0.59188389  0.23860242  1
  H+  H375  1  0.65670040  0.85314773  0.54449311  1
  H+  H376  1  0.26988612  0.63689035  0.34174944  1
  H+  H377  1  0.87311939  0.63564203  0.84162542  1
  H+  H378  1  0.55519515  0.32225075  0.72123466  1
  H+  H379  1  0.38479307  0.11208318  0.32868304  1
  H+  H380  1  0.33146896  0.91286002  0.09501805  1
  H+  H381  1  0.58938102  0.68443324  0.73683354  1
  H+  H382  1  0.34830398  0.17645182  0.39833531  1
  H+  H383  1  0.84691717  0.94334401  0.78539301  1
  O2-  O384  1  0.08222784  0.16074475  0.14165004  1
  O2-  O385  1  0.07050960  0.14174768  0.47708507  1
  O2-  O386  1  0.10679921  0.15571908  0.80448510  1
  O2-  O387  1  0.04547851  0.35544069  0.13017840  1
  O2-  O388  1  0.10478129  0.42001707  0.51329255  1
  O2-  O389  1  0.07333417  0.41467478  0.82529866  1
  O2-  O390  1  0.09669029  0.67300770  0.14905614  1
  O2-  O391  1  0.09287159  0.66950655  0.48064629  1
  O2-  O392  1  0.08376508  0.67322467  0.81426301  1
  O2-  O393  1  0.08732356  0.91170074  0.15159108  1
  O2-  O394  1  0.11486961  0.92024884  0.49204509  1
  O2-  O395  1  0.09038252  0.91184000  0.80831898  1
  O2-  O396  1  0.31888617  0.14217464  0.13370906  1
  O2-  O397  1  0.34459672  0.16461625  0.47429390  1
  O2-  O398  1  0.34369850  0.16409319  0.81787879  1
  O2-  O399  1  0.33841079  0.42262661  0.15718848  1
  O2-  O400  1  0.31592334  0.38750675  0.48569245  1
  O2-  O401  1  0.32035222  0.37840680  0.84215451  1
  O2-  O402  1  0.33009400  0.67108964  0.15026840  1
  O2-  O403  1  0.32896156  0.67329236  0.48553132  1
  O2-  O404  1  0.34523011  0.69125322  0.81923176  1
  O2-  O405  1  0.33161168  0.91093543  0.14073321  1
  O2-  O406  1  0.29437498  0.89221552  0.48110241  1
  O2-  O407  1  0.34556800  0.92679438  0.81230721  1
  O2-  O408  1  0.57371187  0.16208619  0.14274768  1
  O2-  O409  1  0.59741397  0.16888026  0.48288470  1
  O2-  O410  1  0.57995149  0.17925469  0.80731451  1
  O2-  O411  1  0.56924349  0.39606534  0.15468495  1
  O2-  O412  1  0.58421515  0.41493335  0.47813381  1
  O2-  O413  1  0.57884565  0.43032104  0.82393603  1
  O2-  O414  1  0.58482202  0.67426419  0.14957960  1
  O2-  O415  1  0.56977264  0.65904201  0.48000206  1
  O2-  O416  1  0.60234330  0.69485138  0.81852192  1
  O2-  O417  1  0.58301026  0.91906605  0.14511582  1
  O2-  O418  1  0.55654007  0.91208751  0.46381474  1
  O2-  O419  1  0.60050601  0.94297166  0.82638759  1
  O2-  O420  1  0.89293746  0.20275854  0.12560552  1
  O2-  O421  1  0.82858158  0.15612587  0.48180232  1
  O2-  O422  1  0.80106597  0.15390959  0.81687624  1
  O2-  O423  1  0.80495835  0.40041351  0.15059680  1
  O2-  O424  1  0.84665581  0.43850020  0.45340394  1
  O2-  O425  1  0.84006180  0.43483651  0.81644255  1
  O2-  O426  1  0.84514656  0.67350947  0.15292089  1
  O2-  O427  1  0.81271338  0.65402895  0.48734826  1
  O2-  O428  1  0.83430157  0.66353566  0.82957375  1
  O2-  O429  1  0.83422838  0.91449659  0.15423833  1
  O2-  O430  1  0.83257417  0.90874287  0.47673801  1
  O2-  O431  1  0.84362260  0.93228221  0.82896965  1
  O2-  O432  1  0.16159205  0.07594094  0.18814166  1
  O2-  O433  1  0.18191060  0.08651852  0.51465977  1
  O2-  O434  1  0.17844891  0.07253473  0.85495867  1
  O2-  O435  1  0.16485255  0.32250089  0.18844991  1
  O2-  O436  1  0.16427390  0.29667483  0.52710890  1
  O2-  O437  1  0.15917038  0.30787995  0.83289387  1
  O2-  O438  1  0.17480581  0.59800216  0.18483915  1
  O2-  O439  1  0.16860800  0.60186531  0.53480639  1
  O2-  O440  1  0.17304495  0.59606507  0.85819396  1
  O2-  O441  1  0.17940055  0.83658641  0.19355943  1
  O2-  O442  1  0.15986372  0.82199011  0.55893453  1
  O2-  O443  1  0.17734113  0.83691322  0.85252230  1
  O2-  O444  1  0.40759863  0.07031065  0.18794220  1
  O2-  O445  1  0.41857030  0.07007809  0.49680891  1
  O2-  O446  1  0.42649765  0.08590467  0.85310278  1
  O2-  O447  1  0.42906830  0.35539867  0.20304541  1
  O2-  O448  1  0.42001424  0.32374479  0.52144103  1
  O2-  O449  1  0.42090905  0.31517037  0.87225375  1
  O2-  O450  1  0.41465093  0.59403590  0.19303439  1
  O2-  O451  1  0.41950840  0.60890589  0.54311583  1
  O2-  O452  1  0.44557817  0.62331638  0.85783038  1
  O2-  O453  1  0.41357133  0.83239473  0.18820894  1
  O2-  O454  1  0.40357262  0.83875711  0.52497970  1
  O2-  O455  1  0.43410108  0.85486101  0.85874035  1
  O2-  O456  1  0.69867517  0.10425555  0.14024393  1
  O2-  O457  1  0.67698755  0.09651318  0.53023760  1
  O2-  O458  1  0.63528935  0.03292129  0.84718960  1
  O2-  O459  1  0.64947293  0.31595869  0.19608388  1
  O2-  O460  1  0.68257780  0.34232467  0.50619339  1
  O2-  O461  1  0.66850301  0.34832277  0.85403791  1
  O2-  O462  1  0.68673433  0.60534343  0.18985083  1
  O2-  O463  1  0.65054812  0.57915680  0.52086485  1
  O2-  O464  1  0.67953886  0.59354643  0.86502036  1
  O2-  O465  1  0.66704464  0.83893689  0.18986304  1
  O2-  O466  1  0.64431544  0.83057205  0.50105166  1
  O2-  O467  1  0.68309755  0.85469893  0.86140749  1
  O2-  O468  1  0.91617772  0.08291025  0.18522933  1
  O2-  O469  1  0.90732293  0.07263342  0.52567464  1
  O2-  O470  1  0.89120108  0.08808428  0.87432520  1
  O2-  O471  1  0.90458898  0.33874828  0.19324040  1
  O2-  O472  1  0.92067697  0.33849426  0.49367203  1
  O2-  O473  1  0.89896050  0.32622638  0.85469725  1
  O2-  O474  1  0.93116675  0.60159742  0.20735011  1
  O2-  O475  1  0.92775087  0.59609445  0.52203170  1
  O2-  O476  1  0.92326585  0.59743972  0.85731935  1
  O2-  O477  1  0.92409936  0.83974331  0.19801728  1
  O2-  O478  1  0.95435847  0.85198281  0.51561587  1
  O2-  O479  1  0.91684453  0.82912220  0.85415411  1
  O2-  O480  1  0.18852461  0.09600587  0.30906718  1
  O2-  O481  1  0.19243874  0.14379347  0.63095882  1
  O2-  O482  1  0.15967087  0.07581359  0.97904849  1
  O2-  O483  1  0.15919793  0.32394406  0.31400716  1
  O2-  O484  1  0.16126817  0.32867475  0.64921147  1
  O2-  O485  1  0.13725430  0.31835655  0.95515147  1
  O2-  O486  1  0.17015084  0.58273087  0.30268310  1
  O2-  O487  1  0.18831981  0.60008798  0.65601873  1
  O2-  O488  1  0.17011085  0.59171619  0.98142130  1
  O2-  O489  1  0.20590530  0.85019242  0.32544663  1
  O2-  O490  1  0.17723527  0.84559387  0.62343665  1
  O2-  O491  1  0.16594915  0.83145799  0.97721863  1
  O2-  O492  1  0.40664214  0.07334100  0.31456669  1
  O2-  O493  1  0.39111561  0.03813566  0.67238412  1
  O2-  O494  1  0.41525074  0.07639386  0.97575221  1
  O2-  O495  1  0.42764565  0.35555317  0.32586475  1
  O2-  O496  1  0.40781924  0.31279010  0.64784183  1
  O2-  O497  1  0.43797174  0.31260338  0.98895674  1
  O2-  O498  1  0.40271632  0.58279449  0.31602677  1
  O2-  O499  1  0.43272268  0.62895065  0.65522745  1
  O2-  O500  1  0.42653083  0.60179664  0.98253564  1
  O2-  O501  1  0.39727810  0.82782976  0.31199577  1
  O2-  O502  1  0.42696886  0.85881730  0.64681772  1
  O2-  O503  1  0.41657608  0.83655417  0.98183647  1
  O2-  O504  1  0.66133734  0.07766398  0.31830766  1
  O2-  O505  1  0.67162792  0.08968158  0.64427761  1
  O2-  O506  1  0.65358127  0.06587704  0.97065472  1
  O2-  O507  1  0.65325223  0.31956332  0.31503112  1
  O2-  O508  1  0.57792859  0.27305131  0.60634305  1
  O2-  O509  1  0.67184591  0.32814656  0.97725987  1
  O2-  O510  1  0.69302748  0.59541385  0.31658312  1
  O2-  O511  1  0.58657086  0.55464396  0.63544822  1
  O2-  O512  1  0.67426544  0.58425313  0.98794202  1
  O2-  O513  1  0.66475446  0.82809754  0.31559337  1
  O2-  O514  1  0.68725831  0.90384053  0.60696707  1
  O2-  O515  1  0.66443104  0.83248894  0.98730899  1
  O2-  O516  1  0.89862892  0.07944535  0.31030244  1
  O2-  O517  1  0.91463158  0.07593513  0.65024410  1
  O2-  O518  1  0.90742045  0.07780216  0.99652211  1
  O2-  O519  1  0.90429454  0.32483837  0.31712833  1
  O2-  O520  1  0.93498159  0.34139580  0.67533130  1
  O2-  O521  1  0.89159113  0.31428869  0.97454383  1
  O2-  O522  1  0.94722307  0.61518173  0.32326703  1
  O2-  O523  1  0.94676915  0.59308271  0.64707223  1
  O2-  O524  1  0.92027687  0.57631877  0.98723293  1
  O2-  O525  1  0.94107599  0.85595324  0.32218124  1
  O2-  O526  1  0.93615174  0.83171042  0.63713304  1
  O2-  O527  1  0.86831633  0.80966703  0.97215983  1
  O2-  O528  1  0.07984162  0.16411423  0.01737513  1
  O2-  O529  1  0.06899022  0.14661828  0.35822870  1
  O2-  O530  1  0.07823808  0.16494363  0.68384472  1
  O2-  O531  1  0.08639266  0.42804842  0.01324023  1
  O2-  O532  1  0.07978793  0.41225614  0.34293326  1
  O2-  O533  1  0.10734445  0.43118428  0.70216690  1
  O2-  O534  1  0.08848137  0.67014215  0.02700598  1
  O2-  O535  1  0.10938566  0.67396113  0.35508860  1
  O2-  O536  1  0.10859430  0.68832275  0.68677923  1
  O2-  O537  1  0.08499020  0.91671616  0.02572101  1
  O2-  O538  1  0.11389189  0.92625670  0.35924594  1
  O2-  O539  1  0.09017955  0.92229268  0.68054829  1
  O2-  O540  1  0.32534261  0.14317751  0.01614302  1
  O2-  O541  1  0.35294116  0.18241398  0.35264872  1
  O2-  O542  1  0.32737087  0.15014151  0.69422499  1
  O2-  O543  1  0.31717660  0.43078528  -0.04658760  1
  O2-  O544  1  0.31967004  0.41482878  0.35835957  1
  O2-  O545  1  0.32059786  0.38910299  0.70059022  1
  O2-  O546  1  0.33513041  0.67220101  0.02409466  1
  O2-  O547  1  0.32792649  0.66851066  0.36045888  1
  O2-  O548  1  0.35032253  0.70227195  0.69553587  1
  O2-  O549  1  0.33127746  0.91489439  0.01818458  1
  O2-  O550  1  0.29212738  0.89898054  0.35357483  1
  O2-  O551  1  0.35697615  0.94909005  0.69145012  1
  O2-  O552  1  0.57776110  0.15849935  0.01623562  1
  O2-  O553  1  0.57328979  0.15791812  0.36318130  1
  O2-  O554  1  0.55990953  0.14634486  0.68219216  1
  O2-  O555  1  0.60271270  0.41636237  0.02999762  1
  O2-  O556  1  0.59791180  0.42826417  0.35447105  1
  O2-  O557  1  0.55508651  0.37297087  0.70572093  1
  O2-  O558  1  0.58849195  0.66454134  0.02722382  1
  O2-  O559  1  0.55856339  0.61944131  0.36497626  1
  O2-  O560  1  0.58259138  0.68372765  0.69197839  1
  O2-  O561  1  0.57993540  0.91138549  0.02463314  1
  O2-  O562  1  0.56063814  0.90506408  0.34654524  1
  O2-  O563  1  0.58853560  0.93374446  0.69197701  1
  O2-  O564  1  0.82292593  0.16476625  0.01633845  1
  O2-  O565  1  0.81860418  0.15885443  0.35298344  1
  O2-  O566  1  0.83032626  0.16069082  0.69604153  1
  O2-  O567  1  0.83201425  0.40403612  0.01887780  1
  O2-  O568  1  0.83713513  0.42754005  0.32021350  1
  O2-  O569  1  0.86902183  0.44267962  0.69403763  1
  O2-  O570  1  0.83843911  0.65752979  0.03404952  1
  O2-  O571  1  0.85547582  0.69174717  0.36305621  1
  O2-  O572  1  0.91227400  0.69854675  0.70635714  1
  O2-  O573  1  0.82647957  0.91091269  0.02948688  1
  O2-  O574  1  0.83293604  0.91443438  0.35525496  1
  O2-  O575  1  0.83130963  0.90506570  0.65769256  1
