# generated using pymatgen
data_H2O
_symmetry_space_group_name_H-M   'P 1'
_cell_length_a   17.97646399
_cell_length_b   17.98718135
_cell_length_c   21.98551603
_cell_angle_alpha   90.05138397
_cell_angle_beta   89.97451162
_cell_angle_gamma   120.00564799
_symmetry_Int_Tables_number   1
_chemical_formula_structural   H2O
_chemical_formula_sum   'H384 O192'
_cell_volume   6156.15836297
_cell_formula_units_Z   192
loop_
 _symmetry_equiv_pos_site_id
 _symmetry_equiv_pos_as_xyz
  1  'x, y, z'
loop_
 _atom_type_symbol
 _atom_type_oxidation_number
  H+  1.0
  O2-  -2.0
loop_
 _atom_site_type_symbol
 _atom_site_label
 _atom_site_symmetry_multiplicity
 _atom_site_fract_x
 _atom_site_fract_y
 _atom_site_fract_z
 _atom_site_occupancy
  H+  H0  1  0.12305789  0.52220381  0.50720476  1
  H+  H1  1  0.64852704  0.78791424  0.50494846  1
  H+  H2  1  0.16647399  0.58011012  0.24122606  1
  H+  H3  1  -0.02804994  0.38592921  -0.01908944  1
  H+  H4  1  0.76580715  0.62245459  0.34147994  1
  H+  H5  1  0.78841776  0.90581516  0.16414370  1
  H+  H6  1  0.35521752  0.70288755  0.82368143  1
  H+  H7  1  0.62254990  0.98036138  0.82650173  1
  H+  H8  1  0.72665375  0.85772369  0.83931371  1
  H+  H9  1  0.10719369  0.87188441  0.67198187  1
  H+  H10  1  0.88043644  0.22189374  0.33706918  1
  H+  H11  1  0.12829487  0.62343088  0.84992083  1
  H+  H12  1  0.33138366  0.66586873  0.43233489  1
  H+  H13  1  0.84136957  0.59025047  0.16281146  1
  H+  H14  1  0.96679633  0.60051815  0.65004042  1
  H+  H15  1  0.86263363  0.51763936  0.99502433  1
  H+  H16  1  0.60816952  0.62713657  0.34167812  1
  H+  H17  1  0.14990694  1.01791827  0.66963398  1
  H+  H18  1  0.35484120  0.63900951  0.67164138  1
  H+  H19  1  0.11710248  0.21305254  0.67158051  1
  H+  H20  1  0.64758181  0.28772680  0.82604280  1
  H+  H21  1  0.63790323  0.36347885  0.50887870  1
  H+  H22  1  0.85553174  0.72726165  0.48233767  1
  H+  H23  1  0.88187086  0.51491364  0.64392283  1
  H+  H24  1  0.80901120  0.43047503  0.07198215  1
  H+  H25  1  0.83853241  0.60139446  0.81903816  1
  H+  H26  1  0.90096850  0.46009664  0.83061053  1
  H+  H27  1  0.61419140  0.56305227  0.19505077  1
  H+  H28  1  0.62132254  0.32066059  0.96934960  1
  H+  H29  1  0.56609334  0.41639808  0.72568142  1
  H+  H30  1  0.11566482  0.49373683  0.64792200  1
  H+  H31  1  0.65648062  1.00412971  0.48553576  1
  H+  H32  1  0.61946954  0.86784111  0.67794640  1
  H+  H33  1  0.22209788  0.62181470  0.65263367  1
  H+  H34  1  0.06420243  0.67531287  0.25041758  1
  H+  H35  1  0.61117917  0.63721476  -0.01318831  1
  H+  H36  1  0.27305196  0.90636632  0.62225868  1
  H+  H37  1  0.63045427  0.61434466  0.50292641  1
  H+  H38  1  0.71977064  0.60566784  0.65452758  1
  H+  H39  1  0.28179097  0.64605598  0.34521396  1
  H+  H40  1  0.86055307  0.58870324  0.32866426  1
  H+  H41  1  0.11123151  0.14034401  0.82630436  1
  H+  H42  1  0.38168399  1.02460685  -0.00152393  1
  H+  H43  1  0.36253282  0.38471090  0.00551085  1
  H+  H44  1  0.89421338  0.02752280  0.49775166  1
  H+  H45  1  0.13722421  0.80403982  0.15035604  1
  H+  H46  1  0.85279797  0.76186795  0.00872294  1
  H+  H47  1  0.99518006  0.12212157  0.16699169  1
  H+  H48  1  0.62306445  0.34440963  0.33019763  1
  H+  H49  1  0.16239670  0.83121221  0.22139947  1
  H+  H50  1  0.61605061  0.95427418  0.68091345  1
  H+  H51  1  0.01678450  0.12700819  -0.01127116  1
  H+  H52  1  0.99865000  0.89062001  0.88403521  1
  H+  H53  1  0.22353872  0.35832604  0.99375225  1
  H+  H54  1  0.61968982  0.22928297  0.49422682  1
  H+  H55  1  0.78989627  0.38057281  0.67216384  1
  H+  H56  1  0.13189308  0.33469740  0.69450333  1
  H+  H57  1  -0.11815122  0.35364056  0.32169402  1
  H+  H58  1  0.12352001  0.85945567  0.49341051  1
  H+  H59  1  0.66520818  0.13291466  0.64356165  1
  H+  H60  1  0.01198024  0.41013378  0.82019160  1
  H+  H61  1  0.10232357  0.48753374  0.34543050  1
  H+  H62  1  0.77435276  0.87240890  0.33388020  1
  H+  H63  1  0.26638559  0.86568387  0.34175066  1
  H+  H64  1  0.54400026  0.14883262  0.84968435  1
  H+  H65  1  0.12539237  0.14485252  -0.01669896  1
  H+  H66  1  0.32674326  0.90838965  0.43763384  1
  H+  H67  1  0.19342534  0.12016425  0.79250683  1
  H+  H68  1  0.61585030  0.87922718  0.01120588  1
  H+  H69  1  0.09703334  0.61138031  0.67829041  1
  H+  H70  1  0.12788555  0.27924554  0.83829672  1
  H+  H71  1  0.38051151  0.25427628  0.33008650  1
  H+  H72  1  0.02635639  0.89514141  0.14610618  1
  H+  H73  1  0.38221787  0.25011365  0.17202109  1
  H+  H74  1  0.02341845  0.37997181  0.16273426  1
  H+  H75  1  0.13418263  0.03204878  0.17115192  1
  H+  H76  1  0.66889252  0.80071611  0.16904142  1
  H+  H77  1  0.96364200  0.61924460  0.47814806  1
  H+  H78  1  0.87967647  0.35376561  0.89220960  1
  H+  H79  1  0.27044656  0.37171738  0.16169947  1
  H+  H80  1  0.21619783  0.36422623  0.50887489  1
  H+  H81  1  0.01901859  0.55468864  0.72036775  1
  H+  H82  1  0.02200371  0.39414285  0.33422291  1
  H+  H83  1  0.22696556  0.36612328  0.67147475  1
  H+  H84  1  0.47136375  0.61388023  0.66451274  1
  H+  H85  1  0.94884218  0.84301039  0.61436354  1
  H+  H86  1  1.10810028  0.96532348  0.49484772  1
  H+  H87  1  0.44210185  0.05210699  0.78241795  1
  H+  H88  1  0.37502351  0.63722700  0.01508498  1
  H+  H89  1  0.39481937  0.26738281  0.65548841  1
  H+  H90  1  0.95374626  0.14261283  0.32955573  1
  H+  H91  1  0.88287801  0.46703591  0.16222495  1
  H+  H92  1  0.59993303  0.47781250  0.66418667  1
  H+  H93  1  0.09980211  0.37754174  1.01243057  1
  H+  H94  1  0.51924179  0.38243175  0.49538537  1
  H+  H95  1  0.08482581  0.59027758  1.02952376  1
  H+  H96  1  0.66283431  0.27939647  0.65682277  1
  H+  H97  1  0.47947301  0.85047286  0.66762054  1
  H+  H98  1  0.35174907  0.38380806  0.83219817  1
  H+  H99  1  0.65577789  0.12572482  0.85457004  1
  H+  H100  1  0.03646446  0.92061565  0.80156285  1
  H+  H101  1  0.36214698  0.62746535  0.34137424  1
  H+  H102  1  0.88978459  0.01280239  0.66405068  1
  H+  H103  1  0.88706958  0.39030402  0.99219371  1
  H+  H104  1  0.38368219  0.26633961  0.50228920  1
  H+  H105  1  0.32875966  0.42786715  0.73456477  1
  H+  H106  1  0.63688160  0.76200893  0.66016657  1
  H+  H107  1  0.77863420  0.12296356  0.01233572  1
  H+  H108  1  0.61907932  0.89345324  0.16399773  1
  H+  H109  1  0.88370472  0.75018701  0.32249921  1
  H+  H110  1  0.35857775  0.11863579  0.34444569  1
  H+  H111  1  0.38245595  0.51038255  0.33333383  1
  H+  H112  1  0.38649011  0.27208808  0.83866277  1
  H+  H113  1  0.35405299  0.46492713  0.48884559  1
  H+  H114  1  0.77277523  0.90383164  1.00281831  1
  H+  H115  1  0.85685673  0.40806251  0.73065145  1
  H+  H116  1  0.53829599  0.13664321  0.66710665  1
  H+  H117  1  0.14532760  0.12648832  0.16884377  1
  H+  H118  1  0.14673603  0.10531647  0.66188966  1
  H+  H119  1  0.51443302  0.36857279  0.34303136  1
  H+  H120  1  0.63723996  0.00987700  0.99873102  1
  H+  H121  1  0.51890708  0.56941996  0.17086707  1
  H+  H122  1  0.86802319  0.87706291  0.68049230  1
  H+  H123  1  0.58322187  0.40627041  0.07028086  1
  H+  H124  1  0.74336823  0.62201150  0.99299173  1
  H+  H125  1  0.35834266  0.87122456  0.34347251  1
  H+  H126  1  0.34800547  0.59232900  0.18205432  1
  H+  H127  1  0.88822078  0.86367682  0.14417859  1
  H+  H128  1  0.12362881  0.26687817  0.32766326  1
  H+  H129  1  0.37715878  0.13781256  0.67429976  1
  H+  H130  1  0.38910905  0.51710140  1.00182331  1
  H+  H131  1  0.38952708  1.02198058  0.18255187  1
  H+  H132  1  0.11941508  0.86603970  0.85229118  1
  H+  H133  1  0.34567090  0.88046264  0.85334962  1
  H+  H134  1  0.70994015  0.69897533  0.12619345  1
  H+  H135  1  0.12480666  0.60370933  0.04812255  1
  H+  H136  1  0.53376818  0.66451181  0.49319027  1
  H+  H137  1  0.09591707  0.69599249  0.09078772  1
  H+  H138  1  0.99066551  0.86202883  0.67792371  1
  H+  H139  1  0.90538919  0.87542616  0.87052802  1
  H+  H140  1  0.38238415  0.77337577  0.67101443  1
  H+  H141  1  0.10928456  0.75401934  0.64322284  1
  H+  H142  1  0.51514222  0.38102417  0.81930774  1
  H+  H143  1  0.75574829  0.37653036  0.01186213  1
  H+  H144  1  -0.04334324  0.35269993  0.49200024  1
  H+  H145  1  0.66356517  0.56111609  0.27992035  1
  H+  H146  1  0.48074871  0.60845421  0.99918886  1
  H+  H147  1  0.60680370  0.62815179  0.67469474  1
  H+  H148  1  0.73994641  0.11880732  0.84564474  1
  H+  H149  1  0.89577140  0.36653368  0.65763334  1
  H+  H150  1  0.13647541  0.88949918  1.00140367  1
  H+  H151  1  0.52927116  0.58728406  0.20316745  1
  H+  H152  1  0.60828383  0.36340063  0.16139811  1
  H+  H153  1  0.67161503  0.82834228  0.60241651  1
  H+  H154  1  0.26383920  0.36942597  0.34146299  1
  H+  H155  1  0.84253853  0.72270599  0.14084060  1
  H+  H156  1  0.39636082  0.77130541  0.32743889  1
  H+  H157  1  0.60908006  0.63102744  0.82721877  1
  H+  H158  1  0.85475803  0.63658492  0.48554311  1
  H+  H159  1  0.38446592  0.78029073  0.17568887  1
  H+  H160  1  0.39527173  0.76398913  0.00635490  1
  H+  H161  1  0.67837468  0.05944082  0.61396365  1
  H+  H162  1  0.81028125  0.21327152  0.46576800  1
  H+  H163  1  0.91817939  0.83027494  0.08918289  1
  H+  H164  1  0.71125452  0.59205017  0.17856696  1
  H+  H165  1  0.07946570  0.91077266  0.39164725  1
  H+  H166  1  0.09224624  0.73460470  0.46361687  1
  H+  H167  1  0.63536027  0.24670185  0.99589709  1
  H+  H168  1  0.15052622  0.50509236  0.99225581  1
  H+  H169  1  0.61253018  0.11851529  0.01021564  1
  H+  H170  1  0.66391110  0.28012939  0.17433696  1
  H+  H171  1  0.36765489  0.85287793  0.51537081  1
  H+  H172  1  0.13400133  0.36151913  0.32926327  1
  H+  H173  1  0.49728787  0.37441588  0.65873012  1
  H+  H174  1  0.42518035  0.57441858  0.91273332  1
  H+  H175  1  0.47068032  0.33771686  0.17327172  1
  H+  H176  1  0.37805249  0.35322952  0.50451811  1
  H+  H177  1  0.61411129  0.51435856  0.98032665  1
  H+  H178  1  -0.00760225  0.62381042  0.19836302  1
  H+  H179  1  0.16139414  0.62752271  0.39180073  1
  H+  H180  1  0.47521703  0.95704113  0.89916984  1
  H+  H181  1  0.52483806  0.12392752  0.01340870  1
  H+  H182  1  0.74146931  0.10640873  0.33119941  1
  H+  H183  1  0.35983234  0.97345888  0.49470331  1
  H+  H184  1  0.22374172  0.99829821  0.54770687  1
  H+  H185  1  0.84078730  0.47139089  0.32938770  1
  H+  H186  1  0.74297107  0.10605774  0.17700442  1
  H+  H187  1  0.47613861  0.72248492  0.54691395  1
  H+  H188  1  0.65163699  0.43197643  0.01838384  1
  H+  H189  1  0.10845648  0.91550095  0.73863489  1
  H+  H190  1  0.34062902  0.96210674  0.84035921  1
  H+  H191  1  0.11966083  0.90618044  0.15829661  1
  H+  H192  1  0.71796713  0.61234461  0.50046620  1
  H+  H193  1  0.38334097  0.00703197  0.33955474  1
  H+  H194  1  0.06416230  0.70020951  0.39575872  1
  H+  H195  1  0.60684146  0.47325166  0.49302003  1
  H+  H196  1  0.61967914  0.98176418  0.16165258  1
  H+  H197  1  0.60529542  0.44873280  0.16468496  1
  H+  H198  1  0.12970133  0.00738773  0.82370517  1
  H+  H199  1  0.12824054  0.00762621  0.99904585  1
  H+  H200  1  0.66956458  0.14135382  0.49053205  1
  H+  H201  1  0.61003054  0.20972725  0.34190383  1
  H+  H202  1  0.49468453  0.89602300  0.86019264  1
  H+  H203  1  0.27006208  0.12265778  0.34060081  1
  H+  H204  1  0.09715620  0.38465535  0.49703283  1
  H+  H205  1  0.11284985  0.77661987  0.05071480  1
  H+  H206  1  0.12537948  0.23998548  0.15359024  1
  H+  H207  1  0.12890292  0.84233649  0.32223331  1
  H+  H208  1  0.61307200  0.66446934  0.14412181  1
  H+  H209  1  0.34277252  0.72234240  0.49338218  1
  H+  H210  1  0.11463372  0.23137624  -0.00747371  1
  H+  H211  1  0.65339413  0.15278285  0.16300361  1
  H+  H212  1  0.92154699  0.84400186  -0.02659446  1
  H+  H213  1  0.48285151  0.36803243  0.98938223  1
  H+  H214  1  0.90926828  1.03133750  0.17213011  1
  H+  H215  1  0.26643688  0.39307700  0.83483290  1
  H+  H216  1  0.25888994  0.12294169  0.15277640  1
  H+  H217  1  0.12215277  0.36584093  0.84418487  1
  H+  H218  1  0.39384706  0.28024755  0.99001155  1
  H+  H219  1  0.77876041  0.89481129  0.48481472  1
  H+  H220  1  0.74792748  0.36654103  0.33708781  1
  H+  H221  1  1.02890983  0.12229031  0.67074282  1
  H+  H222  1  0.40740123  0.90822900  0.69850389  1
  H+  H223  1  0.36869963  0.14509415  0.99949526  1
  H+  H224  1  0.86140217  0.96949642  0.83096411  1
  H+  H225  1  0.35797643  0.36848504  0.16044808  1
  H+  H226  1  0.13363350  0.02071789  0.32239403  1
  H+  H227  1  0.61031726  0.20699175  0.90263138  1
  H+  H228  1  0.09980635  0.95540753  0.06221828  1
  H+  H229  1  0.62279453  0.97259904  0.33981527  1
  H+  H230  1  0.24121549  0.13935505  0.97214029  1
  H+  H231  1  0.71615084  0.59890389  0.82945041  1
  H+  H232  1  0.72590983  0.38145724  0.82861185  1
  H+  H233  1  0.79440009  0.65157843  0.08896611  1
  H+  H234  1  0.64035175  0.77877716  -0.01510542  1
  H+  H235  1  0.20136448  0.85500676  0.85729799  1
  H+  H236  1  1.01083664  0.88698812  0.48993905  1
  H+  H237  1  0.88194471  0.32943443  0.16615761  1
  H+  H238  1  0.89913274  0.10641818  0.66158102  1
  H+  H239  1  0.97890704  0.11316042  0.83466620  1
  H+  H240  1  0.62171498  0.51462203  0.82722149  1
  H+  H241  1  0.80205750  0.15496598  0.66826674  1
  H+  H242  1  0.10605355  0.47521153  0.16641909  1
  H+  H243  1  0.40364705  0.11608199  0.19352873  1
  H+  H244  1  0.83496056  0.62646257  0.99900841  1
  H+  H245  1  0.63443526  0.76701731  0.32220056  1
  H+  H246  1  0.99594923  0.37742880  0.64485161  1
  H+  H247  1  0.92866773  0.08320370  0.92741760  1
  H+  H248  1  0.63878251  0.86219432  0.83788006  1
  H+  H249  1  0.52509778  0.11813448  0.34712655  1
  H+  H250  1  0.47658572  0.86706751  0.17423051  1
  H+  H251  1  0.48722773  0.11109135  0.50936867  1
  H+  H252  1  0.89964018  0.02445426  0.99013951  1
  H+  H253  1  0.62963972  0.50576799  0.33972120  1
  H+  H254  1  0.26691971  0.86301067  0.63010466  1
  H+  H255  1  0.90571846  0.27733285  0.65603286  1
  H+  H256  1  0.26787158  0.90403137  0.00968653  1
  H+  H257  1  0.29258189  0.13183908  0.82747054  1
  H+  H258  1  0.35397910  0.50561692  0.17738819  1
  H+  H259  1  0.88023538  0.12882237  0.16356288  1
  H+  H260  1  0.38666239  0.51216520  0.84826597  1
  H+  H261  1  0.11299612  0.60481088  0.19824114  1
  H+  H262  1  0.21602020  0.60620318  0.50201763  1
  H+  H263  1  0.87018939  0.13073968  0.00818052  1
  H+  H264  1  0.86298209  0.71498326  0.67082470  1
  H+  H265  1  0.25687833  0.63153794  0.82375800  1
  H+  H266  1  0.14817136  0.83413349  0.94987493  1
  H+  H267  1  0.73326937  0.38236500  0.18414988  1
  H+  H268  1  0.02268866  0.87580691  0.33235846  1
  H+  H269  1  0.86633561  0.25804370  0.82346937  1
  H+  H270  1  0.60755220  0.38614077  0.80641509  1
  H+  H271  1  0.65460919  0.88093984  0.51003802  1
  H+  H272  1  0.85588086  0.62410234  0.66033305  1
  H+  H273  1  0.25875439  0.64544823  0.16554138  1
  H+  H274  1  0.09624237  0.13475749  0.33450097  1
  H+  H275  1  0.96432779  0.59902099  0.84221822  1
  H+  H276  1  0.77678094  0.87287023  0.67764643  1
  H+  H277  1  0.41220076  0.03161794  0.66817157  1
  H+  H278  1  0.18352721  0.11073506  0.91022631  1
  H+  H279  1  0.09353763  0.72966397  0.83835974  1
  H+  H280  1  0.89172170  0.11535609  0.83968332  1
  H+  H281  1  0.14043131  0.36782506  0.17515501  1
  H+  H282  1  0.10465002  0.48389378  0.83530765  1
  H+  H283  1  0.28735806  0.12270579  0.49833831  1
  H+  H284  1  0.85907247  0.86498417  0.33718621  1
  H+  H285  1  0.39727419  0.65507821  0.50963136  1
  H+  H286  1  1.02378698  0.13639254  0.48628970  1
  H+  H287  1  0.85917542  0.48229077  0.47640398  1
  H+  H288  1  0.41855551  0.32494724  0.59268858  1
  H+  H289  1  0.21442643  0.86090258  0.49988329  1
  H+  H290  1  0.35310195  0.48279656  0.67354374  1
  H+  H291  1  0.34901568  0.16795347  0.76733226  1
  H+  H292  1  0.32829466  0.40491966  0.06722566  1
  H+  H293  1  0.28596131  0.13430488  0.67559912  1
  H+  H294  1  0.63902026  0.85867877  0.32680070  1
  H+  H295  1  0.72970384  0.13696461  0.54014723  1
  H+  H296  1  0.61250429  0.68369229  0.04851038  1
  H+  H297  1  0.39751066  0.82138207  0.57322833  1
  H+  H298  1  0.35259608  0.92204786  0.74917737  1
  H+  H299  1  0.31571963  0.65958202  0.73011723  1
  H+  H300  1  0.07259779  0.66650297  0.77975107  1
  H+  H301  1  0.84272895  0.15421641  0.10374518  1
  H+  H302  1  0.07891691  0.41832333  0.06981767  1
  H+  H303  1  0.51941457  0.62767191  0.33818869  1
  H+  H304  1  0.85227179  0.88974605  0.01511391  1
  H+  H305  1  0.58905487  0.16462744  0.43640102  1
  H+  H306  1  0.12096385  0.80838552  0.58361498  1
  H+  H307  1  0.32776205  0.16877256  0.05508088  1
  H+  H308  1  0.36474925  0.89428634  0.16066801  1
  H+  H309  1  0.83329561  0.91244754  0.42099137  1
  H+  H310  1  0.91064904  0.32052392  0.26337619  1
  H+  H311  1  0.60621924  0.92996652  0.43798784  1
  H+  H312  1  0.31722879  0.08679517  0.12735685  1
  H+  H313  1  0.27690652  0.89787526  0.15937467  1
  H+  H314  1  0.41563617  0.33493903  0.89630931  1
  H+  H315  1  0.32025257  0.40077926  0.43255285  1
  H+  H316  1  0.11861206  0.40642396  0.63623223  1
  H+  H317  1  0.89140495  0.24691527  0.17152931  1
  H+  H318  1  0.60439669  0.16378366  0.72261310  1
  H+  H319  1  0.94929533  0.60707052  0.99203844  1
  H+  H320  1  0.83641059  0.90422593  0.77612512  1
  H+  H321  1  0.58617144  0.67453168  0.43138804  1
  H+  H322  1  0.65896555  0.58062939  0.59576532  1
  H+  H323  1  0.60730253  0.72078043  0.83030355  1
  H+  H324  1  0.91413538  0.80851485  0.26311593  1
  H+  H325  1  0.67665787  0.84322765  0.23484278  1
  H+  H326  1  0.07082918  0.41589645  0.43700134  1
  H+  H327  1  0.42046983  0.60570682  0.60399282  1
  H+  H328  1  0.16836986  0.58738000  0.90096908  1
  H+  H329  1  0.86752559  0.81421961  0.54908379  1
  H+  H330  1  0.42178917  0.08460008  0.93910093  1
  H+  H331  1  0.64735539  0.56808174  0.91618615  1
  H+  H332  1  0.65919905  0.32087246  0.26961677  1
  H+  H333  1  0.72733694  0.36698778  0.49967157  1
  H+  H334  1  0.43024919  0.84579187  0.95487914  1
  H+  H335  1  0.94544054  0.24865452  0.80906771  1
  H+  H336  1  0.68226423  0.08076337  0.23593416  1
  H+  H337  1  0.49862920  0.86035525  1.01385805  1
  H+  H338  1  0.32215602  0.66915034  0.10824769  1
  H+  H339  1  0.10746179  0.22696746  0.48376915  1
  H+  H340  1  0.87496718  0.86885341  0.49064686  1
  H+  H341  1  0.81755482  0.40905805  0.39661780  1
  H+  H342  1  0.83046350  0.65941716  0.39730391  1
  H+  H343  1  0.15598040  0.32865286  0.56703943  1
  H+  H344  1  0.16238774  0.59508094  0.59051290  1
  H+  H345  1  0.33532246  0.15788728  0.43407169  1
  H+  H346  1  0.87113552  0.55216156  0.26401600  1
  H+  H347  1  0.40104451  0.11600124  0.50776615  1
  H+  H348  1  0.09986588  0.18156740  0.09242012  1
  H+  H349  1  0.28570348  0.63124353  0.00634352  1
  H+  H350  1  0.40921779  0.31256429  0.27032966  1
  H+  H351  1  0.41703764  0.06769016  0.28102068  1
  H+  H352  1  0.35157502  0.36513145  0.34279887  1
  H+  H353  1  0.16305123  0.33490442  0.93354618  1
  H+  H354  1  0.39669177  0.56456500  0.27309162  1
  H+  H355  1  0.58907965  0.91186691  0.07574041  1
  H+  H356  1  0.58052305  0.90899388  0.77375814  1
  H+  H357  1  0.91741777  0.58421379  0.54428943  1
  H+  H358  1  0.86155616  0.18873263  0.72904483  1
  H+  H359  1  0.48707353  0.60788832  0.84641287  1
  H+  H360  1  0.81615472  0.63858577  0.76077001  1
  H+  H361  1  0.42037038  0.83463017  0.27003859  1
  H+  H362  1  0.53134315  0.88582346  0.34162290  1
  H+  H363  1  0.40868755  0.10972309  0.81558126  1
  H+  H364  1  0.65324114  0.10966511  0.33352160  1
  H+  H365  1  0.08162400  0.16437200  0.76518742  1
  H+  H366  1  0.83614975  0.93371888  0.09975664  1
  H+  H367  1  0.67183280  0.07076257  0.93946670  1
  H+  H368  1  0.89647000  0.55796389  0.89540075  1
  H+  H369  1  0.33333098  0.93049421  0.06558954  1
  H+  H370  1  0.57793703  0.65886007  0.73493508  1
  H+  H371  1  0.19223169  0.05604066  0.57924187  1
  H+  H372  1  0.42922843  0.08249033  0.60333559  1
  H+  H373  1  0.07328271  0.16644277  0.39577352  1
  H+  H374  1  0.69312047  0.34083945  0.59971181  1
  H+  H375  1  0.66780379  0.84212585  0.92873391  1
  H+  H376  1  0.57446131  0.39974590  0.40318794  1
  H+  H377  1  0.92343688  0.07653500  0.56048474  1
  H+  H378  1  0.61786735  0.17845564  0.10407724  1
  H+  H379  1  0.22472374  0.52112501  0.94765761  1
  H+  H380  1  0.85705542  0.38991108  0.47790955  1
  H+  H381  1  0.16288399  0.33097117  0.23473522  1
  H+  H382  1  0.16804800  0.08663814  0.26712141  1
  H+  H383  1  0.15355814  0.66984500  0.33233679  1
  O2-  O384  1  0.10052123  0.17991415  0.13700036  1
  O2-  O385  1  0.08270989  0.16836223  0.46756815  1
  O2-  O386  1  0.07893349  0.16904860  0.81066776  1
  O2-  O387  1  0.08356615  0.41729816  0.14769991  1
  O2-  O388  1  0.06432861  0.41232933  0.48203684  1
  O2-  O389  1  0.07118874  0.42163505  0.82525623  1
  O2-  O390  1  0.05321256  0.64813893  0.20851347  1
  O2-  O391  1  0.05190623  0.68378903  0.43942170  1
  O2-  O392  1  0.06950739  0.66831048  0.82461721  1
  O2-  O393  1  0.08915931  0.93601877  0.14220232  1
  O2-  O394  1  0.06932577  0.91174829  0.47248610  1
  O2-  O395  1  0.09331555  0.93605730  0.81673809  1
  O2-  O396  1  0.31718958  0.14070817  0.13240651  1
  O2-  O397  1  0.34345118  0.16394551  0.47949998  1
  O2-  O398  1  0.35333777  0.16431075  0.81279654  1
  O2-  O399  1  0.32926695  0.39886296  0.14333442  1
  O2-  O400  1  0.32077157  0.40401769  0.47886916  1
  O2-  O401  1  0.32820790  0.42247163  0.82223013  1
  O2-  O402  1  0.32020126  0.67263833  0.15309468  1
  O2-  O403  1  0.32203743  0.66215916  0.47749203  1
  O2-  O404  1  0.31403530  0.64896713  0.80470468  1
  O2-  O405  1  0.33812138  0.92773664  0.14496730  1
  O2-  O406  1  0.32250097  0.91232332  0.48281482  1
  O2-  O407  1  0.30827624  0.89940572  0.83428902  1
  O2-  O408  1  0.64053729  0.19636059  0.14565871  1
  O2-  O409  1  0.59200714  0.16737520  0.48207971  1
  O2-  O410  1  0.60602672  0.18510194  0.86090138  1
  O2-  O411  1  0.57550333  0.39120509  0.14492939  1
  O2-  O412  1  0.57980500  0.41178562  0.48025458  1
  O2-  O413  1  0.57217817  0.41482216  0.79904461  1
  O2-  O414  1  0.66121337  0.70968933  0.12107739  1
  O2-  O415  1  0.59128997  0.67940337  0.47674529  1
  O2-  O416  1  0.57392079  0.65923835  0.81673997  1
  O2-  O417  1  0.58686716  0.92044810  0.14626189  1
  O2-  O418  1  0.61912052  0.94133234  0.48205375  1
  O2-  O419  1  0.58391243  0.91788429  0.81883612  1
  O2-  O420  1  0.84430843  0.15588280  0.14959803  1
  O2-  O421  1  0.86110227  0.26415393  0.44654076  1
  O2-  O422  1  0.88271672  0.21526095  0.80738156  1
  O2-  O423  1  0.83530303  0.47759464  0.15291321  1
  O2-  O424  1  0.82586414  0.42023405  0.46318647  1
  O2-  O425  1  0.90356944  0.41009548  0.81108317  1
  O2-  O426  1  0.79449217  0.66131884  0.13448679  1
  O2-  O427  1  0.82265937  0.66543514  0.47038882  1
  O2-  O428  1  0.80992194  0.63325649  0.80561794  1
  O2-  O429  1  0.84530081  0.92727663  0.14374871  1
  O2-  O430  1  0.83769870  0.92008662  0.46745312  1
  O2-  O431  1  0.83369451  0.90737590  0.82140967  1
  O2-  O432  1  0.17163469  0.09310686  0.18565589  1
  O2-  O433  1  0.20243920  0.03737165  0.53830077  1
  O2-  O434  1  0.17580905  0.09394217  0.83262004  1
  O2-  O435  1  0.16774629  0.33427725  0.18914017  1
  O2-  O436  1  0.15561983  0.33804084  0.52308835  1
  O2-  O437  1  0.15636230  0.33794776  0.85639879  1
  O2-  O438  1  0.15377214  0.58099910  0.19815657  1
  O2-  O439  1  0.15749054  0.58342679  0.51947927  1
  O2-  O440  1  0.16040778  0.59192720  0.85681516  1
  O2-  O441  1  0.17160199  0.85325274  0.17910777  1
  O2-  O442  1  0.15185968  0.82847627  0.51064436  1
  O2-  O443  1  0.13978657  0.82783856  0.86919246  1
  O2-  O444  1  0.42229012  0.07642384  0.20669194  1
  O2-  O445  1  0.42662475  0.08232682  0.52497626  1
  O2-  O446  1  0.44083316  0.07775036  0.82184010  1
  O2-  O447  1  0.41026558  0.30880335  0.18871588  1
  O2-  O448  1  0.41231336  0.32676635  0.51844983  1
  O2-  O449  1  0.41069437  0.33329296  0.85092162  1
  O2-  O450  1  0.36005356  0.55191703  0.20452196  1
  O2-  O451  1  0.44933354  0.66260996  0.53386785  1
  O2-  O452  1  0.42583745  0.57337880  0.86600720  1
  O2-  O453  1  0.41684025  0.84113470  0.19001199  1
  O2-  O454  1  0.38965729  0.81464393  0.52876015  1
  O2-  O455  1  0.45031768  0.89658274  0.88806246  1
  O2-  O456  1  0.68141421  0.08012269  0.19049456  1
  O2-  O457  1  0.71777921  0.12876313  0.49629535  1
  O2-  O458  1  0.67973370  0.08593950  0.85801771  1
  O2-  O459  1  0.67463813  0.33692002  0.19469435  1
  O2-  O460  1  0.67080523  0.33466478  0.52087297  1
  O2-  O461  1  0.67104627  0.34590770  0.80845995  1
  O2-  O462  1  0.65919708  0.54804770  0.20108199  1
  O2-  O463  1  0.65839460  0.58134793  0.51742661  1
  O2-  O464  1  0.65407445  0.57429267  0.84463975  1
  O2-  O465  1  0.68389861  0.85521845  0.18939707  1
  O2-  O466  1  0.67989987  0.84483268  0.52548394  1
  O2-  O467  1  0.66482948  0.82800732  0.85289940  1
  O2-  O468  1  0.93695718  0.09226734  0.18489621  1
  O2-  O469  1  0.92482570  0.08545634  0.51627043  1
  O2-  O470  1  0.91894709  0.08231390  0.85284597  1
  O2-  O471  1  0.91846425  0.31092393  0.18580968  1
  O2-  O472  1  0.89246708  0.32515901  0.49752586  1
  O2-  O473  1  0.84937439  0.33609980  0.85094211  1
  O2-  O474  1  0.86900013  0.56126195  0.18409516  1
  O2-  O475  1  0.90700983  0.58299274  0.49988620  1
  O2-  O476  1  0.90390916  0.55265667  0.85113442  1
  O2-  O477  1  0.91506743  0.82722022  0.13469048  1
  O2-  O478  1  0.89878325  0.83159104  0.51073335  1
  O2-  O479  1  0.93873255  0.85893368  0.89734388  1
  O2-  O480  1  0.16579366  0.08303874  0.31232010  1
  O2-  O481  1  0.18127142  0.07720057  0.65172037  1
  O2-  O482  1  0.18145889  0.11404878  0.95567531  1
  O2-  O483  1  0.16055610  0.32878852  0.31318899  1
  O2-  O484  1  0.16251714  0.32726959  0.66041856  1
  O2-  O485  1  0.16239831  0.32830771  0.97905637  1
  O2-  O486  1  0.17377657  0.62909837  0.34833512  1
  O2-  O487  1  0.16142107  0.59301918  0.63725371  1
  O2-  O488  1  0.19991183  0.55202449  0.96785464  1
  O2-  O489  1  0.16088058  0.81461550  0.30516807  1
  O2-  O490  1  0.09610095  0.79572944  0.62583061  1
  O2-  O491  1  0.16010848  0.84954989  0.99364318  1
  O2-  O492  1  0.41625484  0.06854862  0.32693873  1
  O2-  O493  1  0.43489262  0.08926656  0.64886254  1
  O2-  O494  1  0.42060681  0.08808199  0.98331898  1
  O2-  O495  1  0.40981712  0.31553798  0.31560829  1
  O2-  O496  1  0.42332002  0.32703179  0.63855126  1
  O2-  O497  1  0.42293807  0.34139045  0.97510691  1
  O2-  O498  1  0.41114328  0.57035564  0.31801073  1
  O2-  O499  1  0.41199217  0.58963489  0.64781029  1
  O2-  O500  1  0.41941534  0.57727542  0.98468303  1
  O2-  O501  1  0.42271803  0.83296734  0.31539722  1
  O2-  O502  1  0.41953046  0.83505258  0.65827164  1
  O2-  O503  1  0.43134612  0.82899536  0.99848766  1
  O2-  O504  1  0.68131871  0.07864507  0.31602310  1
  O2-  O505  1  0.70902173  0.11940678  0.62650002  1
  O2-  O506  1  0.66747341  0.07059642  0.98448013  1
  O2-  O507  1  0.65613177  0.31630084  0.31534750  1
  O2-  O508  1  0.70037870  0.33962142  0.64456066  1
  O2-  O509  1  0.66356992  0.30166450  0.97086121  1
  O2-  O510  1  0.66112678  0.56672580  0.32471623  1
  O2-  O511  1  0.65822598  0.57811621  0.64145311  1
  O2-  O512  1  0.64491356  0.57246063  0.96250765  1
  O2-  O513  1  0.66694155  0.82765408  0.30786808  1
  O2-  O514  1  0.67021692  0.82414273  0.64822315  1
  O2-  O515  1  0.66772235  0.84119414  0.97459266  1
  O2-  O516  1  0.90118208  0.13232614  0.30723418  1
  O2-  O517  1  0.92529801  0.07218765  0.64784404  1
  O2-  O518  1  0.93693077  0.08501958  0.97308579  1
  O2-  O519  1  0.91624861  0.32781771  0.30854960  1
  O2-  O520  1  0.92815184  0.33747109  0.63852684  1
  O2-  O521  1  0.91870310  0.37710836  0.96153202  1
  O2-  O522  1  0.87741979  0.54822087  0.30852502  1
  O2-  O523  1  0.91043779  0.57482273  0.62892015  1
  O2-  O524  1  0.89106950  0.57620380  0.97555681  1
  O2-  O525  1  0.91588802  0.81134033  0.30738643  1
  O2-  O526  1  0.93284506  0.83287598  0.65728839  1
  O2-  O527  1  0.89022030  0.82512744  1.01314217  1
  O2-  O528  1  0.08719930  0.16686630  0.00332798  1
  O2-  O529  1  0.06879775  0.16721295  0.34933978  1
  O2-  O530  1  0.08937468  0.15316991  0.68726072  1
  O2-  O531  1  0.07805840  0.41635886  0.02408719  1
  O2-  O532  1  0.07994242  0.42643016  0.35385323  1
  O2-  O533  1  0.08488830  0.42894902  0.65569390  1
  O2-  O534  1  0.08523815  0.74397310  0.08890635  1
  O2-  O535  1  0.10159342  0.72135161  0.31741465  1
  O2-  O536  1  0.05051447  0.61275091  0.70372114  1
  O2-  O537  1  0.09676616  0.95009784  0.01718046  1
  O2-  O538  1  0.08338115  0.90851536  0.34660858  1
  O2-  O539  1  0.09716105  0.91527296  0.69432904  1
  O2-  O540  1  0.33784866  0.17694075  0.01027284  1
  O2-  O541  1  0.33003327  0.15199791  0.35728023  1
  O2-  O542  1  0.34714931  0.16828000  0.68975260  1
  O2-  O543  1  0.32912314  0.41134303  0.02145658  1
  O2-  O544  1  0.32346424  0.39704618  0.35884233  1
  O2-  O545  1  0.32123944  0.42336416  0.69013488  1
  O2-  O546  1  0.34318669  0.66774375  0.02607356  1
  O2-  O547  1  0.34290227  0.66798217  0.35613985  1
  O2-  O548  1  0.32171825  0.66739860  0.68463070  1
  O2-  O549  1  0.33043899  0.93431461  0.02044329  1
  O2-  O550  1  0.32496231  0.89803532  0.35958809  1
  O2-  O551  1  0.40039380  0.95362655  0.72055588  1
  O2-  O552  1  0.58657976  0.15311845  0.02536891  1
  O2-  O553  1  0.58691800  0.15150559  0.35982672  1
  O2-  O554  1  0.60133875  0.16449498  0.67840550  1
  O2-  O555  1  0.59160753  0.41550804  0.02465301  1
  O2-  O556  1  0.57563831  0.39858102  0.35745449  1
  O2-  O557  1  0.56617158  0.41662275  0.67952127  1
  O2-  O558  1  0.58866756  0.67271904  0.00657066  1
  O2-  O559  1  0.58046729  0.66140121  0.35244056  1
  O2-  O560  1  0.57779805  0.65993794  0.68966878  1
  O2-  O561  1  0.58276891  0.90630978  0.02903091  1
  O2-  O562  1  0.59213458  0.91242032  0.35569823  1
  O2-  O563  1  0.58689287  0.89562579  0.69620160  1
  O2-  O564  1  0.83786416  0.15430750  0.02851029  1
  O2-  O565  1  0.85767312  0.16089022  0.34988825  1
  O2-  O566  1  0.86220865  0.18242982  0.68400727  1
  O2-  O567  1  0.81260916  0.42150622  0.02812882  1
  O2-  O568  1  0.81244941  0.40353162  0.34902812  1
  O2-  O569  1  0.85377451  0.41188867  0.68594526  1
  O2-  O570  1  0.79982050  0.65103220  0.01504366  1
  O2-  O571  1  0.82884323  0.65230855  0.35152027  1
  O2-  O572  1  0.82588775  0.65285017  0.67881120  1
  O2-  O573  1  0.83228412  0.93316058  0.01975343  1
  O2-  O574  1  0.83291088  0.89869790  0.35152799  1
  O2-  O575  1  0.83592998  0.90543663  0.69505211  1
