# generated using pymatgen
data_H2O
_symmetry_space_group_name_H-M   'P 1'
_cell_length_a   18.00062057
_cell_length_b   18.00002130
_cell_length_c   22.01510431
_cell_angle_alpha   89.98818642
_cell_angle_beta   90.00112630
_cell_angle_gamma   120.02073281
_symmetry_Int_Tables_number   1
_chemical_formula_structural   H2O
_chemical_formula_sum   'H384 O192'
_cell_volume   6176.19636141
_cell_formula_units_Z   192
loop_
 _symmetry_equiv_pos_site_id
 _symmetry_equiv_pos_as_xyz
  1  'x, y, z'
loop_
 _atom_type_symbol
 _atom_type_oxidation_number
  H+  1.0
  O2-  -2.0
loop_
 _atom_site_type_symbol
 _atom_site_label
 _atom_site_symmetry_multiplicity
 _atom_site_fract_x
 _atom_site_fract_y
 _atom_site_fract_z
 _atom_site_occupancy
  H+  H0  1  0.85001202  0.63162451  0.52678098  1
  H+  H1  1  0.36501860  0.13622587  0.31609723  1
  H+  H2  1  0.36319080  0.96465928  0.15056851  1
  H+  H3  1  0.99994720  0.39047934  0.19842353  1
  H+  H4  1  0.39431803  0.85453581  0.16848383  1
  H+  H5  1  0.66021445  0.32736394  0.60556371  1
  H+  H6  1  0.52535477  0.87679513  0.15817334  1
  H+  H7  1  0.29986925  0.89641423  0.43367838  1
  H+  H8  1  0.27956869  0.41122343  0.33722509  1
  H+  H9  1  0.40884736  0.28824145  0.47035611  1
  H+  H10  1  1.01844230  0.39763105  0.63595234  1
  H+  H11  1  0.51417123  0.13103342  0.31177490  1
  H+  H12  1  0.27580476  0.63755466  0.35254822  1
  H+  H13  1  -0.01299231  0.86851956  0.32070020  1
  H+  H14  1  0.11728924  0.87169930  0.99408543  1
  H+  H15  1  0.61440219  0.72732113  0.33347313  1
  H+  H16  1  0.64094451  0.23837427  0.83064633  1
  H+  H17  1  0.28374366  0.86814903  0.16221211  1
  H+  H18  1  0.13860244  0.86061130  0.32152362  1
  H+  H19  1  0.62732318  0.73110959  0.82557310  1
  H+  H20  1  0.38161114  0.52218937  0.51409551  1
  H+  H21  1  0.60964372  0.51751951  0.16838510  1
  H+  H22  1  0.37101018  0.59429464  0.17617304  1
  H+  H23  1  0.86169914  0.38074477  0.67073413  1
  H+  H24  1  0.90102474  0.53400764  0.80842615  1
  H+  H25  1  0.64218383  0.86149335  0.50438280  1
  H+  H26  1  0.24461585  0.10694940  0.52914016  1
  H+  H27  1  0.57155748  0.30874695  0.14433143  1
  H+  H28  1  0.14144794  0.83436306  0.83160559  1
  H+  H29  1  0.35670495  0.46717934  0.18505895  1
  H+  H30  1  0.87884070  0.61395433  -0.00224204  1
  H+  H31  1  0.63011145  0.78041833  0.66092720  1
  H+  H32  1  0.51793737  0.63895684  0.67716337  1
  H+  H33  1  0.88511966  0.01792291  0.32286276  1
  H+  H34  1  0.83697645  0.61188535  0.18673409  1
  H+  H35  1  0.98604227  0.12542109  0.84025064  1
  H+  H36  1  0.84039116  0.34067132  0.13772379  1
  H+  H37  1  0.87583337  0.63269426  0.31569134  1
  H+  H38  1  1.00425833  0.62994683  1.00911378  1
  H+  H39  1  0.11777614  0.15117135  0.00330509  1
  H+  H40  1  0.22122657  0.09882384  0.83781466  1
  H+  H41  1  0.65196345  0.58399261  0.25683083  1
  H+  H42  1  0.03201759  0.63941848  0.34954302  1
  H+  H43  1  0.27749432  0.11870897  0.50440832  1
  H+  H44  1  -0.01878370  0.85943496  -0.01287783  1
  H+  H45  1  0.13928717  0.35117318  0.17776159  1
  H+  H46  1  0.16325281  0.07566790  0.26262876  1
  H+  H47  1  0.62002126  0.39123128  0.32529366  1
  H+  H48  1  0.40372064  0.08439931  1.01464580  1
  H+  H49  1  0.03562224  0.87359756  0.65714292  1
  H+  H50  1  0.59555882  0.63225303  0.15145207  1
  H+  H51  1  0.15406092  0.08992032  0.60416819  1
  H+  H52  1  0.61290888  0.96795241  0.15059080  1
  H+  H53  1  0.63584014  0.32144451  0.98771968  1
  H+  H54  1  0.97332073  0.35714902  0.33914994  1
  H+  H55  1  0.39454898  0.01842221  0.67585808  1
  H+  H56  1  0.85895784  0.64561820  0.67167620  1
  H+  H57  1  0.22896276  0.37757997  -0.01580921  1
  H+  H58  1  0.13250114  0.06180465  1.03811273  1
  H+  H59  1  1.01594334  0.12528527  0.49059800  1
  H+  H60  1  0.35170348  0.35606634  0.96899759  1
  H+  H61  1  0.36199937  0.00096693  0.85004336  1
  H+  H62  1  0.86679107  0.98435719  0.67987988  1
  H+  H63  1  0.53559106  0.65581539  -0.00409263  1
  H+  H64  1  0.28286130  0.69502097  0.81209238  1
  H+  H65  1  0.62573491  0.53237124  -0.01308975  1
  H+  H66  1  0.50615291  0.95275401  0.44478064  1
  H+  H67  1  0.17864419  0.33983893  0.92009726  1
  H+  H68  1  0.16373762  0.86893718  0.63145830  1
  H+  H69  1  0.64694748  0.12547293  0.66597154  1
  H+  H70  1  0.11059759  0.63977957  0.51168035  1
  H+  H71  1  0.87498969  0.14390678  0.00740326  1
  H+  H72  1  0.47421865  0.11616120  0.67727229  1
  H+  H73  1  0.15222643  0.37172526  0.83712080  1
  H+  H74  1  0.10549047  0.21399230  0.15629376  1
  H+  H75  1  0.76560402  0.13122754  0.84580832  1
  H+  H76  1  0.36193066  0.47176736  0.82895480  1
  H+  H77  1  0.30739092  0.09397724  0.84028146  1
  H+  H78  1  0.11263039  0.20594587  0.49675610  1
  H+  H79  1  0.38517153  0.87003321  0.49754009  1
  H+  H80  1  0.47112521  0.83681791  0.65626376  1
  H+  H81  1  0.87182796  0.38833586  0.34605037  1
  H+  H82  1  0.87233531  0.63963360  0.16463871  1
  H+  H83  1  0.58731099  0.67433220  0.08362298  1
  H+  H84  1  0.97349963  0.57626316  0.16616437  1
  H+  H85  1  0.90031592  0.86321530  0.50042938  1
  H+  H86  1  0.73944139  0.36917125  0.83696548  1
  H+  H87  1  0.63699354  0.85699490  0.16348668  1
  H+  H88  1  0.37515567  0.10453640  0.15632005  1
  H+  H89  1  0.73582959  0.61843321  0.83450358  1
  H+  H90  1  0.38024666  0.75705460  0.66900920  1
  H+  H91  1  0.04884792  0.41748401  -0.01680397  1
  H+  H92  1  0.88660776  0.87453553  0.16781896  1
  H+  H93  1  0.14252484  0.62340878  0.68794051  1
  H+  H94  1  0.23957940  0.59435505  0.85533885  1
  H+  H95  1  0.27691590  0.13518051  0.32728584  1
  H+  H96  1  0.54199831  0.38859117  0.47215810  1
  H+  H97  1  0.87242147  0.64604648  0.80851060  1
  H+  H98  1  0.87334085  0.89373638  0.00097925  1
  H+  H99  1  0.67154381  0.13160372  0.85068065  1
  H+  H100  1  0.36234119  0.88904334  0.34064239  1
  H+  H101  1  0.92676523  0.33970779  0.89771839  1
  H+  H102  1  0.10326127  0.43400106  0.51863080  1
  H+  H103  1  0.22731182  0.35087865  0.50977864  1
  H+  H104  1  0.92307606  0.83481170  0.92794207  1
  H+  H105  1  0.42130186  0.80791043  0.49419710  1
  H+  H106  1  0.62136326  0.64559263  0.99865773  1
  H+  H107  1  0.38028415  0.25430003  0.18069481  1
  H+  H108  1  0.90297708  0.86951061  0.83325381  1
  H+  H109  1  0.85736914  0.21741765  0.34160110  1
  H+  H110  1  0.39086376  0.53808149  0.33321030  1
  H+  H111  1  0.53606545  0.10793837  1.00206938  1
  H+  H112  1  0.88940504  0.11884745  0.67861020  1
  H+  H113  1  0.42652550  0.10239871  0.84490634  1
  H+  H114  1  0.11341032  0.15101165  0.84151781  1
  H+  H115  1  0.63690792  0.36404553  0.66588979  1
  H+  H116  1  0.90697890  0.36977458  0.50781508  1
  H+  H117  1  0.61409053  0.23250739  0.67629373  1
  H+  H118  1  0.38470190  0.36594276  0.69016162  1
  H+  H119  1  0.87739824  0.14151785  0.82758248  1
  H+  H120  1  0.77962968  0.87722796  0.48934726  1
  H+  H121  1  0.24825504  0.10370372  0.67621407  1
  H+  H122  1  0.51898743  0.11271674  0.51597600  1
  H+  H123  1  0.27372817  0.86920327  0.83118361  1
  H+  H124  1  -0.01771235  0.12215207  -0.00982187  1
  H+  H125  1  0.12012495  0.97489854  0.33305686  1
  H+  H126  1  0.76945497  0.12646753  0.34999258  1
  H+  H127  1  0.32498257  0.88685140  0.06358986  1
  H+  H128  1  0.27109990  0.64152718  0.15748798  1
  H+  H129  1  0.52408823  0.38875079  0.69122156  1
  H+  H130  1  0.62485374  0.47725161  0.83247795  1
  H+  H131  1  0.14014549  0.77352464  0.33395478  1
  H+  H132  1  0.10553347  0.47417265  0.35444178  1
  H+  H133  1  0.12632875  0.24611334  0.83260233  1
  H+  H134  1  0.13364292  0.28780265  0.66888830  1
  H+  H135  1  0.57446923  0.39799376  0.01363452  1
  H+  H136  1  0.10615973  0.00246201  0.53146877  1
  H+  H137  1  0.22098591  0.83609489  0.98678578  1
  H+  H138  1  0.91807202  0.84267698  0.22535856  1
  H+  H139  1  0.42415273  0.35264177  0.41905587  1
  H+  H140  1  0.12211106  0.94602254  0.80406747  1
  H+  H141  1  0.54218946  0.89194525  0.83350316  1
  H+  H142  1  0.39137741  0.76467827  0.16778800  1
  H+  H143  1  0.13830382  0.61542427  0.34239182  1
  H+  H144  1  0.85886501  -0.01704694  0.15557661  1
  H+  H145  1  0.47032814  0.12430709  0.15641381  1
  H+  H146  1  0.08964028  0.08105047  0.52665278  1
  H+  H147  1  0.65086252  1.03920220  0.67241848  1
  H+  H148  1  0.40102171  0.57822310  -0.01625985  1
  H+  H149  1  0.89110004  0.77227488  0.51206486  1
  H+  H150  1  0.11746077  0.24029282  0.99839662  1
  H+  H151  1  0.47810632  0.37052948  0.33258433  1
  H+  H152  1  0.88595796  0.10705287  0.32583314  1
  H+  H153  1  0.53155324  0.39053836  0.83190906  1
  H+  H154  1  0.92266152  0.08863617  0.89766654  1
  H+  H155  1  0.63126675  0.52168983  0.67732164  1
  H+  H156  1  0.86823356  0.23889792  0.67902665  1
  H+  H157  1  0.71942671  0.61470433  0.67035376  1
  H+  H158  1  0.89280147  0.87176321  0.65782550  1
  H+  H159  1  0.37267531  0.88003342  0.68106900  1
  H+  H160  1  0.36467142  0.39302079  0.48346433  1
  H+  H161  1  0.37323901  0.46497981  0.04125861  1
  H+  H162  1  0.61214912  0.62515309  0.52545417  1
  H+  H163  1  0.64542398  0.36443739  0.83929647  1
  H+  H164  1  0.68221679  0.08636829  0.57579159  1
  H+  H165  1  0.62370466  0.25125189  0.51864746  1
  H+  H166  1  0.03607955  0.38960877  0.82814839  1
  H+  H167  1  0.89654991  0.27976833  0.83910218  1
  H+  H168  1  0.63318101  0.87074274  0.66111331  1
  H+  H169  1  0.89861959  0.52101320  0.33097500  1
  H+  H170  1  0.02851703  0.86759460  0.81727905  1
  H+  H171  1  0.25463690  0.87616870  0.64284660  1
  H+  H172  1  0.89729145  0.36930849  -0.01332554  1
  H+  H173  1  1.01410580  0.69896486  0.14231304  1
  H+  H174  1  0.27574780  0.39398276  0.68572483  1
  H+  H175  1  0.39679450  0.37496603  0.83308026  1
  H+  H176  1  0.30228887  0.67362471  0.50962536  1
  H+  H177  1  0.12236095  0.15882086  0.68099247  1
  H+  H178  1  0.52397615  0.87164396  0.33086494  1
  H+  H179  1  0.13589451  0.10313972  0.32505569  1
  H+  H180  1  0.82218878  0.74227275  0.15273983  1
  H+  H181  1  0.97177789  0.11153446  0.16947806  1
  H+  H182  1  0.87752433  0.98175372  0.82536749  1
  H+  H183  1  0.87034410  0.39043615  0.82793055  1
  H+  H184  1  0.38181494  0.01741694  0.31195984  1
  H+  H185  1  0.64549296  0.61624125  0.83317612  1
  H+  H186  1  0.48948342  0.40012895  1.00577487  1
  H+  H187  1  0.13009988  0.40550904  -0.02187380  1
  H+  H188  1  0.08236462  0.14524837  0.39997440  1
  H+  H189  1  0.22382723  0.34431041  0.17982373  1
  H+  H190  1  0.77737223  0.37595797  -0.01284627  1
  H+  H191  1  0.64487822  0.86427255  0.99011148  1
  H+  H192  1  0.14583922  0.90683582  0.48772596  1
  H+  H193  1  0.61454975  -0.04349787  0.33373241  1
  H+  H194  1  0.24339896  0.13471385  0.00891556  1
  H+  H195  1  0.12811309  0.61053865  0.17115526  1
  H+  H196  1  0.40521026  0.79203294  0.83846296  1
  H+  H197  1  0.77538757  0.38726126  0.67541258  1
  H+  H198  1  0.72662316  0.61508786  0.30606564  1
  H+  H199  1  0.86126074  0.73640577  0.66487475  1
  H+  H200  1  0.33710065  0.09018906  0.69035077  1
  H+  H201  1  0.86995200  0.23208180  0.16677773  1
  H+  H202  1  0.60827348  0.64183663  0.67637064  1
  H+  H203  1  0.48093795  0.62646058  0.32834673  1
  H+  H204  1  0.97676954  0.11717636  0.67776342  1
  H+  H205  1  0.62274371  0.19762333  -0.00417813  1
  H+  H206  1  0.88726284  1.01965859  0.49490787  1
  H+  H207  1  0.37924640  0.83387358  0.99473892  1
  H+  H208  1  0.13882258  0.42915797  0.24459083  1
  H+  H209  1  0.78448505  0.89408507  1.00056788  1
  H+  H210  1  0.78269309  0.14840501  0.68529378  1
  H+  H211  1  0.89462412  0.03012963  0.99134097  1
  H+  H212  1  0.17841664  0.54862321  -0.00238530  1
  H+  H213  1  0.38078917  0.33745928  0.20496981  1
  H+  H214  1  0.62757047  0.88485183  0.82639584  1
  H+  H215  1  0.01309911  0.35854626  0.50198096  1
  H+  H216  1  0.61977076  0.48124462  0.32286427  1
  H+  H217  1  1.02196696  0.56840557  0.48259649  1
  H+  H218  1  0.14382267  0.49522646  0.19545637  1
  H+  H219  1  0.66118795  0.32820189  0.38525797  1
  H+  H220  1  0.37274446  0.88982103  0.83713912  1
  H+  H221  1  0.14139913  0.75418420  0.17548850  1
  H+  H222  1  0.77637493  0.88135744  0.33232707  1
  H+  H223  1  0.40195454  0.30968818  0.64359641  1
  H+  H224  1  0.27266967  0.88618505  0.33541813  1
  H+  H225  1  0.07875820  0.40876685  0.41128508  1
  H+  H226  1  0.86905455  0.14291834  0.16402111  1
  H+  H227  1  0.87997431  0.52587698  -0.00986874  1
  H+  H228  1  0.35900103  -0.05604754  1.00458457  1
  H+  H229  1  0.69162267  0.29406997  0.15126833  1
  H+  H230  1  0.62028669  0.04550264  0.38053918  1
  H+  H231  1  0.14431160  0.74935259  0.82034606  1
  H+  H232  1  0.72765487  0.11373058  0.15735398  1
  H+  H233  1  0.48879288  0.62551160  0.83078508  1
  H+  H234  1  0.04437094  0.87750509  0.49189619  1
  H+  H235  1  0.90238983  0.28336408  0.99229233  1
  H+  H236  1  0.38283449  0.77231620  0.33117149  1
  H+  H237  1  0.90012146  0.77884699  0.31130702  1
  H+  H238  1  0.36737629  0.64322076  0.34816851  1
  H+  H239  1  0.01729657  0.88435916  0.15106677  1
  H+  H240  1  0.83585110  0.41236092  0.76685789  1
  H+  H241  1  0.07699675  0.01614513  0.87545219  1
  H+  H242  1  0.17666377  0.57572822  0.53927114  1
  H+  H243  1  0.78434291  0.39081746  0.34871586  1
  H+  H244  1  0.74313243  0.10685870  0.99742021  1
  H+  H245  1  0.40546979  0.15044357  0.47777331  1
  H+  H246  1  0.61338167  0.11991465  0.51317060  1
  H+  H247  1  0.83397611  0.42169258  0.14599331  1
  H+  H248  1  0.10089286  0.71342138  1.00838084  1
  H+  H249  1  0.70900588  0.61202975  0.53121725  1
  H+  H250  1  0.97121408  0.62467917  0.53307522  1
  H+  H251  1  -0.00581089  0.62230421  0.79354639  1
  H+  H252  1  0.36096581  0.62260427  0.68176137  1
  H+  H253  1  0.64046635  0.85535201  0.31645029  1
  H+  H254  1  0.86787455  0.88592885  0.33375925  1
  H+  H255  1  0.40111189  0.62782397  0.83095314  1
  H+  H256  1  0.13859211  0.37795215  0.32847176  1
  H+  H257  1  0.36021894  0.01826414  0.52671445  1
  H+  H258  1  0.63891752  0.26897106  0.32917102  1
  H+  H259  1  0.41126475  0.82451176  0.26831118  1
  H+  H260  1  0.59324086  0.41841056  0.74360925  1
  H+  H261  1  0.12806244  0.10302673  0.16544006  1
  H+  H262  1  0.88548222  0.10799096  0.49768939  1
  H+  H263  1  0.38337542  0.51449130  0.67576002  1
  H+  H264  1  0.73018046  0.10917416  0.51192283  1
  H+  H265  1  0.65173767  0.77990891  -0.00971512  1
  H+  H266  1  0.64914861  0.09787077  0.99338080  1
  H+  H267  1  0.12297293  -0.03613921  0.99744264  1
  H+  H268  1  0.58081940  0.90266825  0.06263629  1
  H+  H269  1  0.34273076  0.15613358  -0.01093094  1
  H+  H270  1  0.56324752  0.14214795  0.83681854  1
  H+  H271  1  0.76952978  0.64205828  0.99999321  1
  H+  H272  1  0.88183208  0.48717065  0.50418680  1
  H+  H273  1  0.89549995  0.77689483  0.83326428  1
  H+  H274  1  0.23259089  0.18599846  0.61977706  1
  H+  H275  1  0.68259281  0.83635014  0.89693620  1
  H+  H276  1  0.60628629  0.72277511  0.51239243  1
  H+  H277  1  0.24849647  0.37316207  0.83446559  1
  H+  H278  1  0.46856552  0.83479514  0.99506603  1
  H+  H279  1  0.93386034  0.42279791  0.20105926  1
  H+  H280  1  0.61202702  -0.03924391  1.00308782  1
  H+  H281  1  0.04504474  0.65773434  0.69940798  1
  H+  H282  1  0.33822805  0.68038185  0.76276540  1
  H+  H283  1  0.27112433  0.62627647  0.68360628  1
  H+  H284  1  0.74338269  0.86574691  0.83796848  1
  H+  H285  1  0.86372044  0.22316751  0.49445004  1
  H+  H286  1  0.91262743  0.32524344  0.57061986  1
  H+  H287  1  0.35894944  0.27521801  0.99238364  1
  H+  H288  1  0.32281169  0.16523995  0.09522789  1
  H+  H289  1  0.67439076  0.82703154  0.25840197  1
  H+  H290  1  0.13883612  0.07427056  0.92802369  1
  H+  H291  1  0.66760125  0.58784022  0.92576273  1
  H+  H292  1  0.59107137  0.67497048  0.76483042  1
  H+  H293  1  0.63921733  0.10164057  0.32355552  1
  H+  H294  1  0.12926348  0.01433527  0.16521534  1
  H+  H295  1  0.63198799  0.34277128  0.50738174  1
  H+  H296  1  0.18996150  0.63222038  0.59469379  1
  H+  H297  1  0.10728300  0.39945270  0.63950104  1
  H+  H298  1  0.40901559  0.57240953  0.61363843  1
  H+  H299  1  0.07493316  0.16391742  0.09376984  1
  H+  H300  1  0.92096809  0.59865995  0.59600358  1
  H+  H301  1  0.83280336  0.68038329  0.76030090  1
  H+  H302  1  0.64751163  0.58106867  0.59050350  1
  H+  H303  1  0.51263136  0.63014906  0.51646261  1
  H+  H304  1  0.66690633  0.83958689  0.56865752  1
  H+  H305  1  0.83795505  0.92598156  0.09449434  1
  H+  H306  1  0.64066565  0.10849099  0.17680836  1
  H+  H307  1  0.40989373  0.07860854  0.58242776  1
  H+  H308  1  0.38828402  0.61555622  0.51737082  1
  H+  H309  1  0.84456193  0.92127186  0.76617982  1
  H+  H310  1  0.08018066  0.90704595  0.09453442  1
  H+  H311  1  0.34913593  0.39819584  0.13534355  1
  H+  H312  1  0.69196876  0.61614139  0.16181205  1
  H+  H313  1  0.84319003  0.17539775  0.76976329  1
  H+  H314  1  0.34442899  0.67647911  0.44494153  1
  H+  H315  1  0.09084344  0.87948843  0.71351095  1
  H+  H316  1  0.51763690  0.39394757  0.58546287  1
  H+  H317  1  0.40670966  0.06237462  0.94420408  1
  H+  H318  1  0.09134497  0.49282456  0.09523674  1
  H+  H319  1  0.33169989  0.41814491  0.75179683  1
  H+  H320  1  0.83378737  0.16404904  0.43454470  1
  H+  H321  1  0.54163972  0.05213279  0.44810568  1
  H+  H322  1  0.56295419  0.14794403  0.37315855  1
  H+  H323  1  0.82532818  0.39988322  0.04947577  1
  H+  H324  1  0.26188649  0.12532361  0.15398583  1
  H+  H325  1  0.05497040  0.66493093  0.08611855  1
  H+  H326  1  0.18186998  0.80304800  0.23877690  1
  H+  H327  1  0.77785237  0.89408547  0.67539275  1
  H+  H328  1  0.88827171  0.51968074  0.67486287  1
  H+  H329  1  0.42279845  0.34060301  0.89095862  1
  H+  H330  1  0.94222961  0.56866292  0.26972903  1
  H+  H331  1  0.13039337  0.53330813  0.65885347  1
  H+  H332  1  0.19528784  0.69058870  0.20446430  1
  H+  H333  1  0.84146789  0.66528462  0.36806810  1
  H+  H334  1  0.79546872  0.68591933  0.09223033  1
  H+  H335  1  0.40517208  0.57961628  0.23986540  1
  H+  H336  1  0.18832050  0.59314472  0.91220486  1
  H+  H337  1  0.27861409  0.09974210  0.75184965  1
  H+  H338  1  0.17058305  0.33304010  0.60560538  1
  H+  H339  1  0.37210212  0.16979179  0.41422654  1
  H+  H340  1  0.33939819  0.90991383  0.73909903  1
  H+  H341  1  0.60657907  0.63650744  0.33605415  1
  H+  H342  1  0.40715892  0.06833205  0.24710272  1
  H+  H343  1  0.59224796  0.92789114  0.74625076  1
  H+  H344  1  0.82465517  0.28553493  0.62055437  1
  H+  H345  1  0.87742955  0.53719971  0.18686324  1
  H+  H346  1  0.08490935  0.66590359  0.41181147  1
  H+  H347  1  0.84599366  0.17541212  0.06693647  1
  H+  H348  1  0.36221915  0.39971221  0.34751790  1
  H+  H349  1  0.16606909  0.59075908  0.28115163  1
  H+  H350  1  0.47846973  0.37001098  0.56583346  1
  H+  H351  1  0.87591144  0.44724068  0.43800849  1
  H+  H352  1  0.54809704  0.41381893  0.10604159  1
  H+  H353  1  0.69732694  0.09104082  0.91387509  1
  H+  H354  1  0.38861783  0.28123102  0.33329335  1
  H+  H355  1  0.09250430  0.91641872  0.39312521  1
  H+  H356  1  0.13283099  0.33683473  0.50991167  1
  H+  H357  1  0.16392636  0.80389773  0.92621270  1
  H+  H358  1  0.31688034  0.65035787  0.09418319  1
  H+  H359  1  0.91462864  0.08275863  0.23114781  1
  H+  H360  1  0.61882058  0.73665473  0.14866646  1
  H+  H361  1  0.91892768  0.59247073  0.72188254  1
  H+  H362  1  0.83453556  0.90584983  0.42775692  1
  H+  H363  1  0.42765509  0.83406726  0.90386153  1
  H+  H364  1  0.60547284  0.41476200  0.41910568  1
  H+  H365  1  0.85984692  0.72957168  0.00181592  1
  H+  H366  1  0.91898771  0.33692743  0.27772203  1
  H+  H367  1  0.09134509  0.18168596  0.74285188  1
  H+  H368  1  0.50309184  0.37178523  0.17007513  1
  H+  H369  1  0.12230388  0.47653680  0.83667303  1
  H+  H370  1  0.72822134  0.86029703  0.16057576  1
  H+  H371  1  0.32528587  0.42913844  0.43745933  1
  H+  H372  1  0.59710390  0.17451038  0.73558445  1
  H+  H373  1  0.53284936  0.93971127  0.69787931  1
  H+  H374  1  1.02536283  0.12304000  0.34016701  1
  H+  H375  1  0.67086793  0.31548741  0.92215507  1
  H+  H376  1  0.44385822  0.61845939  0.92072665  1
  H+  H377  1  0.05947977  0.44558101  0.09589265  1
  H+  H378  1  0.80450111  0.63632728  0.46693960  1
  H+  H379  1  0.30338802  0.49002996  0.05318677  1
  H+  H380  1  0.23777943  0.89310490  0.55235410  1
  H+  H381  1  0.33704388  0.69280823  -0.00290117  1
  H+  H382  1  0.16466325  0.33570248  0.27271132  1
  H+  H383  1  0.92215294  0.84240836  0.59728621  1
  O2-  O384  1  0.07225563  0.15473393  0.13865635  1
  O2-  O385  1  0.07904122  0.14673312  0.48044049  1
  O2-  O386  1  0.08946854  0.18240383  0.82005590  1
  O2-  O387  1  0.11095290  0.43480174  0.20708007  1
  O2-  O388  1  0.07634797  0.38873142  0.48818488  1
  O2-  O389  1  0.09767281  0.41942776  0.81714525  1
  O2-  O390  1  0.04499539  0.66744309  0.13859138  1
  O2-  O391  1  0.05955101  0.63101516  0.48761172  1
  O2-  O392  1  0.08904595  0.66548949  0.78170046  1
  O2-  O393  1  0.07888530  0.91411479  0.13892516  1
  O2-  O394  1  0.10056400  0.91887047  0.47390282  1
  O2-  O395  1  0.08683276  0.88405120  0.80016769  1
  O2-  O396  1  0.32344410  0.15616994  0.13981808  1
  O2-  O397  1  0.39158855  0.18971586  0.45625203  1
  O2-  O398  1  0.27579132  0.11567390  0.81607702  1
  O2-  O399  1  0.33065625  0.40195402  0.17613446  1
  O2-  O400  1  0.32902027  0.42197833  0.48234996  1
  O2-  O401  1  0.33250474  0.41237428  0.81409609  1
  O2-  O402  1  0.32729686  0.65750609  0.13892403  1
  O2-  O403  1  0.35557040  0.68308558  0.48980800  1
  O2-  O404  1  0.33697864  0.69490314  0.80765378  1
  O2-  O405  1  0.33860854  0.90318767  0.13960000  1
  O2-  O406  1  0.28111533  0.86778866  0.47435617  1
  O2-  O407  1  0.33578410  0.91301691  0.82118830  1
  O2-  O408  1  0.57159272  0.25484135  0.13320922  1
  O2-  O409  1  0.57538226  0.14128606  0.49498138  1
  O2-  O410  1  0.61957662  0.17579563  0.81832435  1
  O2-  O411  1  0.56092363  0.40643272  0.14846381  1
  O2-  O412  1  0.60256942  0.40537664  0.46352478  1
  O2-  O413  1  0.59500070  0.41560810  0.82023206  1
  O2-  O414  1  0.58075154  0.67466672  0.13096662  1
  O2-  O415  1  0.57618095  0.65923256  0.50508784  1
  O2-  O416  1  0.59356703  0.67054235  0.81010762  1
  O2-  O417  1  0.58435852  0.90550646  0.13990377  1
  O2-  O418  1  0.53205848  1.00559429  0.41951323  1
  O2-  O419  1  0.59889700  0.91722565  0.81298366  1
  O2-  O420  1  0.84111674  0.17573363  0.14735639  1
  O2-  O421  1  0.83230789  0.16258551  0.47991514  1
  O2-  O422  1  0.84503720  0.17219262  0.81664836  1
  O2-  O423  1  0.80512923  0.36563823  0.12539315  1
  O2-  O424  1  0.90670437  0.46133057  0.47765352  1
  O2-  O425  1  0.83700068  0.41781587  0.81243654  1
  O2-  O426  1  0.77250081  0.69557652  0.13072337  1
  O2-  O427  1  0.81427876  0.65567954  0.50890326  1
  O2-  O428  1  0.83840479  0.67634610  0.80530912  1
  O2-  O429  1  0.83114754  0.92273432  0.13975090  1
  O2-  O430  1  0.83868552  0.90538093  0.47325311  1
  O2-  O431  1  0.84870430  0.92059085  0.81190913  1
  O2-  O432  1  0.16082806  0.07553337  0.18051180  1
  O2-  O433  1  0.09519606  0.04135769  0.55657443  1
  O2-  O434  1  0.13002750  0.07002623  0.88230743  1
  O2-  O435  1  0.16003789  0.31095127  0.18620982  1
  O2-  O436  1  0.16839124  0.31354752  0.52679166  1
  O2-  O437  1  0.18217152  0.34016179  0.85168978  1
  O2-  O438  1  0.17796410  0.62829839  0.19762437  1
  O2-  O439  1  0.19451805  0.63525909  0.54860750  1
  O2-  O440  1  0.18271728  0.58269393  0.86793790  1
  O2-  O441  1  0.19560406  0.78458364  0.19918559  1
  O2-  O442  1  0.25669988  0.92337470  0.50815564  1
  O2-  O443  1  0.17255241  0.80501749  0.84597878  1
  O2-  O444  1  0.41206331  0.07865869  0.16690895  1
  O2-  O445  1  0.41194034  0.07326269  0.53773811  1
  O2-  O446  1  0.37885240  0.06009726  0.86919135  1
  O2-  O447  1  0.41535844  0.30907102  0.20301411  1
  O2-  O448  1  0.42611415  0.35022334  0.46452384  1
  O2-  O449  1  0.43373796  0.35015348  0.84728177  1
  O2-  O450  1  0.39618341  0.56265546  0.19586602  1
  O2-  O451  1  0.41339543  0.58059044  0.53354680  1
  O2-  O452  1  0.42893252  0.59749079  0.84766935  1
  O2-  O453  1  0.42242126  0.82337939  0.18567501  1
  O2-  O454  1  0.43947747  0.86924121  0.49764696  1
  O2-  O455  1  0.43529413  0.84902781  0.85940373  1
  O2-  O456  1  0.66445158  0.07603043  0.15797412  1
  O2-  O457  1  0.67250828  0.07937210  0.53141615  1
  O2-  O458  1  0.70285343  0.10217668  0.86603357  1
  O2-  O459  1  0.63793222  0.25706185  0.17393608  1
  O2-  O460  1  0.65405785  0.31198915  0.53247882  1
  O2-  O461  1  0.67745545  0.33368388  0.85176623  1
  O2-  O462  1  0.63312930  0.57865209  0.18095187  1
  O2-  O463  1  0.64789059  0.58602589  0.54419462  1
  O2-  O464  1  0.67546798  0.58656407  0.85023946  1
  O2-  O465  1  0.66717518  0.82449388  0.17507864  1
  O2-  O466  1  0.66736355  0.83026338  0.52338902  1
  O2-  O467  1  0.68204957  0.83360366  0.85147233  1
  O2-  O468  1  0.91156971  0.08535779  0.18543170  1
  O2-  O469  1  0.91929692  0.07992115  0.50854140  1
  O2-  O470  1  0.92391587  0.08851838  0.85212977  1
  O2-  O471  1  0.93695982  0.36959831  0.20032681  1
  O2-  O472  1  0.92038292  0.32599123  0.52347342  1
  O2-  O473  1  0.92375630  0.34072639  0.85221207  1
  O2-  O474  1  0.92441499  0.52450997  0.18840283  1
  O2-  O475  1  0.91306519  0.59837308  0.55146480  1
  O2-  O476  1  0.92735697  0.59471045  0.79500137  1
  O2-  O477  1  0.91149663  0.83811468  0.18025119  1
  O2-  O478  1  0.93014905  0.83423483  0.51889746  1
  O2-  O479  1  0.93200069  0.83759419  0.84821891  1
  O2-  O480  1  0.16811242  0.07484535  0.30762165  1
  O2-  O481  1  0.19520860  0.13121848  0.63955554  1
  O2-  O482  1  0.16177866  0.08426260  0.99950092  1
  O2-  O483  1  0.18416509  0.38641723  0.29905788  1
  O2-  O484  1  0.16570067  0.34550985  0.64916221  1
  O2-  O485  1  0.17220943  0.33812367  0.96716846  1
  O2-  O486  1  0.16351988  0.58100035  0.32538709  1
  O2-  O487  1  0.17101477  0.59619150  0.66487555  1
  O2-  O488  1  0.21341684  0.61420851  0.99471025  1
  O2-  O489  1  0.16852188  0.82797343  0.31020295  1
  O2-  O490  1  0.20847843  0.85872133  0.61227420  1
  O2-  O491  1  0.16104350  0.81024685  0.97116899  1
  O2-  O492  1  0.41169966  0.07524686  0.29204635  1
  O2-  O493  1  0.41255715  0.07982968  0.66521024  1
  O2-  O494  1  0.42211998  0.05476285  0.98663842  1
  O2-  O495  1  0.41559741  0.34390844  0.34157803  1
  O2-  O496  1  0.41543699  0.33232277  0.68466883  1
  O2-  O497  1  0.39262809  0.33670546  0.97622100  1
  O2-  O498  1  0.41770631  0.59734687  0.31595317  1
  O2-  O499  1  0.41312168  0.57630654  0.65876074  1
  O2-  O500  1  0.44943573  0.62939989  0.96580692  1
  O2-  O501  1  0.41139642  0.83113361  0.31309084  1
  O2-  O502  1  0.41024244  0.81842625  0.65533194  1
  O2-  O503  1  0.40914491  0.80385360  0.97827322  1
  O2-  O504  1  0.66167905  0.06876917  0.34476605  1
  O2-  O505  1  0.68243668  0.09875036  0.65595755  1
  O2-  O506  1  0.68519652  0.07209083  0.97755245  1
  O2-  O507  1  0.67451065  0.33094800  0.34198419  1
  O2-  O508  1  0.66565272  0.33201803  0.65168228  1
  O2-  O509  1  0.67167483  0.30289159  0.96733311  1
  O2-  O510  1  0.66368406  0.58432642  0.30140226  1
  O2-  O511  1  0.65651480  0.58234882  0.66109490  1
  O2-  O512  1  0.66503732  0.59093974  0.97145088  1
  O2-  O513  1  0.67702420  0.82916871  0.30330685  1
  O2-  O514  1  0.66194900  0.84063778  0.64475326  1
  O2-  O515  1  0.68139658  0.84046094  0.97500435  1
  O2-  O516  1  0.91581259  0.07832100  0.30737684  1
  O2-  O517  1  0.91496646  0.08292694  0.66768201  1
  O2-  O518  1  0.92106945  0.09054636  0.97587248  1
  O2-  O519  1  0.91324935  0.32870255  0.32249472  1
  O2-  O520  1  0.88303819  0.31745072  0.63675178  1
  O2-  O521  1  0.93140693  0.34183503  0.97422916  1
  O2-  O522  1  0.93285143  0.58031420  0.31203670  1
  O2-  O523  1  0.91803258  0.58456980  0.67593070  1
  O2-  O524  1  0.91247357  0.58819473  0.98154510  1
  O2-  O525  1  0.92709584  0.84122825  0.30375337  1
  O2-  O526  1  0.91876521  0.83747867  0.64253588  1
  O2-  O527  1  0.92052057  0.83507792  0.97329470  1
  O2-  O528  1  0.08477332  0.18015001  0.01507172  1
  O2-  O529  1  0.08508470  0.14727534  0.35471286  1
  O2-  O530  1  0.08817555  0.18335652  0.69746014  1
  O2-  O531  1  0.11193381  0.44818509  -0.01281103  1
  O2-  O532  1  0.07478038  0.41231890  0.36617859  1
  O2-  O533  1  0.07964103  0.43315858  0.62612335  1
  O2-  O534  1  0.06351092  0.65787218  0.02975904  1
  O2-  O535  1  0.09118287  0.67137881  0.36665351  1
  O2-  O536  1  0.10363378  0.68285871  0.71618437  1
  O2-  O537  1  0.08786550  0.90291817  0.00934427  1
  O2-  O538  1  0.08889609  0.91332608  0.34782566  1
  O2-  O539  1  0.09490187  0.89126048  0.66962550  1
  O2-  O540  1  0.31613596  0.17884420  0.01611549  1
  O2-  O541  1  0.33974271  0.16778410  0.33646878  1
  O2-  O542  1  0.28031526  0.08418747  0.70574539  1
  O2-  O543  1  0.32688484  0.46932329  0.02173667  1
  O2-  O544  1  0.33506515  0.43447106  0.35923938  1
  O2-  O545  1  0.33511010  0.42187991  0.70167854  1
  O2-  O546  1  0.29919965  0.63444110  0.01530010  1
  O2-  O547  1  0.33613926  0.67161671  0.36638865  1
  O2-  O548  1  0.33337103  0.65699438  0.69531964  1
  O2-  O549  1  0.32414528  0.88342198  0.01803299  1
  O2-  O550  1  0.33140410  0.91973278  0.35340791  1
  O2-  O551  1  0.34704524  0.91591100  0.69428762  1
  O2-  O552  1  0.59714304  0.13952175  0.01377308  1
  O2-  O553  1  0.57369400  0.16218033  0.32997455  1
  O2-  O554  1  0.58466495  0.17092414  0.69163526  1
  O2-  O555  1  0.54906798  0.43317912  0.02336332  1
  O2-  O556  1  0.58800739  0.42027457  0.33718542  1
  O2-  O557  1  0.58799709  0.42009974  0.69822516  1
  O2-  O558  1  0.59438252  0.67793885  0.01674324  1
  O2-  O559  1  0.57812561  0.66819160  0.34992445  1
  O2-  O560  1  0.58047643  0.67606175  0.68770285  1
  O2-  O561  1  0.57932548  0.90024509  0.01697423  1
  O2-  O562  1  0.58554055  0.89364675  0.33968880  1
  O2-  O563  1  0.58524079  0.93621839  0.69984619  1
  O2-  O564  1  0.84381584  0.17394247  0.02172102  1
  O2-  O565  1  0.83323812  0.15775170  0.35672769  1
  O2-  O566  1  0.84311655  0.18045723  0.70072830  1
  O2-  O567  1  0.83496916  0.41290338  0.00542640  1
  O2-  O568  1  0.84667401  0.42476572  0.35936233  1
  O2-  O569  1  0.83586344  0.41532273  0.69019042  1
  O2-  O570  1  0.82680583  0.67110375  0.02011535  1
  O2-  O571  1  0.84380167  0.66411099  0.32398021  1
  O2-  O572  1  0.82735833  0.67597475  0.68172030  1
  O2-  O573  1  0.84495220  0.92568257  0.01632458  1
  O2-  O574  1  0.83579741  0.91329440  0.35037749  1
  O2-  O575  1  0.83750343  0.92010429  0.69022615  1
