# generated using pymatgen
data_H2O
_symmetry_space_group_name_H-M   'P 1'
_cell_length_a   18.00479527
_cell_length_b   17.99894810
_cell_length_c   21.99270236
_cell_angle_alpha   89.98542710
_cell_angle_beta   89.99948338
_cell_angle_gamma   120.02391894
_symmetry_Int_Tables_number   1
_chemical_formula_structural   H2O
_chemical_formula_sum   'H384 O192'
_cell_volume   6170.77619650
_cell_formula_units_Z   192
loop_
 _symmetry_equiv_pos_site_id
 _symmetry_equiv_pos_as_xyz
  1  'x, y, z'
loop_
 _atom_type_symbol
 _atom_type_oxidation_number
  H+  1.0
  O2-  -2.0
loop_
 _atom_site_type_symbol
 _atom_site_label
 _atom_site_symmetry_multiplicity
 _atom_site_fract_x
 _atom_site_fract_y
 _atom_site_fract_z
 _atom_site_occupancy
  H+  H0  1  0.89102103  0.26506732  -0.00888638  1
  H+  H1  1  0.14762190  0.92102077  0.05594902  1
  H+  H2  1  0.51670231  0.38638237  0.83541250  1
  H+  H3  1  0.05718787  0.42364991  0.30291610  1
  H+  H4  1  0.26367609  0.13522606  0.48488608  1
  H+  H5  1  0.39759214  0.35104024  0.28683743  1
  H+  H6  1  0.28104831  0.14560736  0.15255778  1
  H+  H7  1  0.01893689  0.12856387  0.00419983  1
  H+  H8  1  0.46633518  0.10916789  0.16967855  1
  H+  H9  1  0.10591409  0.26260948  0.12647869  1
  H+  H10  1  0.88330860  0.84961239  0.66350518  1
  H+  H11  1  0.35600192  0.38416683  0.01415267  1
  H+  H12  1  0.17545273  0.26389344  0.20740272  1
  H+  H13  1  0.62960037  0.34721809  0.50091947  1
  H+  H14  1  0.86017176  0.93400987  0.15882550  1
  H+  H15  1  0.87208667  0.22764478  0.49630418  1
  H+  H16  1  0.35304426  0.47068372  0.01863614  1
  H+  H17  1  0.63249210  0.29175768  0.17218926  1
  H+  H18  1  0.37689001  0.74818948  0.83221679  1
  H+  H19  1  0.47853022  0.86360012  0.65749976  1
  H+  H20  1  0.26898748  0.38713158  0.82995407  1
  H+  H21  1  0.90662371  0.87071243  0.84318686  1
  H+  H22  1  0.51967239  0.88660922  0.33390463  1
  H+  H23  1  0.56944012  0.65889672  0.09953276  1
  H+  H24  1  0.89440943  0.14785917  0.17434705  1
  H+  H25  1  0.82434946  0.65295542  0.86372993  1
  H+  H26  1  0.86508518  0.82330357  0.17327617  1
  H+  H27  1  0.33547100  0.96228321  0.32886202  1
  H+  H28  1  0.83015012  0.68286632  0.40098983  1
  H+  H29  1  0.11572457  0.72711156  1.01189944  1
  H+  H30  1  0.15278018  0.13442446  0.16276232  1
  H+  H31  1  0.64688408  0.50932747  0.50912310  1
  H+  H32  1  0.15076454  0.55108633  0.32545489  1
  H+  H33  1  0.63253646  0.27968165  0.32137315  1
  H+  H34  1  0.61558078  0.63901873  0.82597453  1
  H+  H35  1  0.17078661  0.28494590  0.62088323  1
  H+  H36  1  0.11793186  0.65200334  0.16797948  1
  H+  H37  1  0.09680218  0.20291552  0.68631541  1
  H+  H38  1  0.49596474  0.53149180  0.28155663  1
  H+  H39  1  0.36555248  0.96883201  0.67179214  1
  H+  H40  1  0.62357841  0.47288067  0.00554895  1
  H+  H41  1  0.72965327  0.12122418  0.15725132  1
  H+  H42  1  0.47734830  0.86535055  0.50136223  1
  H+  H43  1  0.86585349  0.26106768  0.33160872  1
  H+  H44  1  0.77990968  0.89711796  0.33269061  1
  H+  H45  1  0.41257426  0.83905179  0.94213940  1
  H+  H46  1  0.87354920  0.78572669  0.55275143  1
  H+  H47  1  0.46208781  0.10825773  0.48224137  1
  H+  H48  1  0.53178630  0.64635243  0.81222607  1
  H+  H49  1  0.39227206  0.11964636  0.84456499  1
  H+  H50  1  0.63266114  0.77651102  0.32796129  1
  H+  H51  1  0.38736381  0.37007134  0.51371253  1
  H+  H52  1  0.10313830  0.40328630  0.17012479  1
  H+  H53  1  0.39524668  0.26851343  0.66151534  1
  H+  H54  1  0.60556029  0.47400494  0.34166998  1
  H+  H55  1  0.39247474  0.87960512  0.84622286  1
  H+  H56  1  0.36899679  0.10077973  0.32040638  1
  H+  H57  1  0.97200896  0.37172032  0.50576097  1
  H+  H58  1  0.47471238  0.86418273  0.17479060  1
  H+  H59  1  0.11190861  0.37635675  0.82760882  1
  H+  H60  1  0.13657455  0.10884559  0.99853896  1
  H+  H61  1  0.13815487  0.27192590  0.84624307  1
  H+  H62  1  0.41915987  0.58781425  0.76040451  1
  H+  H63  1  0.33879209  0.67123570  0.10887617  1
  H+  H64  1  0.59778146  0.72126221  0.15749699  1
  H+  H65  1  0.03998256  0.89366023  0.82296550  1
  H+  H66  1  -0.02209458  0.10904583  0.84569537  1
  H+  H67  1  0.09968033  0.88423240  0.31827969  1
  H+  H68  1  0.23363143  0.38652308  0.49833456  1
  H+  H69  1  0.65152935  0.77405458  0.83467213  1
  H+  H70  1  0.36097829  0.22518901  0.33609174  1
  H+  H71  1  0.59247526  0.89782527  0.00668115  1
  H+  H72  1  0.03829000  0.64148278  0.82530450  1
  H+  H73  1  0.46746240  0.61347097  0.17185887  1
  H+  H74  1  0.61987448  0.13742510  0.67510929  1
  H+  H75  1  1.04399579  0.71370039  0.46454280  1
  H+  H76  1  0.78150429  0.65318390  0.50159915  1
  H+  H77  1  0.60615984  0.38518979  0.83106394  1
  H+  H78  1  0.61621152  0.70211111  1.00109807  1
  H+  H79  1  0.61746725  0.22987195  0.00726988  1
  H+  H80  1  0.62112530  0.25751149  0.48747424  1
  H+  H81  1  0.91002903  0.07016275  0.16835828  1
  H+  H82  1  0.35631183  0.64797879  0.47075237  1
  H+  H83  1  0.97412847  0.84744559  0.66114051  1
  H+  H84  1  0.38840505  0.02956679  0.99710817  1
  H+  H85  1  0.14598375  0.02358122  0.84216073  1
  H+  H86  1  0.64211861  0.69839852  0.52889789  1
  H+  H87  1  0.11629464  0.23080783  0.34802429  1
  H+  H88  1  0.36678762  0.74122822  0.48664299  1
  H+  H89  1  0.11050159  0.87729831  0.66327599  1
  H+  H90  1  0.11108838  0.47566346  1.01631649  1
  H+  H91  1  0.36957036  0.98536225  0.82808491  1
  H+  H92  1  0.36692657  0.98325232  0.15854592  1
  H+  H93  1  0.85608642  0.20751219  0.82874375  1
  H+  H94  1  0.76747025  0.11843926  0.82803603  1
  H+  H95  1  0.88837779  0.52174200  0.17583887  1
  H+  H96  1  0.60683229  0.61170017  1.01056190  1
  H+  H97  1  0.39555032  0.07038923  0.25991407  1
  H+  H98  1  0.62420744  0.86829000  0.32438053  1
  H+  H99  1  0.64323491  0.26756962  0.83001964  1
  H+  H100  1  0.38932246  0.77483004  0.65922740  1
  H+  H101  1  0.76737175  0.60822850  0.16361860  1
  H+  H102  1  0.42081858  0.08643529  0.90262247  1
  H+  H103  1  0.64781160  0.08387338  0.11566396  1
  H+  H104  1  0.11296363  0.38349837  0.66441569  1
  H+  H105  1  0.38364847  0.36844104  0.84331077  1
  H+  H106  1  0.39819141  0.51443210  0.67879317  1
  H+  H107  1  0.24014677  0.37006492  0.65168919  1
  H+  H108  1  0.86991533  0.98605070  0.33280619  1
  H+  H109  1  0.23124824  0.62487561  0.17316663  1
  H+  H110  1  0.48195053  0.35823869  0.32036975  1
  H+  H111  1  0.49128702  0.60690057  0.67766492  1
  H+  H112  1  0.61477238  0.97166004  0.16239312  1
  H+  H113  1  0.07206937  0.87879759  0.47400540  1
  H+  H114  1  0.77402841  0.13244774  1.00856957  1
  H+  H115  1  0.87677550  -0.02521843  0.82506643  1
  H+  H116  1  0.32344185  0.16728677  0.41353017  1
  H+  H117  1  0.00200988  0.66208791  0.37644617  1
  H+  H118  1  0.72958170  0.11196443  0.66194790  1
  H+  H119  1  0.36390568  0.74531417  0.33042629  1
  H+  H120  1  0.61815203  0.88856110  0.66599350  1
  H+  H121  1  0.38484136  0.28002826  0.84699733  1
  H+  H122  1  0.52436638  0.13205990  0.83040956  1
  H+  H123  1  0.86768215  0.37229541  0.67751566  1
  H+  H124  1  0.72606531  0.60833670  0.33408501  1
  H+  H125  1  0.12010747  0.40834975  0.34454034  1
  H+  H126  1  0.86387070  0.14120528  0.34221388  1
  H+  H127  1  0.08767038  0.44942079  0.83407571  1
  H+  H128  1  0.85857131  0.64394876  0.34676580  1
  H+  H129  1  0.08448070  0.75137084  0.29514656  1
  H+  H130  1  0.86217396  0.62206537  0.16173740  1
  H+  H131  1  0.71238444  0.60600411  0.83021351  1
  H+  H132  1  0.36694623  0.64252232  1.01495213  1
  H+  H133  1  0.13814743  0.61692029  1.00862781  1
  H+  H134  1  0.36357302  0.22985455  0.00206909  1
  H+  H135  1  0.27743563  0.64137840  1.01677371  1
  H+  H136  1  0.25069833  0.87004625  0.32459851  1
  H+  H137  1  0.62270975  1.02299275  0.30680086  1
  H+  H138  1  0.14685285  0.77716174  0.83385342  1
  H+  H139  1  0.12728488  0.89212035  0.82048009  1
  H+  H140  1  0.47432720  0.36617450  0.99692791  1
  H+  H141  1  0.48189492  0.88123850  0.84932749  1
  H+  H142  1  0.94560332  0.35356454  0.34087106  1
  H+  H143  1  0.13889859  0.11764840  0.50048918  1
  H+  H144  1  0.33730026  0.16839628  0.06021494  1
  H+  H145  1  0.15844823  0.34435248  0.40887395  1
  H+  H146  1  0.63170042  0.00952269  0.84692024  1
  H+  H147  1  0.38192663  0.77572695  0.00115634  1
  H+  H148  1  0.85115454  0.38616394  0.16211786  1
  H+  H149  1  0.86919210  0.73585820  0.17856295  1
  H+  H150  1  0.94567007  0.64515032  0.46819830  1
  H+  H151  1  0.88767272  0.01345595  0.99625396  1
  H+  H152  1  0.63909323  0.07318345  0.24480791  1
  H+  H153  1  0.11478442  0.64314309  0.66719004  1
  H+  H154  1  0.50958584  0.13638728  0.32383206  1
  H+  H155  1  0.53095820  0.38678059  0.67640745  1
  H+  H156  1  0.66912693  0.55463153  0.24115429  1
  H+  H157  1  0.13912224  0.11933183  0.32229576  1
  H+  H158  1  0.03406302  0.18071461  0.16180864  1
  H+  H159  1  0.92026423  0.58532318  0.23424252  1
  H+  H160  1  0.52609655  0.14257784  1.00799224  1
  H+  H161  1  0.41640366  0.63207787  0.54760842  1
  H+  H162  1  0.50370315  0.89212521  0.01494593  1
  H+  H163  1  -0.00469179  0.86313613  0.00886669  1
  H+  H164  1  0.13857851  0.03045867  0.31452594  1
  H+  H165  1  0.32900696  0.68524132  0.39142522  1
  H+  H166  1  0.85070232  0.39116482  0.33818256  1
  H+  H167  1  0.60525094  0.15275540  0.16485565  1
  H+  H168  1  0.64091124  0.59299444  0.50882648  1
  H+  H169  1  0.52393052  0.38498229  0.49503750  1
  H+  H170  1  0.77547030  0.37719282  0.69339157  1
  H+  H171  1  0.02361022  0.13744587  0.49590757  1
  H+  H172  1  0.27532474  0.13935943  0.83566547  1
  H+  H173  1  0.84185170  0.86648066  0.48692285  1
  H+  H174  1  0.88463746  0.26496695  0.66253670  1
  H+  H175  1  0.21951031  0.35950853  0.00123284  1
  H+  H176  1  0.25994043  0.64833234  0.32688650  1
  H+  H177  1  0.36856549  0.88732591  0.15888808  1
  H+  H178  1  0.56733295  0.45089292  0.16906250  1
  H+  H179  1  0.97631162  0.35572638  0.99175912  1
  H+  H180  1  0.30284003  0.37483847  0.17925501  1
  H+  H181  1  0.43824586  0.56857382  0.25909818  1
  H+  H182  1  0.61235953  0.99191454  0.48256405  1
  H+  H183  1  0.66018623  0.83396490  0.99200677  1
  H+  H184  1  -0.00892923  0.85240656  0.17847852  1
  H+  H185  1  0.88296470  0.88159965  0.01080014  1
  H+  H186  1  0.41918144  0.32737408  0.60259919  1
  H+  H187  1  0.12823576  0.64731312  0.81555859  1
  H+  H188  1  0.35785336  0.13735418  0.48098079  1
  H+  H189  1  0.86029439  0.12639538  0.00960756  1
  H+  H190  1  0.10979533  -0.02051519  0.47503932  1
  H+  H191  1  0.41758421  0.36468806  0.16277737  1
  H+  H192  1  0.77558024  0.87664093  0.67130599  1
  H+  H193  1  0.49461755  0.10823136  0.65040335  1
  H+  H194  1  0.78871371  0.86733437  0.00308118  1
  H+  H195  1  0.23295085  0.38290264  0.36197521  1
  H+  H196  1  0.61001870  0.12518797  0.82965313  1
  H+  H197  1  0.72012922  0.85066301  0.17564014  1
  H+  H198  1  0.64694356  0.36529901  -0.01175766  1
  H+  H199  1  0.85819081  0.23990681  0.15964907  1
  H+  H200  1  0.90951942  0.61133511  0.84366653  1
  H+  H201  1  0.21453124  0.09459991  0.65308524  1
  H+  H202  1  0.15350121  0.68668018  0.51054912  1
  H+  H203  1  0.59715967  0.13526913  0.31871191  1
  H+  H204  1  0.83820628  0.90686476  0.73061412  1
  H+  H205  1  0.62322880  0.90960140  0.48629105  1
  H+  H206  1  0.90030209  0.57539957  0.55781875  1
  H+  H207  1  0.17457479  0.59192670  0.60094958  1
  H+  H208  1  0.22884575  0.62809576  0.50271185  1
  H+  H209  1  0.36361616  0.63825274  0.68136427  1
  H+  H210  1  0.26415639  0.13858485  0.33632912  1
  H+  H211  1  0.77653191  0.63529962  0.68052015  1
  H+  H212  1  0.35824849  0.10933112  0.66125944  1
  H+  H213  1  0.96473922  0.37164092  0.17967530  1
  H+  H214  1  0.11700352  0.13410143  0.83870381  1
  H+  H215  1  0.82785463  0.42156206  0.08190652  1
  H+  H216  1  0.79185435  0.38341944  0.82774216  1
  H+  H217  1  0.89203137  0.02031602  0.50386136  1
  H+  H218  1  0.67773397  0.33918554  0.78201643  1
  H+  H219  1  0.59212334  0.40746455  0.06079721  1
  H+  H220  1  0.26766803  0.88851194  1.00771797  1
  H+  H221  1  0.37904919  0.22661615  0.14863498  1
  H+  H222  1  0.53907176  0.64036717  0.33874472  1
  H+  H223  1  0.33139372  0.91601067  0.09657199  1
  H+  H224  1  0.07964583  0.16400534  0.06256961  1
  H+  H225  1  0.87002049  0.48533552  1.01510870  1
  H+  H226  1  0.22808392  0.11258591  0.99832043  1
  H+  H227  1  0.10473269  0.11941006  0.67524405  1
  H+  H228  1  0.47532619  0.60481167  1.00071941  1
  H+  H229  1  0.54185897  0.64488560  0.51792897  1
  H+  H230  1  0.98699492  0.87849975  0.31910068  1
  H+  H231  1  0.96608198  0.09635702  0.66268477  1
  H+  H232  1  0.32684150  -0.01743000  0.47759098  1
  H+  H233  1  0.76187694  0.39085617  0.16156230  1
  H+  H234  1  0.56489756  0.15338018  0.41050108  1
  H+  H235  1  0.37544812  0.10455352  0.16363994  1
  H+  H236  1  0.86635947  0.13487029  0.49784780  1
  H+  H237  1  0.37937127  0.86888976  0.32503163  1
  H+  H238  1  0.87695211  0.37509470  0.83258061  1
  H+  H239  1  0.02424385  0.64182346  0.16690305  1
  H+  H240  1  0.39035974  0.11935835  -0.00665308  1
  H+  H241  1  0.22753879  0.85925894  0.65929337  1
  H+  H242  1  0.14038979  0.52603939  0.65686230  1
  H+  H243  1  0.41951414  0.83087163  0.56150043  1
  H+  H244  1  0.36559255  0.37731112  0.67624646  1
  H+  H245  1  0.64285445  0.27368663  0.69011368  1
  H+  H246  1  0.64823216  0.52252999  0.66556606  1
  H+  H247  1  0.87042374  0.63545461  1.01058954  1
  H+  H248  1  0.11038737  0.41217132  0.48260393  1
  H+  H249  1  0.85978139  0.12778153  0.67306484  1
  H+  H250  1  0.64037647  0.79880770  0.49684373  1
  H+  H251  1  0.38408237  0.52051114  0.17676343  1
  H+  H252  1  0.64290554  0.61594161  0.32726032  1
  H+  H253  1  0.13750929  0.76824582  0.65501446  1
  H+  H254  1  0.11948639  0.76690904  0.20021208  1
  H+  H255  1  0.37559198  0.49176379  0.51315915  1
  H+  H256  1  0.38126800  0.27902068  0.50499614  1
  H+  H257  1  0.13350124  0.54795600  0.50358843  1
  H+  H258  1  0.41398307  0.84457876  0.26508464  1
  H+  H259  1  0.89075474  0.74157396  0.83634562  1
  H+  H260  1  0.20283179  0.33781946  0.25423399  1
  H+  H261  1  0.36299164  0.88017477  0.67453864  1
  H+  H262  1  0.38549224  0.47827881  0.34222245  1
  H+  H263  1  0.12399656  0.98973362  0.03368024  1
  H+  H264  1  0.73557608  0.60975395  -0.00316058  1
  H+  H265  1  0.34163686  0.92210963  0.76924704  1
  H+  H266  1  0.64237140  0.77423493  0.65103931  1
  H+  H267  1  0.36130799  0.63736664  0.17012135  1
  H+  H268  1  0.85222438  0.38175006  0.49064676  1
  H+  H269  1  0.60752584  0.38612377  0.33908860  1
  H+  H270  1  0.62961418  0.02900095  0.99994289  1
  H+  H271  1  0.90695587  0.52110426  0.84458739  1
  H+  H272  1  0.35567814  0.88700575  1.00957670  1
  H+  H273  1  0.77690985  0.39176265  0.01045299  1
  H+  H274  1  0.98105457  0.11866756  0.32837741  1
  H+  H275  1  0.62753487  0.51817101  0.84225049  1
  H+  H276  1  0.83102802  0.15633884  0.73372458  1
  H+  H277  1  0.74122558  0.13847024  0.50782455  1
  H+  H278  1  0.97002576  0.33592579  0.83625717  1
  H+  H279  1  0.61737186  -0.02224802  0.66809991  1
  H+  H280  1  0.13048854  0.27093632  0.99559894  1
  H+  H281  1  0.35978617  0.38532621  0.36666412  1
  H+  H282  1  0.90159331  0.33324070  0.23780232  1
  H+  H283  1  0.87380356  0.74380822  0.67637600  1
  H+  H284  1  0.85501068  0.50962694  0.50432882  1
  H+  H285  1  0.17080833  0.55443032  0.79768052  1
  H+  H286  1  0.12711454  0.85127048  0.97777779  1
  H+  H287  1  0.59328789  0.12457779  0.47215525  1
  H+  H288  1  0.07140769  0.44138483  0.42900205  1
  H+  H289  1  0.62858850  0.63744126  0.66849279  1
  H+  H290  1  0.83829642  0.91694076  0.42766289  1
  H+  H291  1  0.38432045  0.77517398  0.17516806  1
  H+  H292  1  0.16493000  0.33416880  0.90436488  1
  H+  H293  1  0.17174431  0.82848166  0.92619527  1
  H+  H294  1  0.60489206  0.67452113  0.72704584  1
  H+  H295  1  0.17630632  0.10088997  0.22166889  1
  H+  H296  1  0.91668411  0.07468995  0.56555829  1
  H+  H297  1  0.82650167  0.42361794  0.39788651  1
  H+  H298  1  0.90698453  0.77377934  1.00098987  1
  H+  H299  1  0.39581374  0.62679950  0.81604421  1
  H+  H300  1  0.83376740  0.16731976  0.40220721  1
  H+  H301  1  0.16414658  0.35505476  0.54853942  1
  H+  H302  1  0.66798439  0.35050801  0.23069474  1
  H+  H303  1  0.19361631  0.81806999  0.57489292  1
  H+  H304  1  0.16639500  0.58719630  0.94936054  1
  H+  H305  1  0.66024483  0.83381000  0.26049967  1
  H+  H306  1  0.92925971  0.57890353  0.94166621  1
  H+  H307  1  0.40878108  0.57658651  0.94649835  1
  H+  H308  1  0.88508460  0.10209540  0.84092616  1
  H+  H309  1  0.28859500  0.91534285  0.42081088  1
  H+  H310  1  0.92427167  0.09991522  0.26857154  1
  H+  H311  1  0.08607402  0.90977777  0.72432054  1
  H+  H312  1  0.63550020  0.86183719  0.17623664  1
  H+  H313  1  0.27516243  0.63897747  0.67531706  1
  H+  H314  1  0.91748506  0.31427494  0.89978157  1
  H+  H315  1  0.67315937  0.09373607  0.60169148  1
  H+  H316  1  0.45937327  0.03083081  0.60531640  1
  H+  H317  1  0.43473852  0.58232129  0.59683509  1
  H+  H318  1  0.29559195  0.06156659  0.71349289  1
  H+  H319  1  0.68480218  0.33733867  0.93256676  1
  H+  H320  1  0.11056067  0.22965588  0.49149770  1
  H+  H321  1  0.16624546  0.07997548  0.55663143  1
  H+  H322  1  0.97383462  0.35583868  0.66024619  1
  H+  H323  1  0.07442839  0.91240042  0.13064662  1
  H+  H324  1  0.57654250  0.90909054  0.10683690  1
  H+  H325  1  0.35272968  0.44463317  0.44807256  1
  H+  H326  1  0.90649660  0.82162587  0.26591040  1
  H+  H327  1  0.08642755  0.67584623  0.72440344  1
  H+  H328  1  0.91366621  0.33352373  0.56537627  1
  H+  H329  1  0.67474519  0.57967539  0.93743875  1
  H+  H330  1  0.91272397  0.07231527  0.93640318  1
  H+  H331  1  0.33700635  0.40884824  0.11096846  1
  H+  H332  1  0.85286024  0.41052206  0.74522602  1
  H+  H333  1  0.35713090  0.47697945  0.81766717  1
  H+  H334  1  0.24537071  0.86566562  0.50006751  1
  H+  H335  1  0.07552973  0.42268463  0.10596942  1
  H+  H336  1  0.83536762  0.66046462  0.06928391  1
  H+  H337  1  0.09153147  0.86481390  0.19344393  1
  H+  H338  1  0.65953396  0.86609656  0.83968665  1
  H+  H339  1  0.57895075  0.15438621  0.73475958  1
  H+  H340  1  0.13704126  0.53957772  0.17395471  1
  H+  H341  1  0.12485782  0.00950489  0.65006178  1
  H+  H342  1  0.34630112  0.69348280  0.76904623  1
  H+  H343  1  0.24368220  0.62976233  0.83262131  1
  H+  H344  1  0.11124275  0.38658784  0.01596496  1
  H+  H345  1  0.08771173  0.67808139  0.07670071  1
  H+  H346  1  0.16889481  0.07485319  0.90610993  1
  H+  H347  1  0.68534660  0.81614690  0.92707837  1
  H+  H348  1  0.59379178  0.68045433  0.40041876  1
  H+  H349  1  0.57880992  0.41152580  0.43370621  1
  H+  H350  1  0.66209389  0.07356244  0.90373355  1
  H+  H351  1  0.68160739  0.57687608  0.60379698  1
  H+  H352  1  0.67431394  0.84201033  0.59521078  1
  H+  H353  1  0.73343232  0.88144749  0.49678729  1
  H+  H354  1  0.41299659  0.08881695  0.54589807  1
  H+  H355  1  0.88805582  0.87589173  0.32171377  1
  H+  H356  1  0.41403994  0.34189052  0.93877333  1
  H+  H357  1  0.82570426  0.88562560  0.09645772  1
  H+  H358  1  0.08302055  0.16296962  0.40045912  1
  H+  H359  1  0.58034393  0.42064958  0.73960880  1
  H+  H360  1  0.54023759  0.82965144  0.80093706  1
  H+  H361  1  0.17830466  0.60608053  0.26286016  1
  H+  H362  1  0.89624728  0.53860629  0.32936982  1
  H+  H363  1  -0.01613783  0.61141414  0.00364228  1
  H+  H364  1  0.72107724  0.37086674  0.32733718  1
  H+  H365  1  0.69525692  0.18684474  0.53213091  1
  H+  H366  1  0.64611264  0.36622226  0.69097202  1
  H+  H367  1  0.83854015  0.17778492  0.09960020  1
  H+  H368  1  0.23621465  0.86736693  0.83790503  1
  H+  H369  1  0.94171265  0.84535166  0.90339372  1
  H+  H370  1  0.83630650  0.67013402  0.74292805  1
  H+  H371  1  0.63923452  0.12138292  0.99577339  1
  H+  H372  1  0.45234380  0.32624139  0.21278891  1
  H+  H373  1  0.08364785  0.40824715  0.72587144  1
  H+  H374  1  0.07939164  0.92131558  0.38021303  1
  H+  H375  1  0.79167164  0.88356711  0.82577903  1
  H+  H376  1  0.33549202  0.17257011  0.77691560  1
  H+  H377  1  0.87865460  0.00890254  0.65842622  1
  H+  H378  1  0.58641094  0.90815006  0.75764360  1
  H+  H379  1  0.58641569  0.92322946  0.39020045  1
  H+  H380  1  0.32772723  0.40285993  0.73435239  1
  H+  H381  1  0.75796354  0.37007941  0.48717964  1
  H+  H382  1  0.57623175  0.17654715  0.10355197  1
  H+  H383  1  0.08288930  0.15586843  0.77860474  1
  O2-  O384  1  0.09368181  0.20780401  0.14418429  1
  O2-  O385  1  0.08416736  0.16880699  0.47924455  1
  O2-  O386  1  0.08617219  0.16371603  0.82336109  1
  O2-  O387  1  0.07249623  0.42959985  0.15181717  1
  O2-  O388  1  0.07560548  0.43966514  0.47358604  1
  O2-  O389  1  0.07598699  0.39960182  0.80919404  1
  O2-  O390  1  0.08583091  0.68157566  0.15517211  1
  O2-  O391  1  0.14555960  0.73734105  0.50094020  1
  O2-  O392  1  0.09537388  0.67677225  0.80560609  1
  O2-  O393  1  0.05719828  0.89290434  0.17405611  1
  O2-  O394  1  0.07296041  0.92623781  0.45194453  1
  O2-  O395  1  0.09844554  0.92333350  0.80432176  1
  O2-  O396  1  0.34065325  0.16538470  0.13625432  1
  O2-  O397  1  0.32485910  0.16722035  0.46630051  1
  O2-  O398  1  0.33692158  0.17341940  0.82146381  1
  O2-  O399  1  0.35412483  0.41416839  0.15471427  1
  O2-  O400  1  0.34352712  0.43487119  0.49276583  1
  O2-  O401  1  0.32774200  0.41377497  0.81128092  1
  O2-  O402  1  0.33563273  0.67211973  0.15431092  1
  O2-  O403  1  0.32811396  0.68179364  0.46586739  1
  O2-  O404  1  0.34889132  0.68918769  0.81435800  1
  O2-  O405  1  0.33814963  0.91912869  0.14323262  1
  O2-  O406  1  0.27628255  0.92872296  0.46270479  1
  O2-  O407  1  0.34155485  0.92373169  0.81470720  1
  O2-  O408  1  0.56991917  0.17605520  0.14890436  1
  O2-  O409  1  0.55785384  0.14788100  0.45648737  1
  O2-  O410  1  0.58374554  0.15835282  0.81307564  1
  O2-  O411  1  0.59906249  0.51413645  0.16658561  1
  O2-  O412  1  0.58316886  0.41064290  0.47906001  1
  O2-  O413  1  0.57731175  0.41754908  0.81901702  1
  O2-  O414  1  0.55821286  0.66290461  0.14314445  1
  O2-  O415  1  0.59855085  0.67456390  0.49682139  1
  O2-  O416  1  0.59550679  0.67591973  0.80624092  1
  O2-  O417  1  0.58155261  0.90937975  0.15215029  1
  O2-  O418  1  0.58800479  0.93301902  0.46770314  1
  O2-  O419  1  0.57912409  0.89171856  0.80250749  1
  O2-  O420  1  0.83341380  0.17877470  0.14538591  1
  O2-  O421  1  0.83721729  0.16631850  0.48308685  1
  O2-  O422  1  0.82715572  0.14755984  0.81190229  1
  O2-  O423  1  0.82459096  0.41904600  0.14477564  1
  O2-  O424  1  0.81961401  0.40838000  0.47437165  1
  O2-  O425  1  0.85371528  0.41262431  0.81603409  1
  O2-  O426  1  0.82687285  0.64808144  0.14723327  1
  O2-  O427  1  0.83045128  0.70701680  0.48481871  1
  O2-  O428  1  0.85664879  0.67778272  0.82627213  1
  O2-  O429  1  0.81866237  0.87790960  0.14265298  1
  O2-  O430  1  0.83330222  0.91448770  0.47272568  1
  O2-  O431  1  0.85133427  0.91429685  0.80942324  1
  O2-  O432  1  0.18081110  0.10300649  0.17670276  1
  O2-  O433  1  0.17098561  0.08715795  0.51142508  1
  O2-  O434  1  0.17327563  0.08208592  0.86097690  1
  O2-  O435  1  0.22424632  0.30514348  0.23249782  1
  O2-  O436  1  0.16956714  0.35575555  0.50366375  1
  O2-  O437  1  0.16639486  0.33363515  0.85872196  1
  O2-  O438  1  0.17077211  0.59970383  0.18889956  1
  O2-  O439  1  0.17197518  0.60432059  0.52304275  1
  O2-  O440  1  0.18003307  0.58862124  0.83439788  1
  O2-  O441  1  0.14020723  0.82614871  0.21938294  1
  O2-  O442  1  0.21782294  0.80814786  0.53291956  1
  O2-  O443  1  0.17517053  0.83643712  0.85215227  1
  O2-  O444  1  0.40392163  0.07224502  0.18065280  1
  O2-  O445  1  0.40308956  0.08661609  0.50153873  1
  O2-  O446  1  0.42078213  0.08669976  0.85695908  1
  O2-  O447  1  0.45071562  0.33412188  0.16857798  1
  O2-  O448  1  0.41398522  0.33493945  0.52559904  1
  O2-  O449  1  0.41575787  0.34113624  0.86059316  1
  O2-  O450  1  0.40928041  0.58005431  0.19336128  1
  O2-  O451  1  0.43786223  0.59202500  0.55155691  1
  O2-  O452  1  0.42160115  0.59023392  0.80535799  1
  O2-  O453  1  0.41304433  0.83803688  0.18690682  1
  O2-  O454  1  0.41811204  0.82873894  0.51631047  1
  O2-  O455  1  0.42251680  0.85002123  0.86475751  1
  O2-  O456  1  0.66452312  0.08537267  0.15817568  1
  O2-  O457  1  0.68413532  0.12853205  0.52451854  1
  O2-  O458  1  0.66099318  0.07038484  0.85816190  1
  O2-  O459  1  0.67100740  0.35145108  0.18537610  1
  O2-  O460  1  0.65650072  0.31175767  0.50969733  1
  O2-  O461  1  0.67594974  0.33193719  0.82721973  1
  O2-  O462  1  0.67818982  0.53575315  0.20017400  1
  O2-  O463  1  0.67499468  0.56927490  0.52611677  1
  O2-  O464  1  0.66031709  0.58071796  0.85497106  1
  O2-  O465  1  0.66297052  0.83040313  0.19513693  1
  O2-  O466  1  0.67312315  0.85758257  0.51318539  1
  O2-  O467  1  0.68651410  0.83282333  0.85359236  1
  O2-  O468  1  0.93322704  0.12511003  0.18917387  1
  O2-  O469  1  0.92114614  0.08002066  0.52018958  1
  O2-  O470  1  0.91635919  0.07366513  0.85798568  1
  O2-  O471  1  0.90350539  0.33716268  0.19219658  1
  O2-  O472  1  0.91251715  0.33237834  0.52021513  1
  O2-  O473  1  0.91105682  0.31062053  0.85327557  1
  O2-  O474  1  0.92100876  0.58316298  0.18851439  1
  O2-  O475  1  0.99032298  0.69060447  0.44143730  1
  O2-  O476  1  0.93733481  0.58073851  0.86120962  1
  O2-  O477  1  0.89791478  0.79890824  0.19359676  1
  O2-  O478  1  0.82837538  0.77378858  0.52263726  1
  O2-  O479  1  0.93923883  0.84232786  0.85821204  1
  O2-  O480  1  0.17244133  0.09321538  0.30530891  1
  O2-  O481  1  0.15549286  0.07147809  0.63731521  1
  O2-  O482  1  0.16537537  0.07515832  0.98837733  1
  O2-  O483  1  0.16894776  0.35133949  0.36486167  1
  O2-  O484  1  0.18236048  0.34260300  0.63089748  1
  O2-  O485  1  0.16007607  0.33285276  0.98393330  1
  O2-  O486  1  0.18386929  0.61033361  0.30883405  1
  O2-  O487  1  0.17447484  0.58786483  0.64638466  1
  O2-  O488  1  0.16838869  0.58591655  0.99377339  1
  O2-  O489  1  0.13005207  0.81351258  0.28758809  1
  O2-  O490  1  0.17153222  0.83024449  0.63729110  1
  O2-  O491  1  0.16615459  0.82893244  0.97236519  1
  O2-  O492  1  0.39587655  0.06809997  0.30535124  1
  O2-  O493  1  0.44169296  0.06795840  0.62557186  1
  O2-  O494  1  0.42217386  0.08883665  0.98093242  1
  O2-  O495  1  0.42405725  0.31790664  0.30000015  1
  O2-  O496  1  0.42236613  0.32829828  0.64832146  1
  O2-  O497  1  0.41337910  0.33867970  0.98428166  1
  O2-  O498  1  0.46118345  0.55469928  0.29803037  1
  O2-  O499  1  0.42672759  0.57873769  0.67375212  1
  O2-  O500  1  0.41245312  0.58047103  0.99075744  1
  O2-  O501  1  0.41523347  0.84396562  0.31065955  1
  O2-  O502  1  0.41761552  0.83490861  0.64345992  1
  O2-  O503  1  0.40891024  0.83747446  0.98770328  1
  O2-  O504  1  0.63705249  0.07863940  0.28886456  1
  O2-  O505  1  0.66882673  0.08428897  0.64654354  1
  O2-  O506  1  0.66634650  0.08709886  0.98235381  1
  O2-  O507  1  0.66128247  0.34178590  0.31067428  1
  O2-  O508  1  0.67862714  0.33597997  0.70133072  1
  O2-  O509  1  0.68170884  0.33728827  0.97705731  1
  O2-  O510  1  0.66499507  0.57746398  0.31672293  1
  O2-  O511  1  0.68150936  0.58252345  0.64934469  1
  O2-  O512  1  0.67473205  0.57498173  0.98239643  1
  O2-  O513  1  0.65891734  0.83715950  0.30909272  1
  O2-  O514  1  0.67281377  0.83646190  0.64033199  1
  O2-  O515  1  0.68767373  0.80569550  0.97217545  1
  O2-  O516  1  0.92077536  0.08800596  0.31287371  1
  O2-  O517  1  0.90779342  0.07006620  0.64459523  1
  O2-  O518  1  0.91403270  0.07390501  0.98210555  1
  O2-  O519  1  0.89373542  0.32397488  0.31615533  1
  O2-  O520  1  0.91172650  0.32636074  0.64829686  1
  O2-  O521  1  0.92024487  0.32216034  0.97123574  1
  O2-  O522  1  0.92014103  0.59762848  0.31079802  1
  O2-  O523  1  0.87427764  0.56948265  0.51802812  1
  O2-  O524  1  0.92382914  0.57911571  0.98693549  1
  O2-  O525  1  0.91990737  0.84458031  0.30906899  1
  O2-  O526  1  0.91041269  0.81375741  0.65146359  1
  O2-  O527  1  0.94005191  0.83507225  0.98686043  1
  O2-  O528  1  0.08060244  0.16158132  0.01779833  1
  O2-  O529  1  0.08646196  0.16819269  0.35501677  1
  O2-  O530  1  0.07078317  0.14221258  0.69651638  1
  O2-  O531  1  0.08035437  0.41579751  0.03221757  1
  O2-  O532  1  0.08743458  0.44005728  0.34185461  1
  O2-  O533  1  0.08176873  0.41131806  0.68079693  1
  O2-  O534  1  0.08655447  0.66951135  0.03140171  1
  O2-  O535  1  0.01018523  0.64735094  0.33226179  1
  O2-  O536  1  0.08726799  0.67675590  0.67925938  1
  O2-  O537  1  0.09972993  0.93203088  0.05548545  1
  O2-  O538  1  0.07656037  0.92101586  0.33379274  1
  O2-  O539  1  0.07810746  0.90518681  0.67903715  1
  O2-  O540  1  0.33496221  0.16802048  0.01445082  1
  O2-  O541  1  0.32453451  0.16680792  0.35538465  1
  O2-  O542  1  0.31747763  0.11354960  0.68872129  1
  O2-  O543  1  0.32251815  0.40969763  0.03193567  1
  O2-  O544  1  0.34391009  0.42979739  0.36947887  1
  O2-  O545  1  0.33525831  0.40856467  0.68883419  1
  O2-  O546  1  0.33873255  0.67483171  0.02978122  1
  O2-  O547  1  0.33039461  0.68345557  0.34546719  1
  O2-  O548  1  0.33568624  0.67186975  0.69159394  1
  O2-  O549  1  0.32661520  0.91851176  0.02553687  1
  O2-  O550  1  0.30652925  0.90230877  0.34558759  1
  O2-  O551  1  0.33324070  0.91124469  0.69034522  1
  O2-  O552  1  0.58597611  0.17119363  0.02496558  1
  O2-  O553  1  0.57023838  0.16724655  0.33769018  1
  O2-  O554  1  0.58443607  0.16299894  0.68945240  1
  O2-  O555  1  0.59056490  0.40983616  0.01645043  1
  O2-  O556  1  0.57234726  0.41208101  0.35425516  1
  O2-  O557  1  0.58915881  0.41927672  0.69476828  1
  O2-  O558  1  0.57794637  0.64536360  0.01996225  1
  O2-  O559  1  0.59592176  0.68514134  0.35576885  1
  O2-  O560  1  0.59757199  0.66802484  0.68189524  1
  O2-  O561  1  0.56578203  0.92422844  0.03000648  1
  O2-  O562  1  0.58206584  0.91294685  0.34497720  1
  O2-  O563  1  0.58689627  0.91686056  0.68298804  1
  O2-  O564  1  0.83361070  0.15995120  0.02494902  1
  O2-  O565  1  0.83264923  0.16977120  0.35713688  1
  O2-  O566  1  0.83260124  0.16107036  0.68812561  1
  O2-  O567  1  0.83383229  0.42445742  0.03239892  1
  O2-  O568  1  0.82881066  0.42913854  0.35224308  1
  O2-  O569  1  0.84154075  0.40566262  0.69869215  1
  O2-  O570  1  0.84108929  0.66727972  0.02384315  1
  O2-  O571  1  0.81981095  0.66568039  0.35794575  1
  O2-  O572  1  0.83663701  0.67225415  0.69792532  1
  O2-  O573  1  0.84427799  0.90368724  0.02456540  1
  O2-  O574  1  0.83999284  0.92366853  0.34627655  1
  O2-  O575  1  0.83670590  0.90358194  0.68504094  1
