# generated using pymatgen
data_H2O
_symmetry_space_group_name_H-M   'P 1'
_cell_length_a   17.98926218
_cell_length_b   17.98766004
_cell_length_c   22.00341069
_cell_angle_alpha   89.99582999
_cell_angle_beta   90.02294015
_cell_angle_gamma   119.99265445
_symmetry_Int_Tables_number   1
_chemical_formula_structural   H2O
_chemical_formula_sum   'H384 O192'
_cell_volume   6166.52874860
_cell_formula_units_Z   192
loop_
 _symmetry_equiv_pos_site_id
 _symmetry_equiv_pos_as_xyz
  1  'x, y, z'
loop_
 _atom_type_symbol
 _atom_type_oxidation_number
  H+  1.0
  O2-  -2.0
loop_
 _atom_site_type_symbol
 _atom_site_label
 _atom_site_symmetry_multiplicity
 _atom_site_fract_x
 _atom_site_fract_y
 _atom_site_fract_z
 _atom_site_occupancy
  H+  H0  1  0.97509032  0.11237430  0.17441117  1
  H+  H1  1  0.11363137  0.63838970  0.66989239  1
  H+  H2  1  0.40046853  0.54080809  0.80340064  1
  H+  H3  1  0.12053381  0.63367306  0.50933969  1
  H+  H4  1  0.87030276  0.72356111  0.16047005  1
  H+  H5  1  0.12961237  0.87695126  0.32439206  1
  H+  H6  1  0.63594028  0.02734896  0.17550003  1
  H+  H7  1  0.37446599  0.49101323  0.34198287  1
  H+  H8  1  0.97634594  0.11328998  0.50988096  1
  H+  H9  1  0.37259880  0.26455177  0.98669455  1
  H+  H10  1  0.61338841  0.97617374  0.00465186  1
  H+  H11  1  0.38281561  0.77618596  0.33033291  1
  H+  H12  1  0.63977952  0.31940528  0.60794257  1
  H+  H13  1  0.77088818  0.88313987  0.48813597  1
  H+  H14  1  0.61351373  0.22913974  0.14478603  1
  H+  H15  1  0.38993428  0.27340077  0.50459444  1
  H+  H16  1  0.62207796  1.02157972  0.84113968  1
  H+  H17  1  0.36363139  0.98575483  0.67105535  1
  H+  H18  1  0.37238069  0.38196806  0.67013029  1
  H+  H19  1  0.87231214  0.09712687  0.66365700  1
  H+  H20  1  0.11062874  0.76744638  0.83462730  1
  H+  H21  1  0.13442602  0.77721286  0.52081209  1
  H+  H22  1  0.11995347  0.14487324  0.49534851  1
  H+  H23  1  0.85584981  0.12915852  0.83226718  1
  H+  H24  1  0.71101561  0.36730431  0.84058134  1
  H+  H25  1  0.72517125  0.85919777  0.64977801  1
  H+  H26  1  0.37320067  0.49051227  0.99040473  1
  H+  H27  1  0.86008323  -0.02737373  0.16544548  1
  H+  H28  1  0.11207473  0.64006521  1.01261238  1
  H+  H29  1  0.39128838  0.61339247  0.95921710  1
  H+  H30  1  0.37260653  0.85804497  0.83419558  1
  H+  H31  1  0.51947617  0.63994260  0.15525542  1
  H+  H32  1  0.61544856  0.34605281  0.67007229  1
  H+  H33  1  0.89893371  0.77964308  0.83687246  1
  H+  H34  1  0.47879668  0.36436516  0.50625262  1
  H+  H35  1  0.38914716  0.86896426  0.98810682  1
  H+  H36  1  0.11719175  0.87039298  0.83798513  1
  H+  H37  1  0.15019202  0.12249926  0.85256742  1
  H+  H38  1  0.06673164  0.40288430  0.47874409  1
  H+  H39  1  -0.02452123  0.61820277  0.65696133  1
  H+  H40  1  0.73702142  0.62090858  0.32536031  1
  H+  H41  1  0.88306944  0.60670329  0.16379621  1
  H+  H42  1  0.23643046  0.36661054  0.33120626  1
  H+  H43  1  0.37655190  0.14284969  0.00841040  1
  H+  H44  1  0.65242433  0.31840342  0.20060528  1
  H+  H45  1  0.73888511  0.61835378  -0.00724537  1
  H+  H46  1  0.17197040  0.58383947  0.59835418  1
  H+  H47  1  -0.01087120  0.86681638  0.32664805  1
  H+  H48  1  0.36769805  0.73599379  -0.01068272  1
  H+  H49  1  0.12089896  0.00496729  0.32739206  1
  H+  H50  1  0.86808107  0.64487017  0.82534986  1
  H+  H51  1  0.75866066  0.37352782  0.14980705  1
  H+  H52  1  0.54402137  0.39410770  0.34151844  1
  H+  H53  1  0.59520495  0.38428875  0.83117589  1
  H+  H54  1  0.37667952  0.47504115  0.66420387  1
  H+  H55  1  0.48336294  0.11050384  0.83940277  1
  H+  H56  1  0.00118378  0.44263108  0.52441910  1
  H+  H57  1  0.89179355  0.37464104  0.17749641  1
  H+  H58  1  0.68335580  0.58877112  0.89576725  1
  H+  H59  1  0.87474847  0.73295197  0.33736784  1
  H+  H60  1  0.54497340  0.14449935  0.33656313  1
  H+  H61  1  0.72389577  0.09013934  0.66088910  1
  H+  H62  1  0.11458697  0.63490525  0.31156577  1
  H+  H63  1  0.72560521  0.10856954  -0.00528635  1
  H+  H64  1  0.46255440  0.09831940  0.50555533  1
  H+  H65  1  -0.03070567  0.61074673  0.83678845  1
  H+  H66  1  1.02036348  0.29882645  0.81642107  1
  H+  H67  1  0.73012754  0.85894713  0.98765285  1
  H+  H68  1  0.10168646  0.37968878  1.00173146  1
  H+  H69  1  0.16910261  0.28269108  0.65807357  1
  H+  H70  1  0.56975487  0.41326089  0.76961694  1
  H+  H71  1  0.85299471  0.21134943  0.67926217  1
  H+  H72  1  0.85445731  0.95736427  0.00183748  1
  H+  H73  1  0.37310335  0.63826502  0.48976824  1
  H+  H74  1  0.83574592  0.46129068  0.48905808  1
  H+  H75  1  0.48233980  0.12029093  0.16692099  1
  H+  H76  1  0.86067286  -0.02645868  0.33633910  1
  H+  H77  1  0.38144725  0.77341433  0.66228032  1
  H+  H78  1  0.65140679  0.51061293  0.16934595  1
  H+  H79  1  0.63747023  0.48642033  0.99672968  1
  H+  H80  1  0.11231987  0.98320908  0.15958865  1
  H+  H81  1  0.96959104  0.10610625  1.00363158  1
  H+  H82  1  0.14751063  0.36673920  0.32940373  1
  H+  H83  1  0.89277961  0.26552751  0.32638377  1
  H+  H84  1  1.01864860  0.43284074  0.55271233  1
  H+  H85  1  0.59484883  0.89009538  0.83082155  1
  H+  H86  1  0.37137421  0.62740687  0.81672164  1
  H+  H87  1  0.13455761  0.52285414  0.99775214  1
  H+  H88  1  0.64004493  0.61729800  0.50314491  1
  H+  H89  1  0.87387591  0.51029960  0.16368593  1
  H+  H90  1  0.10685656  0.89069436  0.15511226  1
  H+  H91  1  0.50289607  0.88464877  0.82791474  1
  H+  H92  1  0.61746571  0.98992684  0.66888073  1
  H+  H93  1  0.34894405  0.22992257  0.81978834  1
  H+  H94  1  0.91008125  0.32192135  0.51446097  1
  H+  H95  1  0.73043470  0.86390958  0.17850776  1
  H+  H96  1  0.23851215  0.12172901  0.83410956  1
  H+  H97  1  0.52130379  0.88616138  0.33902255  1
  H+  H98  1  0.01279239  0.62518207  0.15836987  1
  H+  H99  1  0.85408067  0.96454106  0.67211370  1
  H+  H100  1  0.13347004  0.36318932  0.18107050  1
  H+  H101  1  0.36122502  0.13291217  0.49978750  1
  H+  H102  1  0.41808527  0.32870928  0.61097751  1
  H+  H103  1  0.62517022  0.89554398  0.16254832  1
  H+  H104  1  0.11253870  0.22563667  0.16745058  1
  H+  H105  1  0.36960599  0.23907108  0.67353803  1
  H+  H106  1  0.02205739  0.88860224  0.67288650  1
  H+  H107  1  0.87869189  0.48179780  0.32718382  1
  H+  H108  1  0.07423110  0.16343094  0.07268368  1
  H+  H109  1  0.26874235  0.88692410  0.50092171  1
  H+  H110  1  -0.03866733  0.59521032  0.51085172  1
  H+  H111  1  0.60844340  0.88173666  0.33865457  1
  H+  H112  1  0.97673897  0.60563352  0.99426401  1
  H+  H113  1  0.77707732  0.85233006  0.81943768  1
  H+  H114  1  0.07764800  0.66736966  0.07145738  1
  H+  H115  1  0.37873000  0.85979706  0.50882810  1
  H+  H116  1  0.13532466  0.78893486  0.31239302  1
  H+  H117  1  0.12051272  0.98441070  0.83011866  1
  H+  H118  1  0.72964553  0.61705759  0.50326072  1
  H+  H119  1  0.97198144  0.61038259  0.30157602  1
  H+  H120  1  0.96736760  0.89311045  0.99572085  1
  H+  H121  1  0.11697727  0.22084358  0.34243463  1
  H+  H122  1  0.85936682  0.88351850  0.16481768  1
  H+  H123  1  0.24454854  0.62363312  0.50410430  1
  H+  H124  1  0.11675976  0.77371725  0.17353967  1
  H+  H125  1  0.78209685  0.63042183  0.16097033  1
  H+  H126  1  0.36974757  -0.02603440  0.83063161  1
  H+  H127  1  0.39751466  0.30306304  0.33188219  1
  H+  H128  1  0.41671145  0.04781383  0.99808285  1
  H+  H129  1  0.88484846  0.77116387  0.65940494  1
  H+  H130  1  0.20685411  0.44269241  0.79832250  1
  H+  H131  1  0.12210930  0.48534866  0.33131554  1
  H+  H132  1  0.61902273  0.99210095  0.50866621  1
  H+  H133  1  0.77895283  0.64317980  0.82560726  1
  H+  H134  1  0.70458660  0.35649246  0.52516666  1
  H+  H135  1  0.87323549  0.39364425  0.68895810  1
  H+  H136  1  0.61258958  0.23161410  0.82695630  1
  H+  H137  1  0.64977558  0.28108539  0.99392240  1
  H+  H138  1  0.26423889  0.88892225  0.34169415  1
  H+  H139  1  0.40566686  0.39237754  0.32745795  1
  H+  H140  1  0.71752104  0.10306322  0.84037917  1
  H+  H141  1  0.87812306  0.25891052  0.99836736  1
  H+  H142  1  0.25512271  0.36770833  0.49047042  1
  H+  H143  1  0.13545997  1.03105923  0.50898519  1
  H+  H144  1  0.96824307  0.11207168  0.32967707  1
  H+  H145  1  0.10664171  0.63580337  0.16339778  1
  H+  H146  1  0.63020121  0.85278216  0.49616541  1
  H+  H147  1  0.61004060  0.13581625  0.15603889  1
  H+  H148  1  0.76986456  0.63320456  0.67349459  1
  H+  H149  1  0.13981804  0.86866608  0.66556120  1
  H+  H150  1  0.12866827  0.11778160  0.66614114  1
  H+  H151  1  0.83792550  0.66847402  0.43114169  1
  H+  H152  1  0.72449803  0.86096734  0.32614706  1
  H+  H153  1  0.35736471  0.97547196  0.49996903  1
  H+  H154  1  0.90036459  0.57111812  0.56715592  1
  H+  H155  1  0.83235768  0.40858060  0.09916763  1
  H+  H156  1  0.88474688  0.61484437  0.66034793  1
  H+  H157  1  0.85849568  0.61852655  1.00881531  1
  H+  H158  1  0.61911858  0.72862620  0.33607991  1
  H+  H159  1  0.50191832  0.37230395  0.67779374  1
  H+  H160  1  0.88435142  0.86126037  0.50529875  1
  H+  H161  1  0.74138079  0.36379424  0.35944406  1
  H+  H162  1  0.13546114  0.52008205  0.65475648  1
  H+  H163  1  0.59985570  0.74704004  0.82484016  1
  H+  H164  1  0.26130383  0.37867865  0.16629946  1
  H+  H165  1  0.50047400  0.13957446  -0.00399237  1
  H+  H166  1  0.66505346  0.83082794  0.26636200  1
  H+  H167  1  0.01410521  0.37990881  0.00558778  1
  H+  H168  1  0.48619248  0.61916729  0.32793627  1
  H+  H169  1  0.60175362  0.42379632  0.05439798  1
  H+  H170  1  0.11447017  0.13746034  0.16624792  1
  H+  H171  1  0.10854343  0.75872522  0.99507344  1
  H+  H172  1  0.89845704  0.86783467  0.83252436  1
  H+  H173  1  0.39309115  0.61926432  0.65640491  1
  H+  H174  1  0.10912338  0.12760424  0.34213853  1
  H+  H175  1  0.61281067  0.72640295  -0.00275040  1
  H+  H176  1  0.36298215  0.18864318  0.34570330  1
  H+  H177  1  0.84863992  0.11694894  0.49221914  1
  H+  H178  1  0.59737751  0.21881697  0.67113108  1
  H+  H179  1  0.61303466  0.48421661  0.49755315  1
  H+  H180  1  0.83395857  0.91377674  0.39512135  1
  H+  H181  1  0.46251303  0.36593648  0.83225508  1
  H+  H182  1  0.64821751  0.04115621  0.32355473  1
  H+  H183  1  0.36481416  0.13747308  0.15996045  1
  H+  H184  1  0.85995097  0.63384408  0.49193082  1
  H+  H185  1  0.85885337  0.87751773  0.67012710  1
  H+  H186  1  0.37058028  -0.00651903  0.14749209  1
  H+  H187  1  0.63682644  0.77813416  0.17363681  1
  H+  H188  1  0.87562476  0.48397978  0.68352912  1
  H+  H189  1  0.19330355  0.84682994  0.98957092  1
  H+  H190  1  0.16446437  0.60419144  0.91027081  1
  H+  H191  1  0.24976867  0.11462897  0.99131946  1
  H+  H192  1  0.64675957  0.52835435  0.83747854  1
  H+  H193  1  0.30986912  0.94185224  -0.00303031  1
  H+  H194  1  0.89446401  0.86094930  0.32486135  1
  H+  H195  1  0.36274569  0.22533096  0.15946102  1
  H+  H196  1  0.90186604  0.35967724  0.32685947  1
  H+  H197  1  0.52821726  0.63611348  -0.01158530  1
  H+  H198  1  0.37611762  0.38566679  0.49532728  1
  H+  H199  1  0.16242630  0.37119956  0.48124295  1
  H+  H200  1  0.92707947  0.34367955  0.23437047  1
  H+  H201  1  0.84461705  0.21261573  0.83187923  1
  H+  H202  1  0.59878329  0.45904706  0.67522495  1
  H+  H203  1  0.62859844  0.78411588  0.64963189  1
  H+  H204  1  0.97567388  0.12817663  0.84504357  1
  H+  H205  1  0.62112984  0.63950829  0.33489568  1
  H+  H206  1  0.61574453  0.37271948  0.14158394  1
  H+  H207  1  0.22572843  0.61250625  0.99656684  1
  H+  H208  1  0.33183485  0.36683625  0.83530260  1
  H+  H209  1  0.58632885  0.09580265  0.49165556  1
  H+  H210  1  0.39440864  0.01066849  0.32244663  1
  H+  H211  1  0.14722572  0.02538615  0.99246536  1
  H+  H212  1  0.63812084  0.86208133  0.99429720  1
  H+  H213  1  0.38016558  0.77060781  0.50696272  1
  H+  H214  1  0.82644508  0.32494719  0.51553015  1
  H+  H215  1  0.62178156  0.14232805  0.00441356  1
  H+  H216  1  0.36843567  0.63933457  0.33619693  1
  H+  H217  1  1.02612402  0.89500100  0.82813031  1
  H+  H218  1  0.93944148  0.34687557  0.84919147  1
  H+  H219  1  0.37930496  0.51469064  0.17855484  1
  H+  H220  1  0.32132245  0.16763489  0.76107502  1
  H+  H221  1  0.21856653  0.34488907  0.97511320  1
  H+  H222  1  0.38890633  0.09294924  0.32723240  1
  H+  H223  1  0.62220239  0.59098485  0.65577981  1
  H+  H224  1  0.82185920  0.14992157  0.73720800  1
  H+  H225  1  0.65538316  0.27648494  0.37469527  1
  H+  H226  1  0.16164745  0.59320867  0.36654807  1
  H+  H227  1  0.38371647  0.36055954  0.17078414  1
  H+  H228  1  0.62929234  0.38978210  0.36218495  1
  H+  H229  1  0.11955845  0.38377406  0.66602076  1
  H+  H230  1  0.83924480  0.38285366  0.84050481  1
  H+  H231  1  0.86113102  0.97128604  0.49224833  1
  H+  H232  1  0.27814900  0.14706876  0.67032461  1
  H+  H233  1  0.82529245  0.19133708  0.49625684  1
  H+  H234  1  0.84983804  0.12192041  0.15532917  1
  H+  H235  1  0.37721540  0.76774935  0.83347702  1
  H+  H236  1  0.13060858  0.03040769  0.66240609  1
  H+  H237  1  0.02499640  0.89439908  0.49640755  1
  H+  H238  1  0.64855543  0.61855289  0.98885149  1
  H+  H239  1  0.16005854  0.49048197  0.82274456  1
  H+  H240  1  0.48246558  0.61195500  0.50233384  1
  H+  H241  1  0.31120025  0.43766399  0.85693304  1
  H+  H242  1  0.97038215  0.34947384  0.66322553  1
  H+  H243  1  0.22745854  0.11431104  0.17761355  1
  H+  H244  1  0.96038965  0.09723867  0.66880673  1
  H+  H245  1  0.87006245  0.46713620  0.00430895  1
  H+  H246  1  0.09696544  0.89460492  0.00690751  1
  H+  H247  1  0.88798567  0.77418455  0.50521467  1
  H+  H248  1  0.65589160  0.70026944  0.69009564  1
  H+  H249  1  0.87803749  0.52289222  0.84296670  1
  H+  H250  1  0.71543043  0.90398462  0.85164386  1
  H+  H251  1  0.59483155  0.92228300  0.10271634  1
  H+  H252  1  0.11389134  0.89628980  0.49891055  1
  H+  H253  1  0.50784014  0.88980450  0.67552016  1
  H+  H254  1  0.86723511  0.63979926  0.33338903  1
  H+  H255  1  0.51232082  0.65407700  0.81985928  1
  H+  H256  1  0.70752798  0.08027441  0.50575149  1
  H+  H257  1  0.48378744  0.62338098  0.65744740  1
  H+  H258  1  0.13549295  0.52346598  0.18078217  1
  H+  H259  1  0.61762789  0.14447070  0.82734246  1
  H+  H260  1  0.47524533  0.11375280  0.66206266  1
  H+  H261  1  0.65174359  0.52998173  0.32934238  1
  H+  H262  1  0.26572315  0.63147653  0.17945654  1
  H+  H263  1  0.37461305  0.47741685  0.49686605  1
  H+  H264  1  0.03537977  0.34602456  0.81267740  1
  H+  H265  1  0.10007106  0.21555027  0.01057286  1
  H+  H266  1  0.52953878  0.38156702  0.14769604  1
  H+  H267  1  0.62201354  0.36357159  0.51399000  1
  H+  H268  1  0.85509155  0.12565879  1.00744187  1
  H+  H269  1  0.21248450  0.09515158  0.33102539  1
  H+  H270  1  0.36436992  0.77845777  0.18685274  1
  H+  H271  1  0.37904898  0.86314634  0.33660609  1
  H+  H272  1  0.23101493  0.67184145  0.86503996  1
  H+  H273  1  0.10943001  0.65076080  0.82734075  1
  H+  H274  1  0.18564650  0.27551414  0.83390694  1
  H+  H275  1  0.27488173  0.63513383  0.67057811  1
  H+  H276  1  0.16098820  0.53288413  0.49847411  1
  H+  H277  1  0.89646705  1.02980486  0.84290416  1
  H+  H278  1  0.65487821  0.37451792  0.99115162  1
  H+  H279  1  0.76147754  0.13568582  0.32803117  1
  H+  H280  1  0.36118565  0.89428764  0.67170211  1
  H+  H281  1  0.02617874  0.39648586  0.16684988  1
  H+  H282  1  0.63483715  0.14179110  0.33655120  1
  H+  H283  1  0.61576587  0.72477461  0.48781684  1
  H+  H284  1  0.35322750  0.89721891  0.15188635  1
  H+  H285  1  0.77752527  0.38160342  0.00314369  1
  H+  H286  1  0.11753469  0.73004211  0.67172497  1
  H+  H287  1  0.06184970  0.21814639  0.68525848  1
  H+  H288  1  0.91546825  0.83139429  0.59972900  1
  H+  H289  1  0.42483126  0.58719550  0.56309675  1
  H+  H290  1  0.32144044  0.91422385  0.40360153  1
  H+  H291  1  0.16147673  0.58195052  0.24080837  1
  H+  H292  1  0.52531893  0.88723487  1.00347273  1
  H+  H293  1  0.57449829  0.67150787  0.09424547  1
  H+  H294  1  0.37062051  0.66918442  0.03497239  1
  H+  H295  1  0.41647192  0.57566887  0.90216739  1
  H+  H296  1  0.06723557  0.17831759  0.74832949  1
  H+  H297  1  0.91829833  0.57715353  0.93368246  1
  H+  H298  1  0.57099552  0.15986232  0.72964003  1
  H+  H299  1  0.90120194  0.57088356  0.25101093  1
  H+  H300  1  0.83030135  0.42242201  0.77772271  1
  H+  H301  1  0.33780134  0.66683887  0.72874871  1
  H+  H302  1  0.32922387  0.67252492  0.12430519  1
  H+  H303  1  0.32708900  0.14330947  0.40896913  1
  H+  H304  1  0.08562329  0.41965220  0.10728011  1
  H+  H305  1  0.43044631  0.08743269  0.90083865  1
  H+  H306  1  0.31693859  0.41278697  0.10512584  1
  H+  H307  1  0.27423881  0.13862981  0.49802133  1
  H+  H308  1  0.08015177  0.67185726  0.76271096  1
  H+  H309  1  0.16553101  0.08126502  0.23705080  1
  H+  H310  1  0.38549622  0.11599573  0.66084904  1
  H+  H311  1  0.56534369  0.92086363  0.73860304  1
  H+  H312  1  0.07374403  0.66941953  0.35909627  1
  H+  H313  1  0.27560967  0.63389686  0.33553171  1
  H+  H314  1  0.41023926  0.83211214  0.60264605  1
  H+  H315  1  0.59087694  0.17017782  0.06506571  1
  H+  H316  1  0.91407561  0.08268388  0.23276456  1
  H+  H317  1  -0.02312719  0.86511827  0.17007109  1
  H+  H318  1  0.58657900  0.42592148  0.43766422  1
  H+  H319  1  0.16646738  0.33259160  0.23959369  1
  H+  H320  1  0.15168573  0.28885444  0.92453148  1
  H+  H321  1  0.91407092  0.07933767  0.94234719  1
  H+  H322  1  0.87829408  0.11196353  0.32512382  1
  H+  H323  1  0.82377266  0.15765626  0.38933455  1
  H+  H324  1  0.66735186  0.09184823  0.23407334  1
  H+  H325  1  0.89323550  0.31557346  0.61438090  1
  H+  H326  1  0.76289378  0.12667527  0.15684977  1
  H+  H327  1  0.16812493  0.84218915  0.57583357  1
  H+  H328  1  0.14981159  0.26940747  0.48868197  1
  H+  H329  1  0.08264763  0.92244849  0.73184477  1
  H+  H330  1  0.33526934  0.92075231  0.76893171  1
  H+  H331  1  0.83158611  0.66822715  0.73265574  1
  H+  H332  1  0.34859854  0.93596653  0.06499376  1
  H+  H333  1  0.58411412  0.68243823  0.73956088  1
  H+  H334  1  0.39385050  0.84484836  0.23991384  1
  H+  H335  1  0.41167511  0.45444823  0.03680828  1
  H+  H336  1  0.36886881  0.35112573  0.98168676  1
  H+  H337  1  0.40138696  0.32610361  0.89054132  1
  H+  H338  1  0.10733149  0.42956381  0.72201041  1
  H+  H339  1  0.58748052  0.66419845  0.42886688  1
  H+  H340  1  0.24783578  0.37594750  0.66196031  1
  H+  H341  1  0.51036058  0.87067361  0.48967816  1
  H+  H342  1  0.27628434  0.62015194  0.80844649  1
  H+  H343  1  0.66393565  0.08129718  0.93550620  1
  H+  H344  1  0.66061001  0.84500105  0.90867917  1
  H+  H345  1  0.42324414  0.08384260  0.22745545  1
  H+  H346  1  0.15411105  0.84281316  0.22760681  1
  H+  H347  1  0.03422363  0.38704016  0.33447028  1
  H+  H348  1  0.92327355  0.83112498  0.23189324  1
  H+  H349  1  0.09005704  0.67163240  0.45788547  1
  H+  H350  1  0.82118543  0.15283520  0.06679643  1
  H+  H351  1  0.33424306  0.16413256  0.06689212  1
  H+  H352  1  0.42359473  0.34064394  0.22839156  1
  H+  H353  1  0.23154436  0.87208969  0.66519549  1
  H+  H354  1  0.83515579  0.65680726  0.06613937  1
  H+  H355  1  0.41194636  0.83508585  0.92696218  1
  H+  H356  1  0.13243545  0.82053620  0.90190952  1
  H+  H357  1  0.11206290  0.42809564  0.41328325  1
  H+  H358  1  0.65899811  0.33287625  0.90142557  1
  H+  H359  1  0.38113002  0.60449451  0.18338766  1
  H+  H360  1  0.66707164  0.83000141  0.55546870  1
  H+  H361  1  0.71682945  0.39640727  0.26706483  1
  H+  H362  1  0.08591108  0.93695193  0.06817000  1
  H+  H363  1  0.34865849  0.42783405  0.40050034  1
  H+  H364  1  0.88936860  0.31359464  0.91127509  1
  H+  H365  1  0.86788702  0.43281559  0.39042535  1
  H+  H366  1  0.08123970  0.91705659  0.39007709  1
  H+  H367  1  0.66182916  0.05475815  0.59828872  1
  H+  H368  1  0.57130072  0.90258705  0.42887322  1
  H+  H369  1  0.41101742  0.08285888  0.56976321  1
  H+  H370  1  0.76148674  0.38306452  0.44683583  1
  H+  H371  1  0.08688433  0.16793828  0.43311030  1
  H+  H372  1  0.66456550  0.57718842  0.59700216  1
  H+  H373  1  0.67925971  0.57032157  0.22939703  1
  H+  H374  1  0.42278177  0.58305328  0.26982413  1
  H+  H375  1  0.91775375  0.85555448  0.93417812  1
  H+  H376  1  0.56936342  0.13381753  0.43065524  1
  H+  H377  1  0.16291796  0.09177922  0.56826500  1
  H+  H378  1  0.82812122  0.90340019  0.76082437  1
  H+  H379  1  0.18614959  0.08371815  0.92355409  1
  H+  H380  1  0.91463535  0.07693969  0.56804792  1
  H+  H381  1  0.87897185  0.35046192  0.99841474  1
  H+  H382  1  0.71001966  0.35164681  0.27008818  1
  H+  H383  1  0.34128780  0.66724134  0.42990040  1
  O2-  O384  1  0.08239849  0.16604257  0.15129562  1
  O2-  O385  1  0.09197664  0.17768326  0.47882011  1
  O2-  O386  1  0.06340908  0.20034200  0.81381270  1
  O2-  O387  1  0.08898305  0.42236936  0.15212310  1
  O2-  O388  1  0.12356761  0.43037798  0.46029129  1
  O2-  O389  1  0.18258391  0.47848157  0.78598491  1
  O2-  O390  1  0.07446916  0.66183972  0.14523601  1
  O2-  O391  1  0.08315473  0.65980029  0.50121371  1
  O2-  O392  1  0.07616174  0.67560452  0.80825028  1
  O2-  O393  1  0.08098768  0.92620095  0.13891852  1
  O2-  O394  1  0.08604504  0.92819227  0.48317750  1
  O2-  O395  1  0.08907952  0.92353872  0.81415801  1
  O2-  O396  1  0.33128208  0.16483053  0.14445750  1
  O2-  O397  1  0.33338701  0.16491120  0.48085683  1
  O2-  O398  1  0.31520892  0.16836316  0.80677674  1
  O2-  O399  1  0.32191898  0.40932149  0.14942103  1
  O2-  O400  1  0.34569436  0.41760942  0.47910569  1
  O2-  O401  1  0.28477771  0.38233067  0.83616853  1
  O2-  O402  1  0.32876360  0.66209874  0.16764393  1
  O2-  O403  1  0.34167698  0.66800555  0.47565368  1
  O2-  O404  1  0.33679547  0.66331643  0.80332685  1
  O2-  O405  1  0.33980661  0.93603902  0.12735062  1
  O2-  O406  1  0.32833734  0.91458076  0.48436858  1
  O2-  O407  1  0.33530292  0.91398469  0.81367184  1
  O2-  O408  1  0.57792136  0.16207011  0.13658041  1
  O2-  O409  1  0.54831352  0.11397750  0.47273530  1
  O2-  O410  1  0.58595275  0.17180442  0.81033131  1
  O2-  O411  1  0.58925789  0.41192441  0.13322321  1
  O2-  O412  1  0.58049010  0.42333331  0.48286403  1
  O2-  O413  1  0.56876230  0.41780334  0.81539984  1
  O2-  O414  1  0.57651105  0.68032587  0.13874792  1
  O2-  O415  1  0.58531625  0.66272444  0.47457031  1
  O2-  O416  1  0.57366058  0.69014718  0.80554598  1
  O2-  O417  1  0.59712345  0.92770821  0.14741138  1
  O2-  O418  1  0.57083779  0.89769851  0.47505804  1
  O2-  O419  1  0.56419218  0.91852481  0.81296079  1
  O2-  O420  1  0.81986556  0.14968153  0.13641870  1
  O2-  O421  1  0.81008686  0.13681865  0.47544334  1
  O2-  O422  1  0.82177912  0.15407550  0.81403446  1
  O2-  O423  1  0.82478226  0.40916430  0.14403655  1
  O2-  O424  1  0.81240620  0.40139781  0.47399740  1
  O2-  O425  1  0.81932457  0.42074639  0.82321717  1
  O2-  O426  1  0.84313176  0.66349957  0.14456825  1
  O2-  O427  1  0.83432775  0.66825709  0.47675507  1
  O2-  O428  1  0.84106606  0.67763533  0.80924265  1
  O2-  O429  1  0.82554744  0.91119641  0.15379344  1
  O2-  O430  1  0.83300779  0.91189704  0.47582399  1
  O2-  O431  1  0.83047467  0.90311042  0.80694125  1
  O2-  O432  1  0.16655019  0.08512246  0.19140912  1
  O2-  O433  1  0.16613173  0.09278022  0.52280346  1
  O2-  O434  1  0.17574219  0.08524713  0.85798319  1
  O2-  O435  1  0.16416149  0.33217673  0.19411386  1
  O2-  O436  1  0.18777228  0.33599886  0.49797289  1
  O2-  O437  1  0.13911825  0.22224420  0.85267403  1
  O2-  O438  1  0.16420699  0.58463218  0.19595415  1
  O2-  O439  1  0.18287622  0.58946596  0.51850321  1
  O2-  O440  1  0.17396866  0.62076163  0.86607352  1
  O2-  O441  1  0.14325752  0.83538837  0.18303495  1
  O2-  O442  1  0.16478442  0.83917354  0.52998460  1
  O2-  O443  1  0.13652213  0.82630584  0.85594222  1
  O2-  O444  1  0.42106563  0.09145283  0.18269288  1
  O2-  O445  1  0.40388410  0.07867157  0.52406848  1
  O2-  O446  1  0.42547991  0.07257265  0.85731361  1
  O2-  O447  1  0.41618009  0.33194877  0.18396533  1
  O2-  O448  1  0.41695999  0.33395365  0.51905589  1
  O2-  O449  1  0.40044332  0.33228596  0.84506849  1
  O2-  O450  1  0.41297679  0.57440123  0.19450455  1
  O2-  O451  1  0.42158412  0.58170666  0.51743676  1
  O2-  O452  1  0.41020577  0.58451852  0.83349696  1
  O2-  O453  1  0.37699313  0.83684378  0.19638837  1
  O2-  O454  1  0.40938852  0.82974017  0.52424090  1
  O2-  O455  1  0.40294291  0.82636064  0.85146191  1
  O2-  O456  1  0.66295012  0.08934070  0.18794264  1
  O2-  O457  1  0.65068338  0.05173853  0.52663006  1
  O2-  O458  1  0.65878344  0.08098986  0.85742975  1
  O2-  O459  1  0.65924544  0.32138968  0.15662638  1
  O2-  O460  1  0.64267199  0.32629847  0.53171313  1
  O2-  O461  1  0.65112190  0.33224791  0.85603240  1
  O2-  O462  1  0.68757400  0.57005151  0.18512294  1
  O2-  O463  1  0.66995518  0.58720146  0.52010501  1
  O2-  O464  1  0.68690691  0.58830505  0.85036317  1
  O2-  O465  1  0.66869256  0.83525934  0.19411256  1
  O2-  O466  1  0.66613228  0.82731687  0.50945195  1
  O2-  O467  1  0.65945196  0.85490565  0.86128111  1
  O2-  O468  1  0.91390480  0.08094018  0.18753446  1
  O2-  O469  1  0.91564334  0.07887723  0.52262943  1
  O2-  O470  1  0.91464733  0.08664516  0.86011134  1
  O2-  O471  1  0.93542053  0.35936613  0.19076217  1
  O2-  O472  1  0.85326741  0.29257338  0.53290674  1
  O2-  O473  1  0.88120115  0.31359280  0.86496155  1
  O2-  O474  1  0.90960693  0.57146180  0.17912403  1
  O2-  O475  1  0.89982689  0.56780918  0.52137083  1
  O2-  O476  1  0.91206830  0.58487416  0.85629239  1
  O2-  O477  1  0.91783224  0.82885288  0.18661739  1
  O2-  O478  1  0.91654664  0.83363589  0.52221864  1
  O2-  O479  1  0.93134332  0.84176978  0.84997912  1
  O2-  O480  1  0.15412276  0.07192062  0.31432747  1
  O2-  O481  1  0.15861014  0.09061145  0.64690183  1
  O2-  O482  1  0.18880772  0.08362862  0.97169570  1
  O2-  O483  1  0.17551665  0.33260529  0.31767685  1
  O2-  O484  1  0.18334934  0.34162756  0.65019000  1
  O2-  O485  1  0.15770914  0.31628635  0.96480242  1
  O2-  O486  1  0.16524193  0.58286329  0.32341651  1
  O2-  O487  1  0.16573886  0.58226391  0.64335830  1
  O2-  O488  1  0.16365278  0.58500841  0.98596543  1
  O2-  O489  1  0.16774655  0.85155941  0.30730351  1
  O2-  O490  1  0.16940340  0.83765182  0.65098184  1
  O2-  O491  1  0.13392655  0.81843360  0.97564450  1
  O2-  O492  1  0.42371413  0.07126735  0.30755420  1
  O2-  O493  1  0.41237977  0.08268794  0.64522330  1
  O2-  O494  1  0.43747459  0.10727550  0.98341922  1
  O2-  O495  1  0.43398585  0.35862126  0.31309546  1
  O2-  O496  1  0.41450629  0.32836542  0.65544075  1
  O2-  O497  1  0.39529977  0.31958291  0.96448641  1
  O2-  O498  1  0.42390454  0.58802507  0.31544142  1
  O2-  O499  1  0.42604332  0.59256622  0.63943122  1
  O2-  O500  1  0.41792817  0.57855722  0.94919162  1
  O2-  O501  1  0.41271089  0.83786444  0.31867102  1
  O2-  O502  1  0.41008692  0.83463651  0.64810265  1
  O2-  O503  1  0.41421828  0.83389250  0.97270612  1
  O2-  O504  1  0.67811982  0.10066611  0.30889947  1
  O2-  O505  1  0.66400665  0.05601191  0.64466527  1
  O2-  O506  1  0.66358266  0.08011694  0.98090527  1
  O2-  O507  1  0.68806843  0.34019889  0.38395163  1
  O2-  O508  1  0.64540958  0.31690639  0.65288079  1
  O2-  O509  1  0.68247527  0.33969039  0.97565967  1
  O2-  O510  1  0.67594520  0.58815274  0.31126554  1
  O2-  O511  1  0.66317478  0.57329952  0.64257503  1
  O2-  O512  1  0.67964330  0.59004551  0.97305649  1
  O2-  O513  1  0.66319144  0.82904190  0.31284392  1
  O2-  O514  1  0.66921974  0.83740773  0.62861839  1
  O2-  O515  1  0.66390042  0.83050509  0.97406557  1
  O2-  O516  1  0.90953693  0.08031222  0.31269727  1
  O2-  O517  1  0.90350333  0.06762605  0.64792534  1
  O2-  O518  1  0.90874535  0.07469953  0.98711360  1
  O2-  O519  1  0.93148313  0.32794258  0.31422936  1
  O2-  O520  1  0.90678098  0.31839483  0.65812105  1
  O2-  O521  1  0.90899003  0.31958210  0.98152988  1
  O2-  O522  1  0.90838148  0.57639034  0.29721945  1
  O2-  O523  1  0.91456409  0.58506703  0.64326575  1
  O2-  O524  1  0.91747692  0.56890970  0.97867062  1
  O2-  O525  1  0.92468290  0.83027908  0.31162058  1
  O2-  O526  1  0.91621792  0.83243999  0.64543993  1
  O2-  O527  1  0.91093998  0.85113465  0.97878319  1
  O2-  O528  1  0.06790647  0.15741627  0.02775910  1
  O2-  O529  1  0.08292978  0.16174525  0.35903116  1
  O2-  O530  1  0.06166068  0.16717712  0.70098922  1
  O2-  O531  1  0.07628459  0.41298405  0.01816951  1
  O2-  O532  1  0.09679717  0.42198074  0.34639291  1
  O2-  O533  1  0.08616847  0.41199573  0.67983946  1
  O2-  O534  1  0.07942949  0.66883084  0.02521865  1
  O2-  O535  1  0.08106974  0.66740637  0.31550135  1
  O2-  O536  1  0.08382317  0.66882149  0.68561825  1
  O2-  O537  1  0.08643597  0.94031660  0.02145708  1
  O2-  O538  1  0.07989188  0.91647048  0.34546121  1
  O2-  O539  1  0.08320014  0.92223155  0.68672731  1
  O2-  O540  1  0.33534842  0.16321098  0.02117576  1
  O2-  O541  1  0.32363576  0.13311670  0.36319314  1
  O2-  O542  1  0.33641402  0.17293287  0.68735085  1
  O2-  O543  1  0.35628850  0.44015887  0.01916003  1
  O2-  O544  1  0.34585670  0.42855890  0.35518031  1
  O2-  O545  1  0.34231596  0.41691484  0.68087237  1
  O2-  O546  1  0.34009918  0.67160988  -0.00079258  1
  O2-  O547  1  0.33573498  0.66666168  0.35228784  1
  O2-  O548  1  0.33647338  0.66752762  0.68263893  1
  O2-  O549  1  0.35606323  0.93699068  0.01565512  1
  O2-  O550  1  0.32395836  0.91217455  0.35843723  1
  O2-  O551  1  0.33082327  0.92413356  0.68682419  1
  O2-  O552  1  0.59632068  0.17753051  0.01900782  1
  O2-  O553  1  0.60121384  0.17072460  0.35712667  1
  O2-  O554  1  0.56567020  0.15628510  0.68477595  1
  O2-  O555  1  0.61078511  0.42509279  0.00973926  1
  O2-  O556  1  0.60107624  0.42572603  0.36107990  1
  O2-  O557  1  0.56596284  0.40300572  0.69532258  1
  O2-  O558  1  0.58259545  0.66496981  0.01134347  1
  O2-  O559  1  0.58895992  0.66721094  0.35146386  1
  O2-  O560  1  0.59412720  0.67704820  0.69296910  1
  O2-  O561  1  0.58496114  0.91497183  0.01878678  1
  O2-  O562  1  0.58055602  0.91300741  0.35610073  1
  O2-  O563  1  0.56800003  0.92053187  0.69273753  1
  O2-  O564  1  0.82461239  0.15730995  0.01991652  1
  O2-  O565  1  0.82895569  0.16428685  0.34480313  1
  O2-  O566  1  0.82326886  0.14944693  0.69149711  1
  O2-  O567  1  0.83811004  0.40683668  0.02006787  1
  O2-  O568  1  0.85835501  0.42355793  0.34650327  1
  O2-  O569  1  0.85678842  0.43228989  0.70893585  1
  O2-  O570  1  0.83132971  0.65217806  0.02104978  1
  O2-  O571  1  0.84138238  0.67136305  0.35306677  1
  O2-  O572  1  0.83097158  0.66675218  0.68673270  1
  O2-  O573  1  0.81738712  0.89379232  0.00425412  1
  O2-  O574  1  0.83275574  0.91229730  0.34989244  1
  O2-  O575  1  0.82483887  0.90351739  0.68676341  1
