# generated using pymatgen
data_H2O
_symmetry_space_group_name_H-M   'P 1'
_cell_length_a   17.99374155
_cell_length_b   17.98997996
_cell_length_c   22.00025188
_cell_angle_alpha   90.02769190
_cell_angle_beta   90.02483997
_cell_angle_gamma   119.99818000
_symmetry_Int_Tables_number   1
_chemical_formula_structural   H2O
_chemical_formula_sum   'H384 O192'
_cell_volume   6167.62875241
_cell_formula_units_Z   192
loop_
 _symmetry_equiv_pos_site_id
 _symmetry_equiv_pos_as_xyz
  1  'x, y, z'
loop_
 _atom_type_symbol
 _atom_type_oxidation_number
  H+  1.0
  O2-  -2.0
loop_
 _atom_site_type_symbol
 _atom_site_label
 _atom_site_symmetry_multiplicity
 _atom_site_fract_x
 _atom_site_fract_y
 _atom_site_fract_z
 _atom_site_occupancy
  H+  H0  1  0.59526542  0.73132696  0.67218506  1
  H+  H1  1  0.90925984  0.50462802  0.68611009  1
  H+  H2  1  0.84211776  0.38068181  0.15380653  1
  H+  H3  1  0.13269511  0.38958549  0.50071312  1
  H+  H4  1  0.00508489  0.87616824  0.00351576  1
  H+  H5  1  0.17068842  0.52596044  0.51881500  1
  H+  H6  1  0.35403735  0.87004738  0.83208277  1
  H+  H7  1  0.14034862  0.78150184  0.66300539  1
  H+  H8  1  0.32959232  0.90082847  0.77151746  1
  H+  H9  1  0.39311250  0.37398458  0.50070927  1
  H+  H10  1  0.61388697  0.73143027  0.16344549  1
  H+  H11  1  0.64560024  0.86723898  0.17968710  1
  H+  H12  1  0.23232502  0.36760224  0.81920325  1
  H+  H13  1  0.38957393  0.76798168  0.68955991  1
  H+  H14  1  0.87243235  0.51938661  0.16458318  1
  H+  H15  1  0.39135513  0.27659973  0.32688428  1
  H+  H16  1  0.36928140  0.88800346  0.15824623  1
  H+  H17  1  0.77425403  0.64076560  0.81538126  1
  H+  H18  1  0.82564977  0.15264988  0.38761118  1
  H+  H19  1  0.64284502  0.52942153  0.33586390  1
  H+  H20  1  0.86770815  0.71563757  0.51121501  1
  H+  H21  1  0.15164031  0.80753370  0.26041471  1
  H+  H22  1  0.61170353  0.88365462  0.83889744  1
  H+  H23  1  0.76955907  0.39759288  -0.01021840  1
  H+  H24  1  0.68013334  0.27218362  0.43649758  1
  H+  H25  1  0.36784496  0.24200536  0.82105104  1
  H+  H26  1  0.39845525  0.36925053  0.31906755  1
  H+  H27  1  0.63556694  0.76825444  0.33324001  1
  H+  H28  1  0.70845812  0.38559603  0.89495251  1
  H+  H29  1  0.86955907  0.99116885  0.15571098  1
  H+  H30  1  0.72197120  0.84931568  0.47979377  1
  H+  H31  1  0.35906630  0.35722321  0.16790840  1
  H+  H32  1  0.14078583  0.09597317  0.99389108  1
  H+  H33  1  0.38468913  0.61310490  0.82302708  1
  H+  H34  1  0.91096262  0.00347093  0.98492941  1
  H+  H35  1  0.11346568  0.72708264  1.00391331  1
  H+  H36  1  0.72347543  0.10654558  0.16608099  1
  H+  H37  1  0.72882531  0.11577394  0.69489616  1
  H+  H38  1  0.39350810  0.63568691  0.16218887  1
  H+  H39  1  0.61709527  0.34320996  0.17024081  1
  H+  H40  1  0.27918904  0.88306954  0.67284435  1
  H+  H41  1  1.02565821  0.63645560  1.00671587  1
  H+  H42  1  0.11969052  0.23666310  0.32795886  1
  H+  H43  1  0.66460994  0.82736480  0.42109902  1
  H+  H44  1  0.12462977  0.96213285  0.76811487  1
  H+  H45  1  0.90376381  0.37199488  0.67187242  1
  H+  H46  1  0.88547879  0.26679628  0.32455607  1
  H+  H47  1  0.36579131  0.48192225  0.33042874  1
  H+  H48  1  0.74007176  0.37159120  0.50990922  1
  H+  H49  1  0.88699148  0.13381985  0.16099603  1
  H+  H50  1  0.61684063  0.73521200  1.01174067  1
  H+  H51  1  -0.03212682  0.10198885  0.66531863  1
  H+  H52  1  0.87992469  0.10632537  0.32480455  1
  H+  H53  1  0.51566516  0.38923656  0.48791101  1
  H+  H54  1  0.12328512  0.07283567  0.55182842  1
  H+  H55  1  0.86678697  0.64724696  0.82714374  1
  H+  H56  1  0.50805400  0.39884618  0.82905664  1
  H+  H57  1  0.89093893  0.38022625  0.84693595  1
  H+  H58  1  0.85965592  0.20473025  0.48407123  1
  H+  H59  1  0.60756974  0.88479021  0.33871920  1
  H+  H60  1  0.01913037  0.88951985  0.15613794  1
  H+  H61  1  0.22871120  0.34863468  0.65887625  1
  H+  H62  1  0.34645236  0.46437652  0.81335427  1
  H+  H63  1  0.37382744  0.70495959  0.06981382  1
  H+  H64  1  0.21579057  0.22226771  0.03123461  1
  H+  H65  1  0.39018337  0.76615664  0.83129079  1
  H+  H66  1  0.14899027  0.87515715  0.65363637  1
  H+  H67  1  0.61234203  0.47967614  0.48810587  1
  H+  H68  1  0.13811766  0.52815755  0.82764460  1
  H+  H69  1  0.94570322  0.34018431  0.99132005  1
  H+  H70  1  0.63064546  0.27219539  0.31400210  1
  H+  H71  1  0.11539042  0.38839911  0.82140800  1
  H+  H72  1  0.39874339  0.53730138  -0.01768561  1
  H+  H73  1  0.88457145  0.85192696  0.51455148  1
  H+  H74  1  0.11123352  0.64191285  0.81985679  1
  H+  H75  1  0.13946401  0.00693884  0.58541350  1
  H+  H76  1  0.85583744  0.63764693  0.16619782  1
  H+  H77  1  0.22255926  0.85314799  0.83821860  1
  H+  H78  1  0.72080818  0.85168972  0.66562926  1
  H+  H79  1  0.13071400  0.77409226  0.33692045  1
  H+  H80  1  0.39918223  0.78499970  0.15977489  1
  H+  H81  1  0.58017625  0.67493986  0.07008963  1
  H+  H82  1  0.51946164  0.38198558  0.67208730  1
  H+  H83  1  0.86996439  0.76695150  1.00354754  1
  H+  H84  1  0.11469357  0.51676286  0.19309156  1
  H+  H85  1  0.64869914  0.30208871  0.93155042  1
  H+  H86  1  0.96437809  0.43788629  0.46344743  1
  H+  H87  1  0.33410135  0.15721727  0.10234715  1
  H+  H88  1  0.14262707  0.12239551  0.16567445  1
  H+  H89  1  0.76672235  0.37714972  0.33498202  1
  H+  H90  1  -0.00052343  0.38349583  0.17078365  1
  H+  H91  1  0.36721418  0.39899059  0.99917485  1
  H+  H92  1  0.10243477  0.13641107  0.47636448  1
  H+  H93  1  0.64437672  0.62565666  0.82575336  1
  H+  H94  1  0.76203206  0.11401422  0.84204399  1
  H+  H95  1  0.34478061  0.85783994  0.51738925  1
  H+  H96  1  0.28554746  0.15080201  0.82561607  1
  H+  H97  1  0.66855989  0.61628079  0.66178424  1
  H+  H98  1  0.58595163  0.41817095  0.08244755  1
  H+  H99  1  0.96369990  0.60642304  0.16423241  1
  H+  H100  1  0.59582806  0.89707681  0.09722362  1
  H+  H101  1  0.60860877  0.18416535  0.01891494  1
  H+  H102  1  0.61217518  0.46911598  0.67325477  1
  H+  H103  1  0.86291307  0.63807825  0.01393711  1
  H+  H104  1  0.40255518  0.13575200  0.84819086  1
  H+  H105  1  0.66701319  0.08077891  0.63933281  1
  H+  H106  1  0.31145682  0.98833944  0.47909307  1
  H+  H107  1  0.09193886  0.41701918  0.73122539  1
  H+  H108  1  0.36431727  0.50728843  0.65241398  1
  H+  H109  1  0.12755675  0.52988094  0.34677245  1
  H+  H110  1  0.85997981  0.72952434  0.16575769  1
  H+  H111  1  0.83690539  0.94738932  0.51134154  1
  H+  H112  1  0.11553672  0.88809389  0.81110330  1
  H+  H113  1  0.27929918  0.39157345  0.33060096  1
  H+  H114  1  0.72898612  0.85803101  0.33807611  1
  H+  H115  1  0.36537471  0.97208746  0.67525401  1
  H+  H116  1  0.12876916  0.64965046  0.67514300  1
  H+  H117  1  0.15326880  0.52739755  0.66522303  1
  H+  H118  1  0.42287547  0.25653366  0.17830179  1
  H+  H119  1  0.34314665  0.97087742  0.00562847  1
  H+  H120  1  0.67456077  0.83883359  0.24034108  1
  H+  H121  1  0.71195778  0.35496270  0.69399519  1
  H+  H122  1  0.11080184  0.23617704  0.81402138  1
  H+  H123  1  0.61901449  0.13847620  0.84074724  1
  H+  H124  1  0.09830783  0.62803232  0.16146010  1
  H+  H125  1  0.14593059  0.75443220  0.18012183  1
  H+  H126  1  0.38960709  0.52268157  0.49815595  1
  H+  H127  1  0.73872210  0.13998196  0.02989652  1
  H+  H128  1  0.40919087  0.66564264  -0.01811911  1
  H+  H129  1  -0.12938906  0.85659929  0.85073925  1
  H+  H130  1  0.70914208  0.35238665  0.16611785  1
  H+  H131  1  0.92026769  0.49356443  0.31441481  1
  H+  H132  1  0.23801825  0.84363771  0.18628084  1
  H+  H133  1  0.52144974  0.64385964  0.82551124  1
  H+  H134  1  0.41388244  0.09112439  0.93874849  1
  H+  H135  1  0.53060774  0.88193034  0.15295037  1
  H+  H136  1  0.28193780  0.39075026  0.48657710  1
  H+  H137  1  0.86052577  0.50515499  0.51902136  1
  H+  H138  1  0.11801865  -0.01709567  0.32636972  1
  H+  H139  1  0.86190578  -0.02516184  0.35554216  1
  H+  H140  1  0.88016007  0.78799071  0.33780327  1
  H+  H141  1  0.72087707  0.60881907  1.00379543  1
  H+  H142  1  0.41578004  0.76709825  0.52559438  1
  H+  H143  1  0.55507217  0.62872615  0.66811213  1
  H+  H144  1  0.27758346  0.14711161  0.33286366  1
  H+  H145  1  0.09592789  0.81694528  0.48698980  1
  H+  H146  1  0.14258281  0.67246284  0.37360970  1
  H+  H147  1  0.60035469  0.13212644  0.69541499  1
  H+  H148  1  0.86419236  0.13289535  0.68984424  1
  H+  H149  1  0.88695161  0.86958935  0.17493141  1
  H+  H150  1  0.62824324  0.02363654  0.47205828  1
  H+  H151  1  -0.01075501  0.16197480  0.47890206  1
  H+  H152  1  0.82740870  0.68954332  0.41576436  1
  H+  H153  1  0.35581204  0.12106669  0.16314523  1
  H+  H154  1  0.49029815  0.13451589  0.85735648  1
  H+  H155  1  0.80233450  0.64635193  0.67185175  1
  H+  H156  1  -0.02436142  0.87056151  0.32637131  1
  H+  H157  1  0.82188080  0.16004527  0.20915874  1
  H+  H158  1  0.72747912  0.88146053  0.00530100  1
  H+  H159  1  0.25798804  0.16652083  0.48259017  1
  H+  H160  1  0.96112540  0.48585721  0.52048426  1
  H+  H161  1  0.32866885  0.13981646  0.49907786  1
  H+  H162  1  0.60972803  0.39532497  -0.02125392  1
  H+  H163  1  0.29222166  0.66926548  0.11100776  1
  H+  H164  1  0.20534795  0.60029621  0.20093813  1
  H+  H165  1  0.40252873  0.39029678  0.15637417  1
  H+  H166  1  0.11310448  0.14986643  0.82395323  1
  H+  H167  1  0.60577167  0.12346929  0.16660234  1
  H+  H168  1  0.14126186  0.11773008  0.31730300  1
  H+  H169  1  0.61875798  0.89378536  0.47414750  1
  H+  H170  1  0.98921425  0.13591367  0.50574298  1
  H+  H171  1  0.88290680  0.35371123  0.33106006  1
  H+  H172  1  0.46572580  0.10758777  0.66429247  1
  H+  H173  1  0.26501759  0.62346107  0.51254021  1
  H+  H174  1  0.53342654  0.88705078  0.49882268  1
  H+  H175  1  0.88873248  0.54108371  0.84839252  1
  H+  H176  1  0.11203703  0.20108040  0.66513772  1
  H+  H177  1  0.59826830  0.21939487  0.69142536  1
  H+  H178  1  0.02280030  0.38405353  0.34538770  1
  H+  H179  1  0.10672311  0.97755892  0.15091725  1
  H+  H180  1  0.87155380  0.63284898  0.33050152  1
  H+  H181  1  0.76335971  0.12866969  0.47438233  1
  H+  H182  1  -0.00528855  0.62475811  0.66039012  1
  H+  H183  1  0.36197815  0.13581467  1.00905065  1
  H+  H184  1  0.42763227  0.60805961  0.65760438  1
  H+  H185  1  0.35917421  0.97330856  0.31376766  1
  H+  H186  1  0.61206014  0.38273239  0.34155372  1
  H+  H187  1  0.47720279  0.85415473  0.84380389  1
  H+  H188  1  0.12219597  0.96451795  0.49060578  1
  H+  H189  1  0.34095102  0.50258986  0.14584391  1
  H+  H190  1  0.64273712  0.09525568  0.51862761  1
  H+  H191  1  0.46218040  0.09951285  0.00221984  1
  H+  H192  1  0.11986450  0.24133951  0.15329545  1
  H+  H193  1  0.53812045  0.11232718  0.53520647  1
  H+  H194  1  0.91521254  0.78997042  0.67049729  1
  H+  H195  1  0.36304967  0.36509009  0.82917642  1
  H+  H196  1  0.37904445  0.61628819  0.32422889  1
  H+  H197  1  0.38121043  0.27527688  -0.00777200  1
  H+  H198  1  0.87077726  0.62860017  0.50373153  1
  H+  H199  1  0.17761028  0.32526601  0.56494272  1
  H+  H200  1  0.98010956  0.11838199  0.83270833  1
  H+  H201  1  0.89326205  0.60778919  0.32152566  1
  H+  H202  1  0.62921172  0.01767114  0.31881180  1
  H+  H203  1  0.84946402  0.38479801  0.00063290  1
  H+  H204  1  0.86635129  0.22403799  0.69018953  1
  H+  H205  1  1.03512917  0.38667491  0.67158493  1
  H+  H206  1  0.38176050  0.85952137  0.31679127  1
  H+  H207  1  0.05779476  0.41588482  0.50407238  1
  H+  H208  1  0.60476645  0.13075364  0.31564053  1
  H+  H209  1  0.84735253  0.26612407  0.00578493  1
  H+  H210  1  0.63687401  0.01363598  0.16191031  1
  H+  H211  1  0.71530218  0.61990125  0.16388406  1
  H+  H212  1  0.63848791  0.01312150  0.84496280  1
  H+  H213  1  0.63932200  0.60678870  0.50478570  1
  H+  H214  1  0.61814703  0.28068307  0.53117222  1
  H+  H215  1  0.64009280  -0.00536585  0.99345955  1
  H+  H216  1  0.15829085  0.28782582  0.98416753  1
  H+  H217  1  0.82974286  0.91021978  0.73826342  1
  H+  H218  1  0.57482247  0.17055263  0.36787747  1
  H+  H219  1  0.17506073  0.81475992  0.56837958  1
  H+  H220  1  0.63303577  0.77477307  0.84425048  1
  H+  H221  1  0.43001471  0.10410050  0.50878595  1
  H+  H222  1  0.90384802  0.33474095  0.23273116  1
  H+  H223  1  0.61082792  0.06561435  0.00070506  1
  H+  H224  1  0.57234157  0.41778278  0.77511200  1
  H+  H225  1  0.12036115  0.36223642  0.17573120  1
  H+  H226  1  0.76828368  0.88982018  0.83127874  1
  H+  H227  1  -0.01952669  0.62654190  0.84234889  1
  H+  H228  1  0.38183069  0.89043819  0.49878031  1
  H+  H229  1  0.76158194  0.66335487  0.36007267  1
  H+  H230  1  0.21348462  0.85877788  -0.00724781  1
  H+  H231  1  0.05150911  0.40622141  -0.06912487  1
  H+  H232  1  0.90404723  0.62162238  0.66627463  1
  H+  H233  1  0.56279637  0.14743929  0.55812515  1
  H+  H234  1  0.38232411  0.26623733  0.65641439  1
  H+  H235  1  0.11205951  0.73240293  0.82398721  1
  H+  H236  1  0.40972391  0.59425088  0.26124647  1
  H+  H237  1  0.26739185  0.64005568  0.34950145  1
  H+  H238  1  0.22003808  0.19561328  0.88444684  1
  H+  H239  1  0.88757570  0.52775661  0.99506381  1
  H+  H240  1  1.04632248  0.92152863  0.66278676  1
  H+  H241  1  0.63016189  0.53097684  0.15221295  1
  H+  H242  1  0.14051680  0.36919331  0.32325347  1
  H+  H243  1  -0.00457084  0.09463777  -0.01261181  1
  H+  H244  1  0.81371641  0.40252880  0.39899237  1
  H+  H245  1  0.83094446  0.37556480  0.49785063  1
  H+  H246  1  0.35835729  0.38102881  0.67269569  1
  H+  H247  1  0.62707233  0.35910930  0.68034875  1
  H+  H248  1  0.64069281  0.17419941  0.45070006  1
  H+  H249  1  0.97354344  0.85346250  0.50941584  1
  H+  H250  1  0.22033370  0.61451608  0.98112295  1
  H+  H251  1  0.86028583  0.10961123  1.00558673  1
  H+  H252  1  0.83150820  0.92151272  0.06757864  1
  H+  H253  1  0.67765268  0.57838139  0.59883404  1
  H+  H254  1  0.38677690  0.28266722  0.50153158  1
  H+  H255  1  0.52070009  0.38238381  0.34054205  1
  H+  H256  1  0.76516103  0.12566138  0.32807003  1
  H+  H257  1  0.82295008  0.07298872  -0.01031977  1
  H+  H258  1  0.47306396  0.11020605  0.28372064  1
  H+  H259  1  0.84780475  0.87581683  0.00988528  1
  H+  H260  1  0.12437178  -0.00026299  0.98800516  1
  H+  H261  1  0.24044361  0.61732959  0.67872178  1
  H+  H262  1  0.61006989  0.71441404  0.47966783  1
  H+  H263  1  0.60720457  0.63854421  0.15550700  1
  H+  H264  1  0.66277652  0.33869269  0.26157397  1
  H+  H265  1  0.47649015  0.62677264  0.16929125  1
  H+  H266  1  0.26897207  0.12362389  1.00731079  1
  H+  H267  1  0.63733261  0.85978145  0.66902909  1
  H+  H268  1  0.83903899  0.07180263  0.51981060  1
  H+  H269  1  0.47677030  0.10399783  0.18975973  1
  H+  H270  1  0.26388738  0.11768566  0.68430946  1
  H+  H271  1  0.52136157  0.87790221  0.69021977  1
  H+  H272  1  0.60919800  0.96995319  0.69585154  1
  H+  H273  1  0.40827634  0.57439180  0.56166438  1
  H+  H274  1  1.03214717  0.14543094  0.33678308  1
  H+  H275  1  0.51352440  0.63634301  0.33459282  1
  H+  H276  1  0.26776215  0.63945103  0.79891389  1
  H+  H277  1  0.95969055  0.47696735  0.73075457  1
  H+  H278  1  0.35755718  0.72693194  0.34094951  1
  H+  H279  1  0.87718141  0.27244542  0.17450837  1
  H+  H280  1  0.78151189  0.90061878  0.16540531  1
  H+  H281  1  0.20166729  0.58946982  0.58208275  1
  H+  H282  1  0.94569033  0.55015868  0.25658565  1
  H+  H283  1  0.11176303  0.85451177  0.31449615  1
  H+  H284  1  0.63209547  0.61101397  0.32920547  1
  H+  H285  1  0.16314819  0.27737876  0.49982322  1
  H+  H286  1  0.72805537  0.60358692  0.50793088  1
  H+  H287  1  0.13700009  0.36428598  0.97396509  1
  H+  H288  1  0.38448624  0.07648288  0.57232122  1
  H+  H289  1  0.13389444  0.18586452  0.41586975  1
  H+  H290  1  0.06730852  0.42568007  0.11677359  1
  H+  H291  1  0.03241471  0.15323632  0.13839768  1
  H+  H292  1  0.57148876  0.91579022  0.39307806  1
  H+  H293  1  0.79605801  0.18217014  0.08883459  1
  H+  H294  1  0.83065908  0.66565083  0.07379362  1
  H+  H295  1  0.66072428  0.32993670  0.59323477  1
  H+  H296  1  0.41508228  0.58863645  0.88492291  1
  H+  H297  1  0.35714532  0.96790919  0.16903062  1
  H+  H298  1  0.64349844  0.00228563  0.57917772  1
  H+  H299  1  0.13977483  0.34675633  0.65671035  1
  H+  H300  1  0.69172026  0.02282093  0.57685444  1
  H+  H301  1  0.13376395  0.61851422  0.98653614  1
  H+  H302  1  0.37369208  0.63304147  0.49183613  1
  H+  H303  1  0.95181024  0.12312308  0.20667201  1
  H+  H304  1  0.44698520  0.82050520  0.58748160  1
  H+  H305  1  0.81255250  0.40921075  0.09322505  1
  H+  H306  1  0.55629191  0.84496096  -0.00236551  1
  H+  H307  1  0.15765714  0.82704216  0.89519715  1
  H+  H308  1  0.33723890  0.66864953  0.43690934  1
  H+  H309  1  0.60692615  0.48008734  -0.00467983  1
  H+  H310  1  0.85241655  0.67575886  0.73565625  1
  H+  H311  1  0.25053062  0.88788841  0.47770228  1
  H+  H312  1  0.11362863  0.06445463  0.68565181  1
  H+  H313  1  0.91710064  0.56604399  0.57442575  1
  H+  H314  1  0.37625089  0.10575382  0.66545906  1
  H+  H315  1  0.87328382  0.76979133  0.84756768  1
  H+  H316  1  0.21468818  0.38149533  0.16206157  1
  H+  H317  1  0.12053591  0.85166287  0.99040109  1
  H+  H318  1  0.12432598  0.72613165  0.42514139  1
  H+  H319  1  0.66117904  0.07247240  0.25696180  1
  H+  H320  1  0.58116681  0.91020737  0.77827268  1
  H+  H321  1  0.54004841  0.38639927  0.14767277  1
  H+  H322  1  0.57018750  0.65311967  0.39532306  1
  H+  H323  1  0.09373689  0.92420557  0.38660499  1
  H+  H324  1  0.17017374  0.08724341  0.25831502  1
  H+  H325  1  0.08851332  0.41337297  0.40253227  1
  H+  H326  1  0.83269598  0.15785251  0.78144146  1
  H+  H327  1  0.86414516  0.04922891  0.58439997  1
  H+  H328  1  0.86541979  0.12190952  0.84076888  1
  H+  H329  1  0.58408656  0.17036965  0.78745175  1
  H+  H330  1  0.89222627  0.82308029  0.94163430  1
  H+  H331  1  0.86027678  0.97668866  0.82793867  1
  H+  H332  1  1.02617198  0.39246940  0.82571778  1
  H+  H333  1  0.63555905  0.61458081  1.00314126  1
  H+  H334  1  0.87775539  0.01519174  0.67414904  1
  H+  H335  1  0.46907074  0.85711844  0.32000348  1
  H+  H336  1  0.63667926  0.53307857  0.82867691  1
  H+  H337  1  0.86894550  0.88806686  0.68003803  1
  H+  H338  1  0.17402787  0.09912515  0.90329743  1
  H+  H339  1  0.60251942  0.21243705  0.16630535  1
  H+  H340  1  0.90028128  0.05071637  0.27820545  1
  H+  H341  1  0.56591294  0.13394917  0.07870863  1
  H+  H342  1  0.31564361  0.91155731  0.06381587  1
  H+  H343  1  0.66400281  0.83420296  0.90505349  1
  H+  H344  1  0.14360931  0.59198602  0.29283988  1
  H+  H345  1  0.12918082  0.19329956  0.06625477  1
  H+  H346  1  0.31865531  0.92644721  0.37615572  1
  H+  H347  1  0.91161770  0.33023209  0.61029336  1
  H+  H348  1  0.32160176  0.40656191  0.73303744  1
  H+  H349  1  0.42277667  0.83283004  0.22519614  1
  H+  H350  1  0.45771871  0.31899049  0.23509329  1
  H+  H351  1  0.07896352  0.15549264  0.72859861  1
  H+  H352  1  0.92202512  0.59504467  0.93985228  1
  H+  H353  1  0.06945597  0.90895458  0.06078809  1
  H+  H354  1  0.17776364  0.93405689  0.45472612  1
  H+  H355  1  0.31458868  0.44556012  0.08519769  1
  H+  H356  1  0.49213459  0.62237589  0.98489202  1
  H+  H357  1  0.17171752  0.59328269  0.88341321  1
  H+  H358  1  0.93409363  0.07459224  0.89590487  1
  H+  H359  1  0.39652132  0.33768815  0.89170327  1
  H+  H360  1  0.43267679  0.79524182  0.93051514  1
  H+  H361  1  0.08204774  0.66281032  0.09797424  1
  H+  H362  1  0.52293559  0.62634448  0.49369750  1
  H+  H363  1  0.66879182  0.06934007  0.90638945  1
  H+  H364  1  0.33822264  0.41991375  0.42440987  1
  H+  H365  1  0.09129412  0.67624613  0.73290363  1
  H+  H366  1  0.22793096  0.11489803  0.16818579  1
  H+  H367  1  0.91326904  0.83857732  0.23512967  1
  H+  H368  1  0.28298196  0.40568408  -0.01097340  1
  H+  H369  1  0.32906752  0.17829787  0.39503039  1
  H+  H370  1  0.57900987  0.41547769  0.42007789  1
  H+  H371  1  0.83928909  0.90787794  0.44496014  1
  H+  H372  1  0.33438596  0.16759136  0.73483882  1
  H+  H373  1  0.39227659  0.85728745  0.67361318  1
  H+  H374  1  0.86622375  0.88889545  0.34688091  1
  H+  H375  1  0.10123267  0.47432444  -0.01993080  1
  H+  H376  1  0.41608843  0.33009854  0.59905752  1
  H+  H377  1  0.84508865  0.43858696  0.77783855  1
  H+  H378  1  0.16880995  0.33506874  0.88038792  1
  H+  H379  1  0.57737927  0.68176166  0.76719632  1
  H+  H380  1  0.90544952  0.33049736  0.89945580  1
  H+  H381  1  0.16865897  0.34220309  0.26107722  1
  H+  H382  1  0.47060651  0.36321193  0.98444426  1
  H+  H383  1  0.93099927  0.84148456  0.60942955  1
  O2-  O384  1  0.09630546  0.18307231  0.13365563  1
  O2-  O385  1  0.15207349  0.18648984  0.45925092  1
  O2-  O386  1  0.07872210  0.17213574  0.80346285  1
  O2-  O387  1  0.06406875  0.41679063  0.16059782  1
  O2-  O388  1  0.11467154  0.43192252  0.48713354  1
  O2-  O389  1  0.08580124  0.42188592  0.80893245  1
  O2-  O390  1  0.07350031  0.66120585  0.14302739  1
  O2-  O391  1  0.09805139  0.76408978  0.49829021  1
  O2-  O392  1  0.07936612  0.67111226  0.80637469  1
  O2-  O393  1  0.07546976  0.91816885  0.13509750  1
  O2-  O394  1  0.11595163  0.91898745  0.46147223  1
  O2-  O395  1  0.08283204  0.91078398  0.78981041  1
  O2-  O396  1  0.33273815  0.15721598  0.14789359  1
  O2-  O397  1  0.31826477  0.18227576  0.47718980  1
  O2-  O398  1  0.34383978  0.17980773  0.80781878  1
  O2-  O399  1  0.29259772  0.45380666  0.12448130  1
  O2-  O400  1  0.34167454  0.42133453  0.47005226  1
  O2-  O401  1  0.31563541  0.40401834  0.80010962  1
  O2-  O402  1  0.35421209  0.69459469  0.11369541  1
  O2-  O403  1  0.34150922  0.66515274  0.48250418  1
  O2-  O404  1  0.32962218  0.66767522  0.78630401  1
  O2-  O405  1  0.33015533  0.91090518  0.14909296  1
  O2-  O406  1  0.27192360  0.94049651  0.45213407  1
  O2-  O407  1  0.32084324  0.89563075  0.81604187  1
  O2-  O408  1  0.56982112  0.14963754  0.15509377  1
  O2-  O409  1  0.62534616  0.21866351  0.44117658  1
  O2-  O410  1  0.59421710  0.17518027  0.83183721  1
  O2-  O411  1  0.59526569  0.42650270  0.12713744  1
  O2-  O412  1  0.57675970  0.41950653  0.47030532  1
  O2-  O413  1  0.57014020  0.42771680  0.81886136  1
  O2-  O414  1  0.57730255  0.67387125  0.14522874  1
  O2-  O415  1  0.58192208  0.65077463  0.47571324  1
  O2-  O416  1  0.58270723  0.68053018  0.81224494  1
  O2-  O417  1  0.59281959  0.90916279  0.14065417  1
  O2-  O418  1  0.58341938  0.92228335  0.47018988  1
  O2-  O419  1  0.58147766  0.91479201  0.82422420  1
  O2-  O420  1  0.83290813  0.16851723  0.16555927  1
  O2-  O421  1  0.82564137  0.14787204  0.46619433  1
  O2-  O422  1  0.82772975  0.14832297  0.82720453  1
  O2-  O423  1  0.81012750  0.40873886  0.13871060  1
  O2-  O424  1  0.79042759  0.39109472  0.48032448  1
  O2-  O425  1  0.83454824  0.43728662  0.82249320  1
  O2-  O426  1  0.82776817  0.66948579  0.15001808  1
  O2-  O427  1  0.83625865  0.65610709  0.49458564  1
  O2-  O428  1  0.83852788  0.67472586  0.80507566  1
  O2-  O429  1  0.83954124  0.92876162  0.14599682  1
  O2-  O430  1  0.82852479  0.89426118  0.48930039  1
  O2-  O431  1  0.82720216  0.91627207  0.81365348  1
  O2-  O432  1  0.16663575  0.08739837  0.18200684  1
  O2-  O433  1  0.15220240  0.03989258  0.54635332  1
  O2-  O434  1  0.18968405  0.13817771  0.86680693  1
  O2-  O435  1  0.15941910  0.33910781  0.18398986  1
  O2-  O436  1  0.18055722  0.33374863  0.51934362  1
  O2-  O437  1  0.16451966  0.33533861  0.83548224  1
  O2-  O438  1  0.14420969  0.57833464  0.20631069  1
  O2-  O439  1  0.20242958  0.58711767  0.53500230  1
  O2-  O440  1  0.16961291  0.59084909  0.83838513  1
  O2-  O441  1  0.18848147  0.79713899  0.20909345  1
  O2-  O442  1  0.18410572  0.80106025  0.52549963  1
  O2-  O443  1  0.15971500  0.82561744  0.84992788  1
  O2-  O444  1  0.41388546  0.07293521  0.20279676  1
  O2-  O445  1  0.37339125  0.07909625  0.52740992  1
  O2-  O446  1  0.42918379  0.10731344  0.87042775  1
  O2-  O447  1  0.47498746  0.30528062  0.19591194  1
  O2-  O448  1  0.42312024  0.34324596  0.51651976  1
  O2-  O449  1  0.39758574  0.33684002  0.84675753  1
  O2-  O450  1  0.41473972  0.60119734  0.18284833  1
  O2-  O451  1  0.41914912  0.58201121  0.51579864  1
  O2-  O452  1  0.41471101  0.58431939  0.83990791  1
  O2-  O453  1  0.43087508  0.84199626  0.18005075  1
  O2-  O454  1  0.46355432  0.81786120  0.54484978  1
  O2-  O455  1  0.41724337  0.81603491  0.85923598  1
  O2-  O456  1  0.66157768  0.07281331  0.17936499  1
  O2-  O457  1  0.65880430  0.08914729  0.47737148  1
  O2-  O458  1  0.67518946  0.07422928  0.86097443  1
  O2-  O459  1  0.65110672  0.31756122  0.18551231  1
  O2-  O460  1  0.65705379  0.33708592  0.54853322  1
  O2-  O461  1  0.74386580  0.40475016  0.82616143  1
  O2-  O462  1  0.65221294  0.58932729  0.16988859  1
  O2-  O463  1  0.66602986  0.57289446  0.52054312  1
  O2-  O464  1  0.67799570  0.59637790  0.83025998  1
  O2-  O465  1  0.67880668  0.84033195  0.19545028  1
  O2-  O466  1  0.66083566  0.82577860  0.46566312  1
  O2-  O467  1  0.66503755  0.83601707  0.86019060  1
  O2-  O468  1  0.92911532  0.10580133  0.16568091  1
  O2-  O469  1  0.83176354  0.02447829  0.54609618  1
  O2-  O470  1  0.92193747  0.08505316  0.85273257  1
  O2-  O471  1  0.90304286  0.33517065  0.18736408  1
  O2-  O472  1  0.96370478  0.43369093  0.50773956  1
  O2-  O473  1  0.92589392  0.35409257  0.85820649  1
  O2-  O474  1  0.90546472  0.57752844  0.18295116  1
  O2-  O475  1  0.91585697  0.55613779  0.52945936  1
  O2-  O476  1  0.92286940  0.60191291  0.86222095  1
  O2-  O477  1  0.91414154  0.83654469  0.18976834  1
  O2-  O478  1  0.91867415  0.82515104  0.53079204  1
  O2-  O479  1  0.89187814  0.82262886  0.87208665  1
  O2-  O480  1  0.17042371  0.08586262  0.30404964  1
  O2-  O481  1  0.14528866  0.03261698  0.69462729  1
  O2-  O482  1  0.16308442  0.06174525  0.97437822  1
  O2-  O483  1  0.17062751  0.33962114  0.30667688  1
  O2-  O484  1  0.16803141  0.31541455  0.64105205  1
  O2-  O485  1  0.17681173  0.34324955  0.96302811  1
  O2-  O486  1  0.15820719  0.59194203  0.33617126  1
  O2-  O487  1  0.18665908  0.58879547  0.65211789  1
  O2-  O488  1  0.16074338  0.58568826  0.96749146  1
  O2-  O489  1  0.11551890  0.80244155  0.30124789  1
  O2-  O490  1  0.17380732  0.83891987  0.64266109  1
  O2-  O491  1  0.15296697  0.82326184  0.97601515  1
  O2-  O492  1  0.41184353  0.07617725  0.26962487  1
  O2-  O493  1  0.40646494  0.07705394  0.64670161  1
  O2-  O494  1  0.40490855  0.08151433  0.98502939  1
  O2-  O495  1  0.42983283  0.33783146  0.31127059  1
  O2-  O496  1  0.41594628  0.32758725  0.64415321  1
  O2-  O497  1  0.40705189  0.33430521  0.97558827  1
  O2-  O498  1  0.41010400  0.58831553  0.30652882  1
  O2-  O499  1  0.38407285  0.56341628  0.63133815  1
  O2-  O500  1  0.43375388  0.59700006  0.96544945  1
  O2-  O501  1  0.40943091  0.82524430  0.30364251  1
  O2-  O502  1  0.42353983  0.82492666  0.66724147  1
  O2-  O503  1  0.45282903  0.79197861  0.97311593  1
  O2-  O504  1  0.66239938  0.07773939  0.30247145  1
  O2-  O505  1  0.66637905  0.08545447  0.68351000  1
  O2-  O506  1  0.65457604  0.05375771  0.98268881  1
  O2-  O507  1  0.66299558  0.33557646  0.30725965  1
  O2-  O508  1  0.65872755  0.32639347  0.67078699  1
  O2-  O509  1  0.68359481  0.36383589  0.93769437  1
  O2-  O510  1  0.67388725  0.59074108  0.32556802  1
  O2-  O511  1  0.68627586  0.57798142  0.64396989  1
  O2-  O512  1  0.66077157  0.57999389  0.98880632  1
  O2-  O513  1  0.66708606  0.83233984  0.32641060  1
  O2-  O514  1  0.66078021  0.82515695  0.65091369  1
  O2-  O515  1  0.66509962  0.84782695  0.98821909  1
  O2-  O516  1  0.91576103  0.07782205  0.31812037  1
  O2-  O517  1  0.90465908  0.07674294  0.65957970  1
  O2-  O518  1  0.95957211  0.04758224  0.96013126  1
  O2-  O519  1  0.91741722  0.32878146  0.31393904  1
  O2-  O520  1  0.91741984  0.32860342  0.65426415  1
  O2-  O521  1  0.88556660  0.31670369  0.97892578  1
  O2-  O522  1  0.97026232  0.53294674  0.29008146  1
  O2-  O523  1  0.93183163  0.58825551  0.65035371  1
  O2-  O524  1  0.92193752  0.59033262  0.98528545  1
  O2-  O525  1  0.91419164  0.84386974  0.31424039  1
  O2-  O526  1  0.93943705  0.84958700  0.65426555  1
  O2-  O527  1  0.89607290  0.82747682  0.98828640  1
  O2-  O528  1  0.15480276  0.20035861  0.02374926  1
  O2-  O529  1  0.09460822  0.17672130  0.34479041  1
  O2-  O530  1  0.07807693  0.14305823  0.68378981  1
  O2-  O531  1  0.06726291  0.41078544  -0.02611696  1
  O2-  O532  1  0.08462438  0.41624911  0.35782482  1
  O2-  O533  1  0.09537937  0.41733126  0.68558538  1
  O2-  O534  1  0.08782169  0.66561123  0.01920859  1
  O2-  O535  1  0.15112791  0.72938047  0.38543596  1
  O2-  O536  1  0.09535665  0.67767418  0.68669610  1
  O2-  O537  1  0.06742210  0.90487734  0.01478431  1
  O2-  O538  1  0.08568946  0.92187043  0.34156629  1
  O2-  O539  1  0.10998227  0.95870667  0.65285283  1
  O2-  O540  1  0.32740206  0.16312587  0.02372059  1
  O2-  O541  1  0.33604336  0.18132828  0.35045024  1
  O2-  O542  1  0.32596827  0.15816103  0.68914701  1
  O2-  O543  1  0.34081243  0.43542468  0.00843499  1
  O2-  O544  1  0.33949259  0.42177254  0.34612153  1
  O2-  O545  1  0.32332380  0.40691640  0.68489167  1
  O2-  O546  1  0.38731697  0.70680624  -0.00501605  1
  O2-  O547  1  0.32991344  0.66844396  0.36010415  1
  O2-  O548  1  0.32949662  0.67142087  0.71927920  1
  O2-  O549  1  0.31082001  0.90999513  0.01910087  1
  O2-  O550  1  0.33750535  0.91868706  0.33581916  1
  O2-  O551  1  0.33860361  0.91138828  0.68927834  1
  O2-  O552  1  0.56706611  0.12700279  0.03333528  1
  O2-  O553  1  0.57095578  0.16027032  0.32336776  1
  O2-  O554  1  0.56382605  0.15787433  0.70358899  1
  O2-  O555  1  0.57546061  0.41489378  0.00163965  1
  O2-  O556  1  0.58127261  0.41148953  0.35939796  1
  O2-  O557  1  0.57867399  0.41020755  0.68977792  1
  O2-  O558  1  0.58394922  0.67444776  0.02427311  1
  O2-  O559  1  0.57362832  0.66404244  0.35068138  1
  O2-  O560  1  0.55072551  0.67315747  0.69017267  1
  O2-  O561  1  0.61558237  0.88514931  0.01462605  1
  O2-  O562  1  0.57522531  0.91515733  0.34760524  1
  O2-  O563  1  0.58323055  0.90818609  0.70513665  1
  O2-  O564  1  0.77465876  0.19487352  0.05136884  1
  O2-  O565  1  0.82671353  0.15462214  0.34224387  1
  O2-  O566  1  0.83678294  0.16541344  0.70808417  1
  O2-  O567  1  0.82302449  0.41940806  0.01454141  1
  O2-  O568  1  0.82347177  0.39796784  0.35535726  1
  O2-  O569  1  0.90397085  0.45338394  0.71062689  1
  O2-  O570  1  0.82930371  0.66502159  0.02813857  1
  O2-  O571  1  0.81290162  0.71257401  0.38005568  1
  O2-  O572  1  0.86077072  0.67810956  0.68899977  1
  O2-  O573  1  0.82511935  0.91598871  0.02232623  1
  O2-  O574  1  0.83230694  0.91348467  0.36728543  1
  O2-  O575  1  0.83219829  0.91226587  0.69253417  1
