# generated using pymatgen
data_H2O
_symmetry_space_group_name_H-M   'P 1'
_cell_length_a   18.00197371
_cell_length_b   17.99829826
_cell_length_c   22.02541141
_cell_angle_alpha   89.97962609
_cell_angle_beta   90.03426623
_cell_angle_gamma   119.97859363
_symmetry_Int_Tables_number   1
_chemical_formula_structural   H2O
_chemical_formula_sum   'H384 O192'
_cell_volume   6181.58419571
_cell_formula_units_Z   192
loop_
 _symmetry_equiv_pos_site_id
 _symmetry_equiv_pos_as_xyz
  1  'x, y, z'
loop_
 _atom_type_symbol
 _atom_type_oxidation_number
  H+  1.0
  O2-  -2.0
loop_
 _atom_site_type_symbol
 _atom_site_label
 _atom_site_symmetry_multiplicity
 _atom_site_fract_x
 _atom_site_fract_y
 _atom_site_fract_z
 _atom_site_occupancy
  H+  H0  1  0.72150205  0.10938652  0.82963421  1
  H+  H1  1  0.37133721  0.61176382  0.50114998  1
  H+  H2  1  0.12705003  0.77276471  0.52147728  1
  H+  H3  1  0.73586470  0.61336443  0.32783789  1
  H+  H4  1  0.25947669  0.49846288  0.06247366  1
  H+  H5  1  0.10776195  0.39350813  0.14823249  1
  H+  H6  1  0.86867336  0.14342588  0.83112197  1
  H+  H7  1  0.83185445  0.95289824  0.66401047  1
  H+  H8  1  0.71772538  0.10564542  0.99765356  1
  H+  H9  1  0.66001228  0.57750409  0.59619945  1
  H+  H10  1  0.63537025  0.34560123  0.83849248  1
  H+  H11  1  0.86633986  0.82017823  0.84793808  1
  H+  H12  1  0.40789276  0.28476757  0.30940414  1
  H+  H13  1  0.39026183  0.32026445  0.24754327  1
  H+  H14  1  0.63073678  0.61466065  0.50382333  1
  H+  H15  1  0.10548239  0.37843716  0.50169895  1
  H+  H16  1  0.12034284  0.50223884  0.31186088  1
  H+  H17  1  0.63611749  0.52760191  0.50613537  1
  H+  H18  1  0.13085244  0.86283844  0.51469083  1
  H+  H19  1  0.87495283  0.88762975  0.01588330  1
  H+  H20  1  0.24534427  0.88363202  0.17099932  1
  H+  H21  1  0.80359033  0.93344592  0.35754449  1
  H+  H22  1  0.52087008  0.25528401  0.30599947  1
  H+  H23  1  0.36444325  0.62723403  0.65403128  1
  H+  H24  1  0.98887202  0.11382652  1.00179291  1
  H+  H25  1  0.95896312  0.59578531  0.84198892  1
  H+  H26  1  0.35906436  0.47619538  0.16530253  1
  H+  H27  1  0.13685178  0.29276988  0.65269201  1
  H+  H28  1  0.73487374  0.36698713  0.33983197  1
  H+  H29  1  0.37158514  0.52151111  0.50368834  1
  H+  H30  1  0.34617829  0.95132080  0.83942098  1
  H+  H31  1  0.86543801  0.13405154  0.01004420  1
  H+  H32  1  0.61215171  0.60597513  0.29982226  1
  H+  H33  1  0.07870112  0.91173997  0.43955737  1
  H+  H34  1  0.61814154  0.12215239  0.82826808  1
  H+  H35  1  0.54343269  0.38977254  0.34530700  1
  H+  H36  1  0.97708402  0.11213912  0.51991417  1
  H+  H37  1  0.64051722  0.35847278  0.66011510  1
  H+  H38  1  0.39418127  1.01248329  0.67001955  1
  H+  H39  1  0.14325399  0.38693532  0.30556163  1
  H+  H40  1  0.10213129  0.86356410  -0.00019744  1
  H+  H41  1  0.86153791  0.37927336  0.83262619  1
  H+  H42  1  0.63083854  0.39041129  0.35354065  1
  H+  H43  1  0.14091214  0.86582670  0.67535053  1
  H+  H44  1  0.87693094  0.85500308  0.32720056  1
  H+  H45  1  0.87860196  0.61303130  0.33706878  1
  H+  H46  1  0.16566842  0.11534338  0.66325120  1
  H+  H47  1  0.87977331  0.77392248  1.00024632  1
  H+  H48  1  0.10967829  0.24695162  0.15317090  1
  H+  H49  1  0.22535746  0.38458738  0.65697170  1
  H+  H50  1  0.10773759  0.48245313  0.15010051  1
  H+  H51  1  0.72158367  0.60229502  0.83499837  1
  H+  H52  1  0.37976273  0.36556831  0.51234097  1
  H+  H53  1  0.09767848  0.63786395  0.67708571  1
  H+  H54  1  0.35295536  0.73108508  0.67428592  1
  H+  H55  1  0.79051371  0.42996519  0.00599292  1
  H+  H56  1  0.35713197  0.96231946  0.35141265  1
  H+  H57  1  0.27398334  0.13760844  0.14465835  1
  H+  H58  1  0.60868724  0.72228061  0.16330566  1
  H+  H59  1  0.70224433  0.82959914  0.66087931  1
  H+  H60  1  0.10499341  0.48391895  0.83792831  1
  H+  H61  1  0.22437803  0.36667772  0.16037369  1
  H+  H62  1  0.40855771  0.64042115  -0.02817031  1
  H+  H63  1  0.10491283  0.49252619  0.68213992  1
  H+  H64  1  0.60399864  0.48045489  1.00344267  1
  H+  H65  1  0.07348917  0.59662721  0.81993972  1
  H+  H66  1  0.60683090  0.84247527  0.83345852  1
  H+  H67  1  0.88030078  0.51715100  0.66955729  1
  H+  H68  1  0.38576893  0.27625922  -0.00772757  1
  H+  H69  1  0.62986848  0.76832069  0.99447409  1
  H+  H70  1  0.76915976  0.13801146  0.15753021  1
  H+  H71  1  0.85873779  0.22905041  0.15944805  1
  H+  H72  1  0.59602395  0.85928860  0.67534811  1
  H+  H73  1  0.77546788  0.96099780  0.82673128  1
  H+  H74  1  0.10758331  0.96702740  0.34368944  1
  H+  H75  1  0.86329029  0.10751368  0.65837781  1
  H+  H76  1  0.64749271  0.60976407  0.17399202  1
  H+  H77  1  0.89112843  0.54716688  0.99924718  1
  H+  H78  1  0.86420136  0.39728151  0.15707361  1
  H+  H79  1  0.13880183  0.76742907  0.93062400  1
  H+  H80  1  0.37330304  0.89802162  0.16567176  1
  H+  H81  1  0.12502418  0.61146778  0.51655741  1
  H+  H82  1  0.37631690  0.99004971  0.16164744  1
  H+  H83  1  0.00542314  0.12697222  0.30980327  1
  H+  H84  1  0.36029104  0.42194400  0.67671971  1
  H+  H85  1  0.51841997  0.39353193  0.49828321  1
  H+  H86  1  0.37114886  0.90250357  1.00605088  1
  H+  H87  1  0.10473627  1.00266939  0.84428541  1
  H+  H88  1  0.10716476  0.96760654  0.68631717  1
  H+  H89  1  0.86696199  0.70188002  0.81300928  1
  H+  H90  1  0.59998934  0.61448467  0.67463881  1
  H+  H91  1  0.53142156  0.37235479  0.66588825  1
  H+  H92  1  0.61076426  0.14117988  0.14494789  1
  H+  H93  1  0.61587376  0.46695789  0.66223549  1
  H+  H94  1  0.26476865  0.88387975  0.50337074  1
  H+  H95  1  0.87997269  0.36763082  0.68120767  1
  H+  H96  1  0.90089960  0.08240169  0.57719862  1
  H+  H97  1  0.36339097  0.22781151  0.14792259  1
  H+  H98  1  0.26761702  0.38493369  0.48993215  1
  H+  H99  1  0.89163013  0.86960542  0.17233079  1
  H+  H100  1  0.26823576  0.85072687  0.83932092  1
  H+  H101  1  0.42074911  0.10551483  0.31900171  1
  H+  H102  1  0.81134297  0.18870942  0.47697709  1
  H+  H103  1  0.89724253  0.27592702  0.32432945  1
  H+  H104  1  0.90234643  0.62566835  0.17302247  1
  H+  H105  1  0.13243931  0.01414408  0.51186039  1
  H+  H106  1  0.25091614  0.66573534  1.02092044  1
  H+  H107  1  0.38741985  0.77474518  0.33461005  1
  H+  H108  1  0.89205191  0.27634845  0.83513570  1
  H+  H109  1  0.64384850  0.14568380  0.36974761  1
  H+  H110  1  0.61312677  0.73970431  0.66306016  1
  H+  H111  1  0.28562193  0.11544159  0.67694853  1
  H+  H112  1  -0.03629073  0.36190000  -0.01440192  1
  H+  H113  1  0.65034206  0.27627772  0.34449232  1
  H+  H114  1  0.38921531  0.11479343  0.16263048  1
  H+  H115  1  0.52358840  0.13125080  0.68581766  1
  H+  H116  1  0.63581124  0.61705458  0.99164091  1
  H+  H117  1  0.87165194  0.38956855  0.34277897  1
  H+  H118  1  0.06095925  0.65799116  0.73575861  1
  H+  H119  1  0.64825143  0.01396323  0.55562124  1
  H+  H120  1  0.52039435  0.63366800  0.01549655  1
  H+  H121  1  0.78953410  0.12183254  0.33042214  1
  H+  H122  1  0.68745538  0.83035122  0.83193733  1
  H+  H123  1  0.19483349  0.67108037  0.85487283  1
  H+  H124  1  1.01248858  0.14971571  0.15151615  1
  H+  H125  1  0.59831411  0.79907479  0.31746588  1
  H+  H126  1  0.92711841  0.08269600  0.94367307  1
  H+  H127  1  0.38528978  0.36518966  0.16111981  1
  H+  H128  1  -0.00337287  0.13202206  0.85499157  1
  H+  H129  1  0.50947296  0.89257522  0.35978449  1
  H+  H130  1  0.64672478  0.81365026  0.57101965  1
  H+  H131  1  0.39997912  0.32995800  0.68400942  1
  H+  H132  1  0.72314286  0.36462158  0.16293309  1
  H+  H133  1  0.86854021  0.73274491  0.15580346  1
  H+  H134  1  0.59134946  0.17409828  0.41272907  1
  H+  H135  1  0.86163216  0.38117419  0.50860778  1
  H+  H136  1  0.21682898  0.61396064  0.66787305  1
  H+  H137  1  0.91124924  0.04491255  0.84165826  1
  H+  H138  1  0.00603436  0.63052336  0.50877201  1
  H+  H139  1  0.97009939  0.86200426  0.32833449  1
  H+  H140  1  0.10268083  0.22368214  0.67047440  1
  H+  H141  1  0.51632206  0.63307132  0.16543939  1
  H+  H142  1  0.71105433  0.85114528  0.51386886  1
  H+  H143  1  0.64319971  0.00222065  0.33110087  1
  H+  H144  1  0.51423822  0.39035186  0.00250435  1
  H+  H145  1  0.39276091  0.24509295  0.66200663  1
  H+  H146  1  -0.02869745  0.36434543  0.16730196  1
  H+  H147  1  0.94265382  0.09172089  0.66201673  1
  H+  H148  1  0.09847371  0.39477640  0.00084919  1
  H+  H149  1  1.02018647  0.88491541  0.50031859  1
  H+  H150  1  0.27703682  0.89276530  0.68216802  1
  H+  H151  1  0.86784629  0.59018602  0.83596612  1
  H+  H152  1  0.37433508  0.85843697  0.51480821  1
  H+  H153  1  0.63511447  0.86252487  0.16617847  1
  H+  H154  1  0.61882670  0.46158251  0.82382437  1
  H+  H155  1  0.23500583  0.11864962  0.30645748  1
  H+  H156  1  0.88145881  0.98633484  0.01348093  1
  H+  H157  1  0.37351055  0.63384977  0.82291257  1
  H+  H158  1  0.07588560  0.90461021  0.85181404  1
  H+  H159  1  0.57363437  0.16555480  0.05026056  1
  H+  H160  1  0.13881499  0.28967552  0.85219073  1
  H+  H161  1  0.71846828  0.60196688  0.65568007  1
  H+  H162  1  0.48942810  0.24130114  0.37397013  1
  H+  H163  1  0.58691643  0.70011182  0.82952177  1
  H+  H164  1  0.14056870  0.29538172  0.30550412  1
  H+  H165  1  0.45642354  0.48600221  0.89141374  1
  H+  H166  1  0.12151914  0.23139146  0.00819749  1
  H+  H167  1  0.63363477  0.02136548  0.16457661  1
  H+  H168  1  0.28012273  0.63871454  0.16426537  1
  H+  H169  1  0.13293213  0.26987650  0.50979387  1
  H+  H170  1  0.64161297  0.81722215  0.93249180  1
  H+  H171  1  0.16814367  0.34075443  0.56240805  1
  H+  H172  1  0.14645460  0.80896221  0.84634579  1
  H+  H173  1  0.83452744  0.67494008  0.06319150  1
  H+  H174  1  0.52675635  0.88688710  0.16469204  1
  H+  H175  1  0.86190611  0.72886312  0.34505601  1
  H+  H176  1  0.20772920  0.37928987  1.00483106  1
  H+  H177  1  0.60052174  0.88173833  0.51515464  1
  H+  H178  1  0.04617663  0.65886966  0.23985689  1
  H+  H179  1  0.47260606  0.11082285  0.98763632  1
  H+  H180  1  0.58258877  0.65896781  0.07273851  1
  H+  H181  1  0.59914156  0.12520297  -0.00375786  1
  H+  H182  1  0.86578477  0.65261351  0.00081317  1
  H+  H183  1  0.61465686  0.23198831  0.14647229  1
  H+  H184  1  0.26892900  0.38935268  0.33274556  1
  H+  H185  1  0.78326364  0.64026404  0.15520646  1
  H+  H186  1  0.37891838  0.85892698  0.33737313  1
  H+  H187  1  0.12735369  0.14288488  1.01147336  1
  H+  H188  1  0.86112997  0.98349316  0.15927946  1
  H+  H189  1  0.83086575  0.91244981  0.83637134  1
  H+  H190  1  0.12645509  0.77576892  0.30350312  1
  H+  H191  1  0.63180885  1.01627939  0.00269922  1
  H+  H192  1  0.12956742  0.37451743  0.84741957  1
  H+  H193  1  0.46342948  0.85868114  0.52364379  1
  H+  H194  1  0.61366246  0.21841953  0.83710351  1
  H+  H195  1  0.51677279  0.63106698  0.49315440  1
  H+  H196  1  0.60944997  0.62249245  0.82811271  1
  H+  H197  1  0.38023553  0.01802409  0.51214854  1
  H+  H198  1  0.22704604  0.63095996  0.31457817  1
  H+  H199  1  0.28750128  0.63900178  0.83165624  1
  H+  H200  1  0.25842896  0.39728836  0.82606230  1
  H+  H201  1  0.35959400  0.46624511  0.83052477  1
  H+  H202  1  0.23506774  0.11928905  0.84897735  1
  H+  H203  1  1.00676268  0.39655788  0.68800544  1
  H+  H204  1  0.52272926  0.88670594  0.82480097  1
  H+  H205  1  0.85545975  0.63507839  0.50070353  1
  H+  H206  1  0.88454244  0.13783781  0.33137280  1
  H+  H207  1  0.12508996  0.62399593  0.98505853  1
  H+  H208  1  0.64685673  0.38880204  -0.00786206  1
  H+  H209  1  0.39272660  0.77794603  0.18361669  1
  H+  H210  1  0.13503962  0.15281645  0.84814649  1
  H+  H211  1  0.10878454  0.13028410  0.67312622  1
  H+  H212  1  0.10845631  0.88018710  0.33623690  1
  H+  H213  1  0.37639464  0.11893681  0.67911922  1
  H+  H214  1  0.50618426  0.14895779  0.49697746  1
  H+  H215  1  0.10816558  0.11960978  0.51484519  1
  H+  H216  1  0.39707113  0.77247184  0.84130634  1
  H+  H217  1  0.46471470  0.59484854  0.31345130  1
  H+  H218  1  1.02397505  0.88053585  1.00184952  1
  H+  H219  1  0.23701464  0.11557191  0.99783059  1
  H+  H220  1  0.16117038  0.63022228  0.15145269  1
  H+  H221  1  0.13740404  0.63052599  0.29580872  1
  H+  H222  1  0.10243596  0.69664879  0.83570740  1
  H+  H223  1  0.35778648  0.34473500  0.83404774  1
  H+  H224  1  0.37285373  0.78998206  1.00151525  1
  H+  H225  1  0.47551160  0.36573046  0.16521711  1
  H+  H226  1  0.85078094  0.87109638  0.50447004  1
  H+  H227  1  0.37629096  0.85807192  0.67074125  1
  H+  H228  1  0.85273415  0.46405405  0.83723612  1
  H+  H229  1  0.77249631  0.89086748  0.15889064  1
  H+  H230  1  0.85684864  0.71807898  0.67017212  1
  H+  H231  1  0.69918656  0.00485912  0.27590589  1
  H+  H232  1  0.65276142  0.51833499  0.32612410  1
  H+  H233  1  0.17093644  0.76377843  0.13668090  1
  H+  H234  1  0.77739651  0.38677254  0.49895500  1
  H+  H235  1  0.36013933  0.12357995  0.83561123  1
  H+  H236  1  0.46188328  0.08901473  0.84513173  1
  H+  H237  1  0.61143464  0.22237752  0.68754042  1
  H+  H238  1  0.38773123  0.85639795  0.84260973  1
  H+  H239  1  0.15304647  0.17577011  0.30891516  1
  H+  H240  1  0.60670929  0.87669324  0.00975820  1
  H+  H241  1  0.74152400  0.07420247  0.53473445  1
  H+  H242  1  0.35477595  0.63321361  0.33900932  1
  H+  H243  1  0.63202839  0.01784542  0.82519891  1
  H+  H244  1  0.88285267  0.26631195  -0.01473357  1
  H+  H245  1  0.72567191  0.61978197  0.99044197  1
  H+  H246  1  -0.11860763  0.52001163  0.51361059  1
  H+  H247  1  0.57714881  0.90518297  0.76188307  1
  H+  H248  1  0.49042833  0.57417852  0.85409213  1
  H+  H249  1  0.88726302  0.11857152  0.50630213  1
  H+  H250  1  0.36934109  0.53643621  0.65714046  1
  H+  H251  1  0.26356539  0.63882512  0.49381406  1
  H+  H252  1  0.61784933  0.72567748  0.29922443  1
  H+  H253  1  0.98227401  0.36931186  0.32050133  1
  H+  H254  1  0.51984407  0.88161331  0.01203366  1
  H+  H255  1  0.36236155  0.13218456  0.99828078  1
  H+  H256  1  0.89107775  0.77325147  0.51516883  1
  H+  H257  1  0.12620217  0.53466430  -0.00841824  1
  H+  H258  1  0.51366784  0.87036717  0.67593257  1
  H+  H259  1  0.28234556  0.21546677  0.28370575  1
  H+  H260  1  0.61340560  0.47270240  0.15566618  1
  H+  H261  1  0.88637933  0.26906164  0.54315993  1
  H+  H262  1  0.37413576  0.51383481  0.32710969  1
  H+  H263  1  0.77179145  0.38113978  0.68348096  1
  H+  H264  1  0.37793511  0.10515952  0.52090163  1
  H+  H265  1  0.92472655  0.03356329  0.31221278  1
  H+  H266  1  0.12792178  0.52412168  0.51532580  1
  H+  H267  1  0.38590173  0.61570414  0.17090998  1
  H+  H268  1  0.86726511  0.23365029  0.68007846  1
  H+  H269  1  0.17342242  0.85107189  0.25879896  1
  H+  H270  1  0.72151890  0.34257408  0.84552691  1
  H+  H271  1  0.57056998  0.62717481  0.24301921  1
  H+  H272  1  0.58640891  0.88365028  0.38632957  1
  H+  H273  1  0.26365280  0.87863918  0.34295610  1
  H+  H274  1  0.88191206  0.12147596  0.16530538  1
  H+  H275  1  0.16379986  0.34449283  0.21782451  1
  H+  H276  1  0.01170711  0.65592469  -0.00934694  1
  H+  H277  1  0.63181999  0.35733923  0.16178123  1
  H+  H278  1  0.60242813  0.71986326  0.49515534  1
  H+  H279  1  0.37756597  0.26891760  0.84098569  1
  H+  H280  1  1.02757536  0.88539020  0.15425124  1
  H+  H281  1  0.95591033  0.90497090  0.85235939  1
  H+  H282  1  0.49256842  0.09006349  0.34507383  1
  H+  H283  1  0.87091627  0.48864576  0.16499666  1
  H+  H284  1  0.76993967  0.64168150  0.49789718  1
  H+  H285  1  0.33422984  0.16821066  0.45113264  1
  H+  H286  1  0.35662471  0.23045508  0.50712286  1
  H+  H287  1  0.73868283  0.83905263  0.34005831  1
  H+  H288  1  0.82245874  0.64837541  0.75358573  1
  H+  H289  1  0.58358519  0.42290509  0.44113775  1
  H+  H290  1  0.90507954  0.57442606  0.57561197  1
  H+  H291  1  0.01152802  0.63663863  0.30446495  1
  H+  H292  1  0.66246677  0.82566889  0.22341416  1
  H+  H293  1  0.07458589  0.43365768  0.74931235  1
  H+  H294  1  0.12663006  0.70486045  0.07791751  1
  H+  H295  1  0.91590457  0.32889269  0.89934111  1
  H+  H296  1  0.91942241  0.83632524  0.23024071  1
  H+  H297  1  0.32297630  0.43096581  0.10326956  1
  H+  H298  1  0.16950932  0.06540129  0.60414395  1
  H+  H299  1  0.84638057  0.45505086  0.06737896  1
  H+  H300  1  0.32884114  0.41275474  0.43206933  1
  H+  H301  1  0.25569396  0.72810699  0.07116277  1
  H+  H302  1  0.59973148  0.40892235  0.76243003  1
  H+  H303  1  0.33292497  0.90950186  0.74333892  1
  H+  H304  1  0.11590739  0.45627902  0.37226123  1
  H+  H305  1  0.80797266  0.87762097  0.44408579  1
  H+  H306  1  0.33517101  0.15318865  0.77462282  1
  H+  H307  1  0.88201779  0.52418012  0.33506296  1
  H+  H308  1  0.58048634  0.91040798  0.10130583  1
  H+  H309  1  0.80868608  0.90825273  0.72771800  1
  H+  H310  1  0.68395240  0.57747046  0.22821740  1
  H+  H311  1  0.05544854  0.40223710  0.45295050  1
  H+  H312  1  0.73387067  0.11370835  0.63669798  1
  H+  H313  1  0.01368908  0.39111085  0.83423868  1
  H+  H314  1  0.41756846  0.83349595  0.93700465  1
  H+  H315  1  0.66630140  0.57944148  0.89662465  1
  H+  H316  1  0.67572078  0.34985547  0.93814192  1
  H+  H317  1  0.87892095  0.85405460  0.66594053  1
  H+  H318  1  0.08173215  0.16541076  0.73816186  1
  H+  H319  1  0.67058423  0.31542195  0.60909201  1
  H+  H320  1  0.08448121  0.90970354  0.09357134  1
  H+  H321  1  0.17274396  0.84787692  0.61219419  1
  H+  H322  1  0.84152054  0.92364867  0.07717510  1
  H+  H323  1  0.90490134  0.84304766  0.94451854  1
  H+  H324  1  0.34825218  0.37429167  0.33261871  1
  H+  H325  1  0.92198130  0.83278664  0.57464133  1
  H+  H326  1  0.83187300  0.67323746  0.40744769  1
  H+  H327  1  0.06883827  0.42602606  0.05836651  1
  H+  H328  1  0.42463608  0.56936132  0.94043341  1
  H+  H329  1  0.14997953  0.87262192  0.16478738  1
  H+  H330  1  0.47945771  0.11941014  0.16252759  1
  H+  H331  1  0.84516922  0.41659018  0.40504162  1
  H+  H332  1  0.32055394  0.90776421  0.44230508  1
  H+  H333  1  0.65815037  0.08206164  0.22195335  1
  H+  H334  1  0.32284627  0.66365877  0.39701064  1
  H+  H335  1  0.39306439  0.58736543  0.58800517  1
  H+  H336  1  0.41013976  0.33382803  0.57190257  1
  H+  H337  1  0.91723547  0.34359798  0.62198268  1
  H+  H338  1  0.96995267  0.85776115  0.67288661  1
  H+  H339  1  0.92319679  0.09416622  0.22084242  1
  H+  H340  1  0.14485279  0.02567909  0.99531272  1
  H+  H341  1  0.42295861  0.83924744  0.24188883  1
  H+  H342  1  0.06922596  0.92038865  0.74893767  1
  H+  H343  1  0.12252253  0.20076375  0.36906517  1
  H+  H344  1  0.85635235  0.62745438  0.66783386  1
  H+  H345  1  0.17651294  0.09810779  0.20817234  1
  H+  H346  1  0.82763349  0.41137513  0.74593357  1
  H+  H347  1  0.17853538  0.09607395  0.91234519  1
  H+  H348  1  0.39754658  0.82458699  0.60814095  1
  H+  H349  1  0.16949014  0.59238399  0.21629415  1
  H+  H350  1  0.15719865  0.58103023  0.60817425  1
  H+  H351  1  0.09921075  0.18018566  0.78856491  1
  H+  H352  1  0.33193577  0.66512927  0.73140538  1
  H+  H353  1  0.84191656  0.15518399  0.42098443  1
  H+  H354  1  0.08492755  0.17664917  0.09296741  1
  H+  H355  1  0.57454045  0.93371560  0.46898191  1
  H+  H356  1  0.91466409  0.33504729  0.22792950  1
  H+  H357  1  0.90733016  0.58725732  0.23660595  1
  H+  H358  1  0.40476909  0.06817484  0.90528028  1
  H+  H359  1  0.96888714  0.60904533  0.66599649  1
  H+  H360  1  0.57959253  0.16184489  0.77099402  1
  H+  H361  1  0.83413782  0.16837595  0.06489429  1
  H+  H362  1  0.34291880  0.92810262  0.06719582  1
  H+  H363  1  0.38010065  0.02228694  0.99439632  1
  H+  H364  1  0.06729113  0.66668237  0.45127403  1
  H+  H365  1  0.14110645  0.02439832  0.15789043  1
  H+  H366  1  0.33647701  0.16518425  0.05882231  1
  H+  H367  1  0.16120349  0.34222531  0.94123332  1
  H+  H368  1  0.06913503  0.13788374  0.45682768  1
  H+  H369  1  0.33540766  0.51498521  1.01848784  1
  H+  H370  1  0.83741028  0.16521417  0.76887976  1
  H+  H371  1  0.22104234  0.10719129  0.51555973  1
  H+  H372  1  0.91256815  0.59687124  0.93322665  1
  H+  H373  1  0.40575377  0.33288268  0.93380969  1
  H+  H374  1  0.57538913  0.41701422  0.09521043  1
  H+  H375  1  0.55103379  0.30403335  0.47079981  1
  H+  H376  1  0.97284583  0.35533190  0.52785268  1
  H+  H377  1  0.31984105  0.43741487  0.73710651  1
  H+  H378  1  0.33460848  0.68751854  0.10848413  1
  H+  H379  1  0.40457594  0.57921622  0.23220946  1
  H+  H380  1  0.56765740  0.64023483  0.73408629  1
  H+  H381  1  0.18451960  0.60721845  0.90659131  1
  H+  H382  1  0.35302143  0.72646917  0.49485211  1
  H+  H383  1  0.42263559  0.07116758  0.60876021  1
  O2-  O384  1  0.07581221  0.18301998  0.13890776  1
  O2-  O385  1  0.07537667  0.14966242  0.50038581  1
  O2-  O386  1  0.10184750  0.18345191  0.83376991  1
  O2-  O387  1  0.07402175  0.42121168  0.13619897  1
  O2-  O388  1  0.06961240  0.40721252  0.49602948  1
  O2-  O389  1  0.07728176  0.42696233  0.81876004  1
  O2-  O390  1  0.16666464  0.71494409  0.11191727  1
  O2-  O391  1  0.06872972  0.66226970  0.49531522  1
  O2-  O392  1  0.05473788  0.63847626  0.81316643  1
  O2-  O393  1  0.08747134  0.91470491  0.13870305  1
  O2-  O394  1  0.08134156  0.91703660  0.48452097  1
  O2-  O395  1  0.05914370  0.94229007  0.83151377  1
  O2-  O396  1  0.33649491  0.16780274  0.13290216  1
  O2-  O397  1  0.32541481  0.16781542  0.49485217  1
  O2-  O398  1  0.33165279  0.15571300  0.81950522  1
  O2-  O399  1  0.32818215  0.41758999  0.14632004  1
  O2-  O400  1  0.32895488  0.41651686  0.47740765  1
  O2-  O401  1  0.31480520  0.42019550  0.80428446  1
  O2-  O402  1  0.34181402  0.67353403  0.15148907  1
  O2-  O403  1  0.32260197  0.66712201  0.47670071  1
  O2-  O404  1  0.34412856  0.66409917  0.80946166  1
  O2-  O405  1  0.34341162  0.92681898  0.14850523  1
  O2-  O406  1  0.32502764  0.91359807  0.48759984  1
  O2-  O407  1  0.32553731  0.89323911  0.82136266  1
  O2-  O408  1  0.58033044  0.17073960  0.13088484  1
  O2-  O409  1  0.55784984  0.19832717  0.47685197  1
  O2-  O410  1  0.58166393  0.15633918  0.81928597  1
  O2-  O411  1  0.57507576  0.41334507  0.14104347  1
  O2-  O412  1  0.57847418  0.41281858  0.48594229  1
  O2-  O413  1  0.59988674  0.40402066  0.80702065  1
  O2-  O414  1  0.57976067  0.65842400  0.15848728  1
  O2-  O415  1  0.57679949  0.66001143  0.47945922  1
  O2-  O416  1  0.56531241  0.63923868  0.81655661  1
  O2-  O417  1  0.58628461  0.91520704  0.14762991  1
  O2-  O418  1  0.57170914  0.91768313  0.51199806  1
  O2-  O419  1  0.58231139  0.91133240  0.80836149  1
  O2-  O420  1  0.83118769  0.16770671  0.14529919  1
  O2-  O421  1  0.83851966  0.15504841  0.46700324  1
  O2-  O422  1  0.83579024  0.16892581  0.81386785  1
  O2-  O423  1  0.83719705  0.43140496  0.14517099  1
  O2-  O424  1  0.83768264  0.41350417  0.48734167  1
  O2-  O425  1  0.82594429  0.40494108  0.81899043  1
  O2-  O426  1  0.84300895  0.67360661  0.13891529  1
  O2-  O427  1  0.83191375  0.67101657  0.48498825  1
  O2-  O428  1  0.82294027  0.64508462  0.80013372  1
  O2-  O429  1  0.83443196  0.92239092  0.14572968  1
  O2-  O430  1  0.81335814  0.89197654  0.48750497  1
  O2-  O431  1  0.80298136  0.93270693  0.80654043  1
  O2-  O432  1  0.17144380  0.08759075  0.16427312  1
  O2-  O433  1  0.16067522  0.07330458  0.53156284  1
  O2-  O434  1  0.17531330  0.09855914  0.86593505  1
  O2-  O435  1  0.16163475  0.33865831  0.17221162  1
  O2-  O436  1  0.16169910  0.33243186  0.51690719  1
  O2-  O437  1  0.16580110  0.35135446  0.86360877  1
  O2-  O438  1  0.17169956  0.58616595  0.17137772  1
  O2-  O439  1  0.15903690  0.58409915  0.52987114  1
  O2-  O440  1  0.19362439  0.61617647  0.86102408  1
  O2-  O441  1  0.18260636  0.84644755  0.18276597  1
  O2-  O442  1  0.16150610  0.83442567  0.53214489  1
  O2-  O443  1  0.16733596  0.77295191  0.86370620  1
  O2-  O444  1  0.42032592  0.08710375  0.17999578  1
  O2-  O445  1  0.41230813  0.07748299  0.52984475  1
  O2-  O446  1  0.40164194  0.06182892  0.85849328  1
  O2-  O447  1  0.41294985  0.33350069  0.17777866  1
  O2-  O448  1  0.40923750  0.33423913  0.52685386  1
  O2-  O449  1  0.39511610  0.32773038  0.85491092  1
  O2-  O450  1  0.41205845  0.58137024  0.18704164  1
  O2-  O451  1  0.39887909  0.58101001  0.52074089  1
  O2-  O452  1  0.43964241  0.52801217  0.87949688  1
  O2-  O453  1  0.42490514  0.83910943  0.19674624  1
  O2-  O454  1  0.39986241  0.82381833  0.53060435  1
  O2-  O455  1  0.42370716  0.83135214  0.85782810  1
  O2-  O456  1  0.66382898  0.08328873  0.17769322  1
  O2-  O457  1  0.70213889  0.06633617  0.56759738  1
  O2-  O458  1  0.65932076  0.07925212  0.83841663  1
  O2-  O459  1  0.66239254  0.32701339  0.17461521  1
  O2-  O460  1  0.51722778  0.24568723  0.45200094  1
  O2-  O461  1  0.65989967  0.31135352  0.85781534  1
  O2-  O462  1  0.68035357  0.58048260  0.18294943  1
  O2-  O463  1  0.66562766  0.58834205  0.51966255  1
  O2-  O464  1  0.66224516  0.57514307  0.85115142  1
  O2-  O465  1  0.66732230  0.83169702  0.17857988  1
  O2-  O466  1  0.64909144  0.82416961  0.52594909  1
  O2-  O467  1  0.62967629  0.80420320  0.84930187  1
  O2-  O468  1  0.91750908  0.09293875  0.17593745  1
  O2-  O469  1  0.91397973  0.08896461  0.52976169  1
  O2-  O470  1  0.93387414  0.09842726  0.86477197  1
  O2-  O471  1  0.91122488  0.33211787  0.18293690  1
  O2-  O472  1  0.91310713  0.33141327  0.54474974  1
  O2-  O473  1  0.92196432  0.33592217  0.85178843  1
  O2-  O474  1  0.92799980  0.59486558  0.19401849  1
  O2-  O475  1  0.90730063  0.57936711  0.52966723  1
  O2-  O476  1  0.89885670  0.56671877  0.85914564  1
  O2-  O477  1  0.92116334  0.83805597  0.18498092  1
  O2-  O478  1  0.92305353  0.83438329  0.52918670  1
  O2-  O479  1  0.89485134  0.87625944  0.86755463  1
  O2-  O480  1  0.22442299  0.15894721  0.28375107  1
  O2-  O481  1  0.17387965  0.06732818  0.65041948  1
  O2-  O482  1  0.17286456  0.08724224  0.98424762  1
  O2-  O483  1  0.17370608  0.35617812  0.29187890  1
  O2-  O484  1  0.16795967  0.35223147  0.63609314  1
  O2-  O485  1  0.15328619  0.33440941  0.98619800  1
  O2-  O486  1  0.17066716  0.59954384  0.29285301  1
  O2-  O487  1  0.15572208  0.58000703  0.65372360  1
  O2-  O488  1  0.16067664  0.59611857  0.97814377  1
  O2-  O489  1  0.16169695  0.83965444  0.30378382  1
  O2-  O490  1  0.18516215  0.85705063  0.65623253  1
  O2-  O491  1  0.11875029  0.77263974  0.97435504  1
  O2-  O492  1  0.43061962  0.06117557  0.33612419  1
  O2-  O493  1  0.42525259  0.07334535  0.65401011  1
  O2-  O494  1  0.40887477  0.08123596  0.97436582  1
  O2-  O495  1  0.36866029  0.30279463  0.29110082  1
  O2-  O496  1  0.41823456  0.30787859  0.65028306  1
  O2-  O497  1  0.41243893  0.33685861  0.97874508  1
  O2-  O498  1  0.40230643  0.57398181  0.31112357  1
  O2-  O499  1  0.39298799  0.59332324  0.63536910  1
  O2-  O500  1  0.41763619  0.59250947  0.98080376  1
  O2-  O501  1  0.41828478  0.83717008  0.32400615  1
  O2-  O502  1  0.40072409  0.82250078  0.65349684  1
  O2-  O503  1  0.41973517  0.84220918  0.98181256  1
  O2-  O504  1  0.68927316  0.04250185  0.30240157  1
  O2-  O505  1  0.74720360  0.14458347  0.67685318  1
  O2-  O506  1  0.65705049  0.07467784  0.98538915  1
  O2-  O507  1  0.67188297  0.33674793  0.33289172  1
  O2-  O508  1  0.67194236  0.32503061  0.65268990  1
  O2-  O509  1  0.69463728  0.38198467  0.97654963  1
  O2-  O510  1  0.68036045  0.57594148  0.30584272  1
  O2-  O511  1  0.65789575  0.56851456  0.64137293  1
  O2-  O512  1  0.66618603  0.58868178  0.97371160  1
  O2-  O513  1  0.64456628  0.79133232  0.30173229  1
  O2-  O514  1  0.64204117  0.80079805  0.64672826  1
  O2-  O515  1  0.65276862  0.82605293  0.97657924  1
  O2-  O516  1  0.94257808  0.09227048  0.29992066  1
  O2-  O517  1  0.88789565  0.07122162  0.64122790  1
  O2-  O518  1  0.92733757  0.07889582  0.98885076  1
  O2-  O519  1  0.92036371  0.33578104  0.31014355  1
  O2-  O520  1  0.91658068  0.34088263  0.66719485  1
  O2-  O521  1  0.90849216  0.32353345  0.96534927  1
  O2-  O522  1  0.90671489  0.58304943  0.31788881  1
  O2-  O523  1  0.90675798  0.57485047  0.65002540  1
  O2-  O524  1  0.92131096  0.60972590  0.97776705  1
  O2-  O525  1  0.91140697  0.83057196  0.31051534  1
  O2-  O526  1  0.91249065  0.82662494  0.65265130  1
  O2-  O527  1  0.91303145  0.83856479  0.98850039  1
  O2-  O528  1  0.09397472  0.17145043  0.02512727  1
  O2-  O529  1  0.10943761  0.19149520  0.32584828  1
  O2-  O530  1  0.07136207  0.15700412  0.68840194  1
  O2-  O531  1  0.07221424  0.42975933  0.01297394  1
  O2-  O532  1  0.09514266  0.44230557  0.33061536  1
  O2-  O533  1  0.07050750  0.43210009  0.70240249  1
  O2-  O534  1  0.07890890  0.68618440  0.00126746  1
  O2-  O535  1  0.06779450  0.66711000  0.28195712  1
  O2-  O536  1  0.06132409  0.66124552  0.69060951  1
  O2-  O537  1  0.08552307  0.90596399  0.01283527  1
  O2-  O538  1  0.07688438  0.90731562  0.35678678  1
  O2-  O539  1  0.07041048  0.91046806  0.70490442  1
  O2-  O540  1  0.33105934  0.16274401  0.01314298  1
  O2-  O541  1  0.47145184  0.24297800  0.33136770  1
  O2-  O542  1  0.34464968  0.14995992  0.69270718  1
  O2-  O543  1  0.28699011  0.46961208  0.04315872  1
  O2-  O544  1  0.32569195  0.40900872  0.35241276  1
  O2-  O545  1  0.32249382  0.44311789  0.68983083  1
  O2-  O546  1  0.29355854  0.71266773  0.04742539  1
  O2-  O547  1  0.32558540  0.66551539  0.35161588  1
  O2-  O548  1  0.32283046  0.66654914  0.68674876  1
  O2-  O549  1  0.33779453  0.92828211  0.02230448  1
  O2-  O550  1  0.31992902  0.90052902  0.36372142  1
  O2-  O551  1  0.33796649  0.91584537  0.69821843  1
  O2-  O552  1  0.56739351  0.15624600  0.00566621  1
  O2-  O553  1  0.60338867  0.16658014  0.36915389  1
  O2-  O554  1  0.58006727  0.16492860  0.70666927  1
  O2-  O555  1  0.57409418  0.42140839  0.02020163  1
  O2-  O556  1  0.60018743  0.42442524  0.36333436  1
  O2-  O557  1  0.59215025  0.40682882  0.67862689  1
  O2-  O558  1  0.58147956  0.66130673  0.02789296  1
  O2-  O559  1  0.57212095  0.62858456  0.28791957  1
  O2-  O560  1  0.56815856  0.64289345  0.68925325  1
  O2-  O561  1  0.57883334  0.90703961  0.02962997  1
  O2-  O562  1  0.56885973  0.92617938  0.37922793  1
  O2-  O563  1  0.57314162  0.89575700  0.69118527  1
  O2-  O564  1  0.83527758  0.16558997  0.01982023  1
  O2-  O565  1  0.84820945  0.16096463  0.34696596  1
  O2-  O566  1  0.83715646  0.16995822  0.68900346  1
  O2-  O567  1  0.85045058  0.46396242  0.02267333  1
  O2-  O568  1  0.84330623  0.42021357  0.36029742  1
  O2-  O569  1  0.83173605  0.41325052  0.69976636  1
  O2-  O570  1  0.83192339  0.67933245  0.01765351  1
  O2-  O571  1  0.83119109  0.66951311  0.36190947  1
  O2-  O572  1  0.82386120  0.65634211  0.68261378  1
  O2-  O573  1  0.84839158  0.92459759  0.03038370  1
  O2-  O574  1  0.79737417  0.87651775  0.35753992  1
  O2-  O575  1  0.81315074  0.89750598  0.68422250  1
