# generated using pymatgen
data_H2O
_symmetry_space_group_name_H-M   'P 1'
_cell_length_a   17.96829034
_cell_length_b   17.97085270
_cell_length_c   21.99480415
_cell_angle_alpha   89.99671249
_cell_angle_beta   89.97636242
_cell_angle_gamma   120.00069576
_symmetry_Int_Tables_number   1
_chemical_formula_structural   H2O
_chemical_formula_sum   'H384 O192'
_cell_volume   6150.67911125
_cell_formula_units_Z   192
loop_
 _symmetry_equiv_pos_site_id
 _symmetry_equiv_pos_as_xyz
  1  'x, y, z'
loop_
 _atom_type_symbol
 _atom_type_oxidation_number
  H+  1.0
  O2-  -2.0
loop_
 _atom_site_type_symbol
 _atom_site_label
 _atom_site_symmetry_multiplicity
 _atom_site_fract_x
 _atom_site_fract_y
 _atom_site_fract_z
 _atom_site_occupancy
  H+  H0  1  0.39911721  0.27061364  0.65029351  1
  H+  H1  1  0.61339206  0.72727591  0.33861710  1
  H+  H2  1  0.62640307  0.38363369  0.82886609  1
  H+  H3  1  0.88499319  0.85080561  0.16915961  1
  H+  H4  1  0.46874071  0.81064536  0.16991350  1
  H+  H5  1  0.84538775  0.86625879  0.36040479  1
  H+  H6  1  0.12385367  0.51680304  0.50205378  1
  H+  H7  1  0.13118234  0.62805969  0.17145577  1
  H+  H8  1  0.02070283  0.38452960  0.49004678  1
  H+  H9  1  0.37328362  0.10171120  0.65008093  1
  H+  H10  1  0.26694822  0.88091031  0.66633860  1
  H+  H11  1  0.14222629  0.87135890  0.83975202  1
  H+  H12  1  0.65506337  0.04521769  0.17019895  1
  H+  H13  1  0.36014894  0.22131912  0.34260989  1
  H+  H14  1  0.61401539  0.22707577  0.16430299  1
  H+  H15  1  0.85448992  0.13884831  0.49757144  1
  H+  H16  1  0.10736768  0.96732234  0.16754439  1
  H+  H17  1  0.83064953  0.30547870  0.27673088  1
  H+  H18  1  0.36765524  0.88350043  0.48588224  1
  H+  H19  1  0.59011568  0.61881439  0.07509066  1
  H+  H20  1  0.02057520  0.88117976  0.49480293  1
  H+  H21  1  0.40832865  0.61312590  0.16935141  1
  H+  H22  1  0.08254478  0.36310864  0.81327257  1
  H+  H23  1  0.10799870  0.72430766  0.67004891  1
  H+  H24  1  0.85392359  0.39388136  0.34256403  1
  H+  H25  1  0.13156582  0.53674702  0.17533677  1
  H+  H26  1  0.27583306  0.22738220  0.55885222  1
  H+  H27  1  0.41929176  0.83810564  0.59360325  1
  H+  H28  1  0.41708114  0.39317113  0.50349072  1
  H+  H29  1  0.37239201  0.73738581  0.16781382  1
  H+  H30  1  0.60517411  0.48597353  0.83292311  1
  H+  H31  1  0.61731621  0.14448442  0.67188727  1
  H+  H32  1  0.61254013  0.97477094  0.33794948  1
  H+  H33  1  0.02171279  0.12608381  0.00072182  1
  H+  H34  1  0.97850481  0.62685553  0.50706740  1
  H+  H35  1  0.12269891  0.51929674  0.32238816  1
  H+  H36  1  0.62314475  0.28616144  0.82354911  1
  H+  H37  1  0.47779297  0.10649818  0.32925767  1
  H+  H38  1  0.11013030  0.50815829  0.65197680  1
  H+  H39  1  0.26132264  0.40503980  0.67717092  1
  H+  H40  1  0.36810931  0.28906407  0.51251970  1
  H+  H41  1  0.02536953  0.64285652  0.15439864  1
  H+  H42  1  0.37998657  0.65065861  0.00476864  1
  H+  H43  1  0.09334212  0.26511043  0.97836467  1
  H+  H44  1  0.78534966  0.38314170  -0.01972708  1
  H+  H45  1  0.81797988  0.65803071  0.06055174  1
  H+  H46  1  0.22955758  0.38254493  0.51227348  1
  H+  H47  1  0.49655404  0.36444270  0.18128678  1
  H+  H48  1  0.26748320  0.02116345  0.11102772  1
  H+  H49  1  0.86939834  0.12290987  0.83007556  1
  H+  H50  1  0.63067378  0.78459684  0.51005892  1
  H+  H51  1  -0.01026768  0.35509684  0.81411256  1
  H+  H52  1  0.72200345  0.37606211  0.82594447  1
  H+  H53  1  0.22780452  0.10400663  0.33308168  1
  H+  H54  1  0.89353972  0.36713009  0.97214289  1
  H+  H55  1  0.86699835  0.21965154  1.00510521  1
  H+  H56  1  1.00396656  0.36436177  0.66129164  1
  H+  H57  1  0.11615759  0.14891809  0.50214820  1
  H+  H58  1  0.39857457  0.78368988  0.50072857  1
  H+  H59  1  0.48027767  0.10942564  0.17687021  1
  H+  H60  1  0.65082514  0.13109193  0.17020173  1
  H+  H61  1  0.52196652  0.38323577  0.66812239  1
  H+  H62  1  0.16312967  0.38646107  0.17013116  1
  H+  H63  1  0.37967920  -0.00703547  0.33428414  1
  H+  H64  1  0.91947099  0.82528235  0.22681699  1
  H+  H65  1  0.89063140  0.52834363  0.83969335  1
  H+  H66  1  0.63505574  0.36732467  0.48740526  1
  H+  H67  1  0.85888984  0.71325258  0.15413338  1
  H+  H68  1  0.13710687  0.11102601  0.98315195  1
  H+  H69  1  0.61470894  0.64507149  0.49621140  1
  H+  H70  1  0.86828756  0.49129053  0.67163206  1
  H+  H71  1  0.20379703  0.11028417  0.52345792  1
  H+  H72  1  0.78875029  0.14813265  0.16019989  1
  H+  H73  1  0.72134018  0.85967343  0.33196019  1
  H+  H74  1  0.38564610  0.62554893  0.83868081  1
  H+  H75  1  0.14896442  0.11110395  0.66919440  1
  H+  H76  1  0.85488555  0.63392298  0.67995570  1
  H+  H77  1  0.85258767  0.24124749  0.83481189  1
  H+  H78  1  0.83547366  0.37088342  0.82131777  1
  H+  H79  1  0.58093628  0.42072460  0.72898790  1
  H+  H80  1  0.63117443  0.61026680  0.32805317  1
  H+  H81  1  0.08259256  0.91909615  0.77187098  1
  H+  H82  1  0.64153092  -0.01667308  0.85360409  1
  H+  H83  1  0.27719297  0.88447921  0.48619858  1
  H+  H84  1  0.37804040  0.45039307  0.41689241  1
  H+  H85  1  0.60873316  0.88708368  0.67280743  1
  H+  H86  1  0.88585188  0.77005851  0.84102970  1
  H+  H87  1  0.91045706  0.27180465  0.17201552  1
  H+  H88  1  0.63033016  0.77453361  0.66317859  1
  H+  H89  1  0.84273703  0.16428619  0.06607521  1
  H+  H90  1  0.46752340  0.87243995  0.83853840  1
  H+  H91  1  0.88834766  0.86055709  0.84081840  1
  H+  H92  1  0.15469729  0.12299289  0.17619487  1
  H+  H93  1  0.35676352  0.39551218  0.82573060  1
  H+  H94  1  -0.02417963  0.61982229  0.66288697  1
  H+  H95  1  0.98950121  0.08547089  0.33681670  1
  H+  H96  1  0.86195886  0.73866086  0.33454833  1
  H+  H97  1  0.36234975  0.13485833  0.34349305  1
  H+  H98  1  0.86468403  0.52565325  0.32019156  1
  H+  H99  1  0.88256122  0.88065020  0.00833223  1
  H+  H100  1  0.61287316  0.47638535  0.34080220  1
  H+  H101  1  1.01325845  0.38068208  0.33464502  1
  H+  H102  1  0.11645027  0.75030689  0.35112789  1
  H+  H103  1  0.48394934  0.50282852  0.02099053  1
  H+  H104  1  0.13147649  0.11517418  0.83780744  1
  H+  H105  1  0.41023472  0.54486467  0.50835769  1
  H+  H106  1  0.40255395  0.53099930  0.98850324  1
  H+  H107  1  0.23821619  0.62747365  -0.00577950  1
  H+  H108  1  0.63005958  0.36024709  0.33452869  1
  H+  H109  1  0.75324021  0.63235679  0.00475789  1
  H+  H110  1  1.02860853  0.13143197  0.83229005  1
  H+  H111  1  0.27236753  0.89651289  0.81756416  1
  H+  H112  1  0.68596787  0.90737131  0.88686444  1
  H+  H113  1  0.65248889  0.88471548  0.17731041  1
  H+  H114  1  0.11673094  0.60058080  0.65302394  1
  H+  H115  1  0.12362642  0.49854648  0.01137350  1
  H+  H116  1  0.27575065  0.14179847  0.81737309  1
  H+  H117  1  0.14413845  0.62608842  0.84051006  1
  H+  H118  1  0.22187223  0.09132341  0.16477942  1
  H+  H119  1  0.89620103  1.01811345  0.84128896  1
  H+  H120  1  0.92098127  0.82559734  0.93458186  1
  H+  H121  1  0.40788888  0.36281260  0.17520289  1
  H+  H122  1  0.57500595  0.15405634  0.40078020  1
  H+  H123  1  0.38296555  0.47739268  0.15964739  1
  H+  H124  1  0.85301105  -0.02662313  0.67941213  1
  H+  H125  1  0.47535483  0.86791008  0.65498601  1
  H+  H126  1  0.36376706  0.73949986  0.83007467  1
  H+  H127  1  0.85911707  0.26342686  0.32937518  1
  H+  H128  1  0.27841055  0.38862275  0.33976744  1
  H+  H129  1  0.38179397  0.08665537  0.17085122  1
  H+  H130  1  0.60707472  0.21165824  0.49087150  1
  H+  H131  1  0.64662239  0.36659605  1.01292379  1
  H+  H132  1  0.76524711  0.63278779  0.67712475  1
  H+  H133  1  0.14198871  0.78281803  0.51555443  1
  H+  H134  1  0.35921929  0.88331515  0.66299812  1
  H+  H135  1  0.13582006  0.89832132  -0.01461018  1
  H+  H136  1  0.36539902  0.38249171  0.33469058  1
  H+  H137  1  0.63099548  0.52333041  0.65851707  1
  H+  H138  1  0.85766635  0.63910956  0.48946237  1
  H+  H139  1  0.88498353  0.86342161  0.50826675  1
  H+  H140  1  0.58031092  0.16757089  0.10306751  1
  H+  H141  1  0.52174676  0.64932103  0.83110162  1
  H+  H142  1  0.37043258  -0.03928885  0.16782094  1
  H+  H143  1  0.24741484  0.62221734  0.15576000  1
  H+  H144  1  0.12916028  0.36442318  0.66051811  1
  H+  H145  1  0.25806505  0.36954926  1.00108202  1
  H+  H146  1  0.38466643  0.02999724  0.82600646  1
  H+  H147  1  0.04551589  0.39726470  0.16353857  1
  H+  H148  1  0.02285045  0.88894907  0.83262547  1
  H+  H149  1  0.62730377  0.02312809  1.00819285  1
  H+  H150  1  0.87165794  0.30537217  0.88916942  1
  H+  H151  1  0.33843170  0.16116151  0.72190920  1
  H+  H152  1  0.20438075  0.83280511  0.33407120  1
  H+  H153  1  0.17668302  0.34008776  0.26606441  1
  H+  H154  1  0.48850841  0.61261610  0.97990832  1
  H+  H155  1  0.37536145  0.78252316  0.99035844  1
  H+  H156  1  0.63346341  0.86131259  0.32813580  1
  H+  H157  1  0.12665955  1.01056898  0.51470786  1
  H+  H158  1  0.52226954  0.63844814  0.68027217  1
  H+  H159  1  0.11135328  -0.02971865  0.68345243  1
  H+  H160  1  0.52870907  0.65072050  0.50039982  1
  H+  H161  1  0.36299480  0.01025816  0.97500985  1
  H+  H162  1  0.62232692  1.00845826  0.50903221  1
  H+  H163  1  0.76450586  0.88367739  0.68016243  1
  H+  H164  1  0.53576900  0.61395694  0.13688768  1
  H+  H165  1  0.63691791  0.37411687  0.65857117  1
  H+  H166  1  0.78916495  0.86685790  0.01041872  1
  H+  H167  1  0.11941282  0.63752503  0.49570637  1
  H+  H168  1  0.52263636  0.38471367  0.49584395  1
  H+  H169  1  0.37671838  0.78049732  0.32573102  1
  H+  H170  1  0.73274490  0.35240338  0.18914209  1
  H+  H171  1  0.85180288  0.21826848  0.68944523  1
  H+  H172  1  0.88614723  0.76434965  0.99287293  1
  H+  H173  1  0.95589852  0.60741353  0.31884639  1
  H+  H174  1  0.87339118  0.47196467  0.97878666  1
  H+  H175  1  0.36448735  0.14259685  0.81968767  1
  H+  H176  1  0.38945338  0.62630617  0.67082478  1
  H+  H177  1  0.13924073  0.23829233  0.67856825  1
  H+  H178  1  0.63397374  0.11218555  0.32567709  1
  H+  H179  1  0.38345523  0.28048556  0.82735611  1
  H+  H180  1  0.88183385  0.77416591  0.49965436  1
  H+  H181  1  0.11569201  0.73261373  0.82176612  1
  H+  H182  1  0.53131751  0.93927525  0.17479062  1
  H+  H183  1  0.60378205  0.48368539  0.00786637  1
  H+  H184  1  0.35870061  0.48644065  0.83018027  1
  H+  H185  1  0.13210870  0.86159647  0.66610116  1
  H+  H186  1  0.13769239  0.74864471  0.00365456  1
  H+  H187  1  0.88511736  0.10007392  0.99519885  1
  H+  H188  1  0.27257075  0.12492433  0.66642672  1
  H+  H189  1  0.96604808  0.34106105  0.94668524  1
  H+  H190  1  0.99251387  0.87735557  0.32557790  1
  H+  H191  1  0.58280749  0.86025884  0.81666760  1
  H+  H192  1  0.81864991  0.14885925  0.74316851  1
  H+  H193  1  0.60957071  0.16573703  0.82097488  1
  H+  H194  1  0.76054916  0.89044969  0.50686511  1
  H+  H195  1  0.10460118  0.35915425  0.98418711  1
  H+  H196  1  0.11120858  0.25500585  0.15112492  1
  H+  H197  1  0.64779967  0.36039058  0.19046641  1
  H+  H198  1  0.64551811  0.57805079  0.91251036  1
  H+  H199  1  0.35995195  0.12669315  -0.00700500  1
  H+  H200  1  0.72053014  0.61323402  0.50433335  1
  H+  H201  1  0.87023385  0.01787581  0.50935997  1
  H+  H202  1  0.76438347  0.39073819  0.34744445  1
  H+  H203  1  0.72140521  0.61469785  0.32535099  1
  H+  H204  1  0.64658105  0.71242764  0.99509461  1
  H+  H205  1  0.13786094  0.01758623  0.97864079  1
  H+  H206  1  0.88839478  0.01132962  0.99563728  1
  H+  H207  1  0.11698954  0.22452154  0.83140300  1
  H+  H208  1  0.03144356  0.41222116  0.01913629  1
  H+  H209  1  0.39135821  0.26460466  0.98413793  1
  H+  H210  1  0.36049243  0.86867176  0.15869704  1
  H+  H211  1  0.95987521  0.10582857  0.50740795  1
  H+  H212  1  0.72348486  0.10599847  1.00317349  1
  H+  H213  1  0.76976009  0.62479139  0.15607874  1
  H+  H214  1  0.76557591  0.63535646  0.83789485  1
  H+  H215  1  0.13940776  0.85837602  0.18151155  1
  H+  H216  1  0.11510475  0.73418114  0.16359176  1
  H+  H217  1  0.49274703  0.87678671  0.50212785  1
  H+  H218  1  0.27540882  0.64958153  0.82951416  1
  H+  H219  1  0.97394449  0.11287593  0.17683718  1
  H+  H220  1  0.85966782  0.64869783  0.33027416  1
  H+  H221  1  0.62814380  0.61652056  0.85089613  1
  H+  H222  1  0.67001640  0.34920469  0.59851828  1
  H+  H223  1  0.66975098  0.32639251  0.44106655  1
  H+  H224  1  0.86536197  0.95935602  0.35039830  1
  H+  H225  1  0.08879669  0.22963213  0.34948042  1
  H+  H226  1  0.55036851  0.41315277  1.06173797  1
  H+  H227  1  0.77204622  0.09338888  0.83948430  1
  H+  H228  1  0.08557285  0.61265811  0.33708651  1
  H+  H229  1  0.60725725  0.12159796  0.49562319  1
  H+  H230  1  0.82848643  0.91400899  0.77189728  1
  H+  H231  1  0.88512764  0.86291333  0.68105621  1
  H+  H232  1  0.89223551  1.01766734  0.17587617  1
  H+  H233  1  0.77985914  0.88815037  0.83723934  1
  H+  H234  1  0.36119942  0.50434893  0.67908546  1
  H+  H235  1  0.61199807  0.47711824  0.49712293  1
  H+  H236  1  0.24917599  0.65200532  0.34102253  1
  H+  H237  1  0.15506390  0.28483955  0.50840639  1
  H+  H238  1  0.14037986  0.87011756  0.50667004  1
  H+  H239  1  0.77005919  0.13884832  0.34462806  1
  H+  H240  1  0.30646048  0.86664011  0.98916393  1
  H+  H241  1  0.63286762  0.61357199  0.66139930  1
  H+  H242  1  0.86243441  0.36518946  0.65839395  1
  H+  H243  1  0.11095037  0.38657072  0.48883297  1
  H+  H244  1  0.70127774  0.17381191  0.86372642  1
  H+  H245  1  0.71745552  0.10761718  0.66230094  1
  H+  H246  1  0.47499415  0.36013523  0.33129964  1
  H+  H247  1  0.86802059  0.13091591  0.16494101  1
  H+  H248  1  0.60833372  -0.02277940  0.67309609  1
  H+  H249  1  0.11186797  0.87852705  0.35503361  1
  H+  H250  1  0.48317605  0.61218147  0.32060031  1
  H+  H251  1  0.38411520  0.01514600  0.50105236  1
  H+  H252  1  0.12764083  0.01583213  0.83767288  1
  H+  H253  1  0.47215461  0.50763046  0.44182797  1
  H+  H254  1  0.22541981  0.85343456  0.17953000  1
  H+  H255  1  0.88434596  0.77385230  0.68155427  1
  H+  H256  1  0.48352271  0.89544207  0.01200097  1
  H+  H257  1  0.89387698  0.37483287  0.50414749  1
  H+  H258  1  0.26226548  0.41293650  0.00598120  1
  H+  H259  1  0.94349454  0.92243205  0.30116929  1
  H+  H260  1  0.41677306  0.40632587  0.00089269  1
  H+  H261  1  0.24446503  0.37134210  0.16594231  1
  H+  H262  1  0.78186513  0.89027193  0.16155934  1
  H+  H263  1  0.61277816  0.73613632  0.83453512  1
  H+  H264  1  0.47242701  0.12249336  0.82736690  1
  H+  H265  1  0.17026126  0.07215588  0.27333106  1
  H+  H266  1  0.70218188  0.20703185  0.88511230  1
  H+  H267  1  0.37305732  0.73344407  0.67215627  1
  H+  H268  1  0.85753878  0.22935763  0.49832089  1
  H+  H269  1  1.02580511  0.64349904  0.82278203  1
  H+  H270  1  0.78264518  0.39836403  0.49169388  1
  H+  H271  1  0.89269856  0.53584119  0.50692411  1
  H+  H272  1  0.12118072  0.97370022  0.34297568  1
  H+  H273  1  0.87217611  0.38120290  0.16677851  1
  H+  H274  1  0.84327400  0.43237064  0.43516497  1
  H+  H275  1  0.63355244  0.48251007  0.16924831  1
  H+  H276  1  0.15135089  0.63321744  0.99829989  1
  H+  H277  1  0.51668090  0.39429452  0.82512846  1
  H+  H278  1  0.38719036  0.61802666  0.51791316  1
  H+  H279  1  0.25111360  0.61070255  0.49545581  1
  H+  H280  1  0.87215995  0.10256417  0.66551481  1
  H+  H281  1  0.38054747  0.87655766  0.83583765  1
  H+  H282  1  0.14091086  0.36992270  0.32117903  1
  H+  H283  1  0.10244538  0.68933731  0.06430097  1
  H+  H284  1  0.88489083  0.60416180  0.16097525  1
  H+  H285  1  0.60465444  0.22107674  0.34468346  1
  H+  H286  1  0.29557445  0.57701523  0.45026570  1
  H+  H287  1  0.98080260  0.61499641  1.00592937  1
  H+  H288  1  0.82385357  0.41852008  0.76330115  1
  H+  H289  1  0.10261443  0.43852713  0.10385021  1
  H+  H290  1  0.16393375  0.08176007  0.90275527  1
  H+  H291  1  0.82799099  0.17636280  0.40424415  1
  H+  H292  1  0.21338608  0.36481479  0.83775246  1
  H+  H293  1  0.15229183  0.58677459  0.26604720  1
  H+  H294  1  0.08543451  0.18558148  0.41118799  1
  H+  H295  1  0.02552937  0.87548753  0.15918320  1
  H+  H296  1  0.03797816  0.62104788  0.39648223  1
  H+  H297  1  0.37509714  0.89151891  0.33205074  1
  H+  H298  1  0.17542716  0.60047877  0.90070424  1
  H+  H299  1  0.66198804  0.58251866  0.22732944  1
  H+  H300  1  0.33117705  0.92197118  0.75686913  1
  H+  H301  1  0.37046083  0.42604428  0.09909842  1
  H+  H302  1  0.62735215  0.41659155  0.11740607  1
  H+  H303  1  0.64625874  0.79140924  1.02432950  1
  H+  H304  1  0.58314188  0.92093572  0.44417299  1
  H+  H305  1  0.67604664  0.84563623  0.23319242  1
  H+  H306  1  0.28653460  0.57082712  0.12408108  1
  H+  H307  1  0.32183172  0.43446819  0.74250458  1
  H+  H308  1  0.41705188  0.07425859  0.26801202  1
  H+  H309  1  0.81879593  0.65995800  0.77522861  1
  H+  H310  1  0.40402621  0.06942531  0.58191887  1
  H+  H311  1  0.40107900  0.84544823  0.93247098  1
  H+  H312  1  0.34192079  0.91756892  0.39697952  1
  H+  H313  1  0.04051165  0.88767378  -0.00845681  1
  H+  H314  1  0.08088125  0.66677078  0.73026564  1
  H+  H315  1  0.08655651  0.17354671  0.05477351  1
  H+  H316  1  0.08327667  0.91589850  0.43710352  1
  H+  H317  1  0.67643706  0.82386103  0.91974028  1
  H+  H318  1  0.93763786  0.05284059  0.27423147  1
  H+  H319  1  0.21178725  0.21665995  0.48908392  1
  H+  H320  1  0.86539583  0.46645632  0.16710991  1
  H+  H321  1  0.84414642  0.91355275  0.10296570  1
  H+  H322  1  0.47360279  0.10332149  0.50634858  1
  H+  H323  1  0.48427907  0.35026063  0.98206728  1
  H+  H324  1  0.82672223  0.66779347  0.42957614  1
  H+  H325  1  0.63905378  0.27509213  1.01183556  1
  H+  H326  1  0.01856689  0.88174638  0.68805031  1
  H+  H327  1  0.65831354  0.07839252  0.60111057  1
  H+  H328  1  0.52386770  0.88669460  0.33771888  1
  H+  H329  1  0.62461188  0.87280853  0.51202747  1
  H+  H330  1  0.58384666  0.41955255  0.40222320  1
  H+  H331  1  0.62367055  0.23749519  0.66807406  1
  H+  H332  1  0.66315461  0.58557002  0.56551703  1
  H+  H333  1  0.13744242  0.32815207  0.88907237  1
  H+  H334  1  0.67272986  0.09193728  0.26655051  1
  H+  H335  1  0.43603438  0.58285770  0.22924558  1
  H+  H336  1  0.57212012  0.91011153  0.76019916  1
  H+  H337  1  0.93512884  0.33041546  0.23134264  1
  H+  H338  1  0.31112837  0.68077075  0.39907894  1
  H+  H339  1  0.02523675  0.22484563  0.11579623  1
  H+  H340  1  0.42933207  0.33978289  0.59665424  1
  H+  H341  1  0.41342480  0.33225093  0.88982458  1
  H+  H342  1  0.81864854  0.91352623  0.44706333  1
  H+  H343  1  0.91537664  0.34050300  0.56426131  1
  H+  H344  1  0.51313987  0.12475665  0.00541724  1
  H+  H345  1  0.18485428  0.84545405  0.89430042  1
  H+  H346  1  0.16366420  0.84020676  0.60271481  1
  H+  H347  1  0.81450320  0.27589033  0.62487371  1
  H+  H348  1  0.15750712  0.06457874  0.60954790  1
  H+  H349  1  0.88834414  0.60477074  1.00500004  1
  H+  H350  1  0.63622416  0.60071967  0.15795138  1
  H+  H351  1  0.41436591  0.82782183  0.26245795  1
  H+  H352  1  0.33792809  0.67178181  0.06167510  1
  H+  H353  1  0.58474043  0.18486456  0.75409771  1
  H+  H354  1  0.91253316  0.58229638  0.22362612  1
  H+  H355  1  0.34729257  0.68118036  0.73582350  1
  H+  H356  1  0.10617721  0.17635803  0.73629394  1
  H+  H357  1  0.90066809  0.07386596  0.60623100  1
  H+  H358  1  0.56173575  0.88004245  0.01992628  1
  H+  H359  1  0.07219369  0.41073027  0.39376263  1
  H+  H360  1  0.39601201  0.52236738  0.31625568  1
  H+  H361  1  0.17275400  0.34539480  0.60364134  1
  H+  H362  1  0.77519343  0.40496092  0.67008477  1
  H+  H363  1  0.71295838  0.10403344  0.50970032  1
  H+  H364  1  0.41162910  0.07788523  0.92193957  1
  H+  H365  1  0.58618998  0.67303143  0.73684796  1
  H+  H366  1  0.55837162  0.92997281  0.10759641  1
  H+  H367  1  0.41663295  0.58705402  0.61172503  1
  H+  H368  1  0.58399235  0.67162103  0.39991570  1
  H+  H369  1  0.42315025  0.33066985  0.26885117  1
  H+  H370  1  0.92413652  0.07620240  0.90161520  1
  H+  H371  1  0.31391849  0.11451858  0.08343149  1
  H+  H372  1  0.60424672  0.12982510  1.00767556  1
  H+  H373  1  0.67707993  0.03423038  0.91764931  1
  H+  H374  1  0.05361417  0.39353299  0.72489026  1
  H+  H375  1  0.14855895  0.57095207  0.56628423  1
  H+  H376  1  0.65823285  0.83640919  0.60411324  1
  H+  H377  1  0.66441254  0.32579235  0.27904561  1
  H+  H378  1  0.91612214  0.59366735  0.60313318  1
  H+  H379  1  0.12874225  0.70864568  0.44678678  1
  H+  H380  1  0.41529073  0.59143865  0.89652487  1
  H+  H381  1  0.37048061  1.00580661  0.64891330  1
  H+  H382  1  0.88741503  0.61440466  0.83977762  1
  H+  H383  1  0.27355879  0.13180180  -0.00631402  1
  O2-  O384  1  0.06188399  0.20308541  0.13082806  1
  O2-  O385  1  0.14616320  0.20381928  0.47980057  1
  O2-  O386  1  0.09077586  0.16195023  0.81911486  1
  O2-  O387  1  0.10596662  0.43700472  0.14964606  1
  O2-  O388  1  0.07956099  0.41445373  0.47131675  1
  O2-  O389  1  0.04709288  0.38557595  0.79522622  1
  O2-  O390  1  0.08750509  0.67502613  0.14280032  1
  O2-  O391  1  0.09369550  0.67371450  0.48092259  1
  O2-  O392  1  0.08620884  0.67268516  0.80616971  1
  O2-  O393  1  0.08838333  0.90901298  0.15226063  1
  O2-  O394  1  0.08337494  0.91179374  0.48262209  1
  O2-  O395  1  0.08422206  0.92467641  0.81837313  1
  O2-  O396  1  0.29832938  0.08166984  0.12303835  1
  O2-  O397  1  0.28367841  0.21821431  0.51613551  1
  O2-  O398  1  0.33538681  0.17356017  0.80233519  1
  O2-  O399  1  0.35197735  0.41772781  0.14235667  1
  O2-  O400  1  0.41267917  0.47589941  0.45587830  1
  O2-  O401  1  0.32545628  0.42622298  0.81364558  1
  O2-  O402  1  0.30225350  0.62968136  0.13482013  1
  O2-  O403  1  0.30845150  0.62738012  0.47467463  1
  O2-  O404  1  0.33780613  0.67957849  0.81458442  1
  O2-  O405  1  0.33314736  0.90302686  0.15029820  1
  O2-  O406  1  0.33611685  0.91241021  0.46801643  1
  O2-  O407  1  0.33363446  0.92817225  0.80210900  1
  O2-  O408  1  0.58391662  0.16656244  0.14849191  1
  O2-  O409  1  0.57581872  0.15108228  0.47764902  1
  O2-  O410  1  0.57736852  0.18965431  0.80133744  1
  O2-  O411  1  0.60798538  0.41782926  0.15865595  1
  O2-  O412  1  0.58471445  0.41730337  0.48025388  1
  O2-  O413  1  0.57915581  0.42718213  0.81280759  1
  O2-  O414  1  0.59388204  0.63476858  0.12036195  1
  O2-  O415  1  0.58564529  0.67612516  0.47985822  1
  O2-  O416  1  0.58352005  0.67770953  0.81762717  1
  O2-  O417  1  0.57587220  0.93602067  0.15156350  1
  O2-  O418  1  0.57848671  0.92006561  0.48881724  1
  O2-  O419  1  0.56690428  0.90340414  0.80643143  1
  O2-  O420  1  0.84910675  0.16940575  0.14572141  1
  O2-  O421  1  0.82371267  0.16923488  0.48355400  1
  O2-  O422  1  0.82486899  0.13867397  0.81845872  1
  O2-  O423  1  0.83138743  0.40253594  0.16452512  1
  O2-  O424  1  0.84483147  0.43093605  0.48091012  1
  O2-  O425  1  0.81334568  0.40944394  0.80819778  1
  O2-  O426  1  0.82871097  0.65334110  0.13768238  1
  O2-  O427  1  0.82232444  0.66400098  0.47473671  1
  O2-  O428  1  0.82455072  0.66459093  0.82063411  1
  O2-  O429  1  0.84366544  0.91584621  0.14828716  1
  O2-  O430  1  0.82195939  0.91922441  0.49223906  1
  O2-  O431  1  0.83731943  0.91601760  0.81770126  1
  O2-  O432  1  0.17067840  0.08118426  0.18919093  1
  O2-  O433  1  0.14492551  0.06546721  0.53719781  1
  O2-  O434  1  0.16186742  0.08021348  0.85267565  1
  O2-  O435  1  0.18467066  0.34685234  0.18232321  1
  O2-  O436  1  0.16994322  0.34535873  0.52450667  1
  O2-  O437  1  0.15102333  0.32591796  0.84482469  1
  O2-  O438  1  0.16216387  0.59783241  0.18981025  1
  O2-  O439  1  0.15560538  0.57649219  0.51899826  1
  O2-  O440  1  0.18028985  0.60264736  0.85586330  1
  O2-  O441  1  0.16600996  0.82410337  0.19609583  1
  O2-  O442  1  0.17573658  0.84503261  0.52401516  1
  O2-  O443  1  0.17629409  0.84277994  0.84841741  1
  O2-  O444  1  0.42113795  0.07316911  0.19408821  1
  O2-  O445  1  0.41244098  0.07306297  0.52048880  1
  O2-  O446  1  0.41296044  0.08973658  0.84394577  1
  O2-  O447  1  0.43594438  0.33361063  0.19476386  1
  O2-  O448  1  0.42845853  0.34847835  0.51939013  1
  O2-  O449  1  0.41185158  0.33990291  0.84466291  1
  O2-  O450  1  0.43685350  0.58171188  0.18231649  1
  O2-  O451  1  0.42499596  0.59666572  0.53368728  1
  O2-  O452  1  0.41530478  0.59253878  0.85101640  1
  O2-  O453  1  0.41070016  0.79653661  0.18210789  1
  O2-  O454  1  0.42309255  0.84267303  0.51502927  1
  O2-  O455  1  0.40882777  0.84711918  0.85634208  1
  O2-  O456  1  0.68573926  0.10510279  0.18555070  1
  O2-  O457  1  0.65289733  0.07382019  0.52502157  1
  O2-  O458  1  0.69217789  0.01080390  0.88134416  1
  O2-  O459  1  0.67096883  0.32261521  0.20407598  1
  O2-  O460  1  0.66824619  0.33457523  0.48492194  1
  O2-  O461  1  0.65732752  0.34809210  0.83925196  1
  O2-  O462  1  0.66869085  0.57595820  0.18325184  1
  O2-  O463  1  0.65989242  0.58356689  0.51993027  1
  O2-  O464  1  0.65234247  0.58093056  0.86608990  1
  O2-  O465  1  0.68227196  0.85365300  0.18821602  1
  O2-  O466  1  0.65741983  0.84268952  0.52850819  1
  O2-  O467  1  0.67919789  0.84961156  0.87904509  1
  O2-  O468  1  0.91675470  0.07618201  0.19515254  1
  O2-  O469  1  0.90134727  0.08102535  0.52261097  1
  O2-  O470  1  0.92814692  0.07941096  0.85615339  1
  O2-  O471  1  0.94353985  0.33280346  0.18684425  1
  O2-  O472  1  0.92092083  0.34121333  0.51933653  1
  O2-  O473  1  0.87575185  0.30367437  0.84477836  1
  O2-  O474  1  0.91869104  0.57885306  0.17887801  1
  O2-  O475  1  0.91849531  0.59646000  0.52159947  1
  O2-  O476  1  0.92501065  0.59000520  0.84852370  1
  O2-  O477  1  0.91229405  0.81658136  0.18218004  1
  O2-  O478  1  0.91886385  0.83433328  0.51302402  1
  O2-  O479  1  0.91977572  0.83120484  0.85553764  1
  O2-  O480  1  0.16741673  0.06733802  0.31793234  1
  O2-  O481  1  0.16957559  0.07105236  0.65496448  1
  O2-  O482  1  0.16816298  0.08326164  0.96453989  1
  O2-  O483  1  0.17286803  0.33985465  0.31112434  1
  O2-  O484  1  0.17306456  0.34753119  0.64906022  1
  O2-  O485  1  0.09020116  0.31105375  0.95576417  1
  O2-  O486  1  0.14753669  0.58127722  0.31161188  1
  O2-  O487  1  0.14032048  0.56647099  0.63395479  1
  O2-  O488  1  0.17615985  0.59617853  0.98415367  1
  O2-  O489  1  0.15655966  0.81085065  0.36279296  1
  O2-  O490  1  0.16277901  0.83293041  0.64784758  1
  O2-  O491  1  0.19028397  0.84756967  0.96954142  1
  O2-  O492  1  0.41617257  0.07172423  0.31419913  1
  O2-  O493  1  0.39975599  0.06723673  0.63179276  1
  O2-  O494  1  0.40664681  0.07135704  0.96721276  1
  O2-  O495  1  0.41566523  0.33042095  0.31454552  1
  O2-  O496  1  0.43045120  0.33295027  0.64178558  1
  O2-  O497  1  0.42434413  0.32325792  0.96579497  1
  O2-  O498  1  0.42685811  0.58146449  0.29923916  1
  O2-  O499  1  0.41493966  0.58664933  0.65717359  1
  O2-  O500  1  0.42610638  0.59119182  0.97336058  1
  O2-  O501  1  0.41686444  0.83887514  0.30671306  1
  O2-  O502  1  0.41512728  0.83696531  0.63915486  1
  O2-  O503  1  0.39386408  0.84281704  0.97805369  1
  O2-  O504  1  0.66593312  0.08337058  0.31138170  1
  O2-  O505  1  0.65723071  0.08035845  0.64705410  1
  O2-  O506  1  0.66417236  0.07729815  0.98575627  1
  O2-  O507  1  0.66131561  0.32792332  0.32502681  1
  O2-  O508  1  0.67227239  0.34789106  0.64278143  1
  O2-  O509  1  0.68047614  0.33726585  1.01059003  1
  O2-  O510  1  0.66063719  0.57949848  0.31175076  1
  O2-  O511  1  0.66262662  0.58415422  0.64375001  1
  O2-  O512  1  0.63855144  0.57014047  0.98561584  1
  O2-  O513  1  0.66353337  0.83073613  0.31239048  1
  O2-  O514  1  0.65920222  0.83588696  0.65002340  1
  O2-  O515  1  0.67442772  0.77781476  0.99187565  1
  O2-  O516  1  0.94934190  0.03265760  0.31300239  1
  O2-  O517  1  0.89913136  0.06959406  0.65104290  1
  O2-  O518  1  0.91697844  0.07166589  0.97960877  1
  O2-  O519  1  0.87789393  0.32100816  0.30524638  1
  O2-  O520  1  0.87143089  0.31794976  0.63984709  1
  O2-  O521  1  0.92386637  0.32986119  0.97839215  1
  O2-  O522  1  0.89641221  0.58446494  0.30240092  1
  O2-  O523  1  0.91393272  0.58931558  0.64829154  1
  O2-  O524  1  0.91918897  0.57285896  1.01017984  1
  O2-  O525  1  0.93589157  0.86411502  0.30573076  1
  O2-  O526  1  0.92030613  0.83577395  0.67219914  1
  O2-  O527  1  0.92472645  0.82576119  0.97992407  1
  O2-  O528  1  0.08450625  0.16314080  0.01043879  1
  O2-  O529  1  0.04948201  0.18127825  0.37560329  1
  O2-  O530  1  0.12022516  0.17941442  0.69274504  1
  O2-  O531  1  0.09307580  0.43827433  0.02923452  1
  O2-  O532  1  0.07307831  0.41384293  0.34805273  1
  O2-  O533  1  0.06141470  0.39868538  0.67844438  1
  O2-  O534  1  0.10574608  0.68761892  0.01907695  1
  O2-  O535  1  0.04933107  0.63745396  0.35351774  1
  O2-  O536  1  0.07571585  0.66352624  0.68447076  1
  O2-  O537  1  0.10293908  0.92919588  -0.00578203  1
  O2-  O538  1  0.08292263  0.91293652  0.36022054  1
  O2-  O539  1  0.08207071  0.91029836  0.70035805  1
  O2-  O540  1  0.33207846  0.15762099  0.01205937  1
  O2-  O541  1  0.32989533  0.16163162  0.35850221  1
  O2-  O542  1  0.33636708  0.15559971  0.67679888  1
  O2-  O543  1  0.42236319  0.45643002  0.02440361  1
  O2-  O544  1  0.34071798  0.41850076  0.35056534  1
  O2-  O545  1  0.32210427  0.43941141  0.69600984  1
  O2-  O546  1  0.35067722  0.68277402  0.01761017  1
  O2-  O547  1  0.30593455  0.69632409  0.35711663  1
  O2-  O548  1  0.35107462  0.67577741  0.69088752  1
  O2-  O549  1  0.27863587  0.90203221  -0.00570516  1
  O2-  O550  1  0.34646961  0.92381902  0.35017509  1
  O2-  O551  1  0.32952651  0.91491463  0.67813595  1
  O2-  O552  1  0.57089050  0.15558888  0.02448510  1
  O2-  O553  1  0.57506022  0.15835227  0.35511181  1
  O2-  O554  1  0.59365946  0.18052340  0.68801740  1
  O2-  O555  1  0.57834059  0.41785082  0.02277219  1
  O2-  O556  1  0.58381257  0.41596217  0.35677722  1
  O2-  O557  1  0.58437317  0.41822913  0.68413673  1
  O2-  O558  1  0.58290854  0.60548349  0.00575341  1
  O2-  O559  1  0.58420582  0.66683665  0.35473353  1
  O2-  O560  1  0.58443061  0.66950458  0.69157334  1
  O2-  O561  1  0.54276184  0.91995731  0.03237297  1
  O2-  O562  1  0.58341106  0.91484913  0.35380722  1
  O2-  O563  1  0.57671682  0.91630270  0.68810147  1
  O2-  O564  1  0.83619161  0.15954091  0.02086116  1
  O2-  O565  1  0.82953391  0.17882636  0.35889762  1
  O2-  O566  1  0.81838575  0.15637139  0.69789583  1
  O2-  O567  1  0.84443324  0.41166763  -0.03729951  1
  O2-  O568  1  0.82679153  0.42631081  0.35926526  1
  O2-  O569  1  0.83486163  0.42923903  0.68636393  1
  O2-  O570  1  0.81558452  0.66138759  0.01522763  1
  O2-  O571  1  0.83120315  0.67902110  0.34926426  1
  O2-  O572  1  0.82227590  0.66003471  0.69784047  1
  O2-  O573  1  0.84843291  0.90843754  0.02306265  1
  O2-  O574  1  0.82062112  0.90309619  0.36930667  1
  O2-  O575  1  0.82327989  0.91366149  0.69811400  1
