# generated using pymatgen
data_H2O
_symmetry_space_group_name_H-M   'P 1'
_cell_length_a   17.97636071
_cell_length_b   17.96980110
_cell_length_c   21.98740789
_cell_angle_alpha   90.01182813
_cell_angle_beta   89.97947784
_cell_angle_gamma   119.99286190
_symmetry_Int_Tables_number   1
_chemical_formula_structural   H2O
_chemical_formula_sum   'H384 O192'
_cell_volume   6151.49838604
_cell_formula_units_Z   192
loop_
 _symmetry_equiv_pos_site_id
 _symmetry_equiv_pos_as_xyz
  1  'x, y, z'
loop_
 _atom_type_symbol
 _atom_type_oxidation_number
  H+  1.0
  O2-  -2.0
loop_
 _atom_site_type_symbol
 _atom_site_label
 _atom_site_symmetry_multiplicity
 _atom_site_fract_x
 _atom_site_fract_y
 _atom_site_fract_z
 _atom_site_occupancy
  H+  H0  1  0.12749214  0.52138462  0.66437805  1
  H+  H1  1  0.83795558  0.16093525  0.07129143  1
  H+  H2  1  0.11902588  0.88911084  0.48531902  1
  H+  H3  1  0.39772368  0.02589455  0.83915772  1
  H+  H4  1  0.17808307  0.84348713  0.23376717  1
  H+  H5  1  0.92492144  0.57229210  0.62792525  1
  H+  H6  1  0.63075841  0.69818425  0.33997785  1
  H+  H7  1  0.12957560  0.30558315  0.05037979  1
  H+  H8  1  0.87311046  0.64474848  0.45717803  1
  H+  H9  1  0.25230468  0.88341589  0.84114241  1
  H+  H10  1  0.97461349  0.08584747  0.48839233  1
  H+  H11  1  0.54132091  0.88454516  0.35827887  1
  H+  H12  1  0.37247910  0.64598557  0.49503856  1
  H+  H13  1  0.34351161  0.47491722  0.67285380  1
  H+  H14  1  0.15686581  0.32201925  0.52442530  1
  H+  H15  1  0.73021192  0.09597713  0.18148633  1
  H+  H16  1  0.49272787  0.86846353  0.83219795  1
  H+  H17  1  0.99103106  0.38616674  0.50018690  1
  H+  H18  1  0.41659619  0.54355889  0.49843947  1
  H+  H19  1  0.98386055  0.86330562  0.50021770  1
  H+  H20  1  0.23822413  0.62250857  0.85073884  1
  H+  H21  1  0.65645025  0.38533452  0.65414215  1
  H+  H22  1  0.64227455  0.86441792  0.18913349  1
  H+  H23  1  0.37463540  0.78533190  0.66343466  1
  H+  H24  1  0.88047543  0.36764798  0.31258021  1
  H+  H25  1  0.09663771  0.20842892  0.67905850  1
  H+  H26  1  0.50114992  0.41252819  0.16101874  1
  H+  H27  1  0.52498716  0.14607488  0.82164666  1
  H+  H28  1  0.75562789  0.38813539  0.32555410  1
  H+  H29  1  0.62081865  0.27567433  0.33082528  1
  H+  H30  1  0.64796124  0.83500604  0.34496829  1
  H+  H31  1  0.27429162  0.88395328  0.33790479  1
  H+  H32  1  0.59684926  0.88189356  1.02810625  1
  H+  H33  1  0.88902546  0.02549019  0.99675985  1
  H+  H34  1  0.85757702  0.11453913  0.63891097  1
  H+  H35  1  0.46319711  0.65427001  0.69178853  1
  H+  H36  1  0.25511100  0.64045065  0.67772981  1
  H+  H37  1  0.13881251  0.77160753  0.32652419  1
  H+  H38  1  0.50475695  0.38233343  0.34415811  1
  H+  H39  1  0.58288734  0.75699232  0.89079100  1
  H+  H40  1  0.76539928  0.39869784  0.15965703  1
  H+  H41  1  0.36000150  0.89737397  0.67116094  1
  H+  H42  1  0.13692851  0.81998645  0.92547722  1
  H+  H43  1  0.57147305  0.41364067  0.96242880  1
  H+  H44  1  0.22831493  0.10878491  0.33400506  1
  H+  H45  1  0.35553123  0.43051722  0.07139458  1
  H+  H46  1  0.93080045  0.33853267  0.95208450  1
  H+  H47  1  0.11104388  0.13206787  0.32821042  1
  H+  H48  1  0.78745869  0.35670565  0.01609766  1
  H+  H49  1  0.48276023  0.86719540  0.19055181  1
  H+  H50  1  0.23088152  0.86479626  0.50554164  1
  H+  H51  1  0.06810844  0.36954917  0.51332975  1
  H+  H52  1  0.13827432  0.10563097  0.84744556  1
  H+  H53  1  0.11815381  0.39696179  0.82423762  1
  H+  H54  1  0.59707010  0.39169223  0.33457631  1
  H+  H55  1  0.32393728  0.15203693  0.41543018  1
  H+  H56  1  0.36864505  0.89014649  0.49356076  1
  H+  H57  1  0.34404195  0.37884118  0.17179898  1
  H+  H58  1  0.59966313  0.03354704  0.01946751  1
  H+  H59  1  0.80436536  0.99019353  0.06790696  1
  H+  H60  1  0.61930955  0.11913243  0.17828888  1
  H+  H61  1  0.11372301  0.11669229  0.01653114  1
  H+  H62  1  0.37823293  0.88768248  0.82303186  1
  H+  H63  1  0.58344715  0.17349334  0.76047903  1
  H+  H64  1  0.89897171  0.76880645  0.65017214  1
  H+  H65  1  -0.04389465  0.09898972  0.17473930  1
  H+  H66  1  0.86581610  0.51237095  0.00194887  1
  H+  H67  1  0.85997143  0.04652226  0.84991983  1
  H+  H68  1  0.42615430  0.49116087  0.35399757  1
  H+  H69  1  0.70546370  0.11587045  0.50936096  1
  H+  H70  1  0.78521921  0.39136901  0.83996443  1
  H+  H71  1  0.36646374  0.40264311  0.65938952  1
  H+  H72  1  0.76435879  0.39443925  0.47289188  1
  H+  H73  1  0.60472680  0.53239964  0.33330529  1
  H+  H74  1  0.39492797  0.61753491  0.82196757  1
  H+  H75  1  -0.03932147  0.61274296  0.32396638  1
  H+  H76  1  0.40172494  0.33028981  0.90660876  1
  H+  H77  1  0.29402335  0.65582815  0.13030035  1
  H+  H78  1  0.11267523  0.26535430  0.31885845  1
  H+  H79  1  0.08490939  0.19312097  0.51521599  1
  H+  H80  1  0.16812174  0.57885922  0.29481572  1
  H+  H81  1  0.38494061  0.27765999  0.84041189  1
  H+  H82  1  0.41049102  0.48873867  0.32199433  1
  H+  H83  1  0.29150745  0.46616127  0.99568264  1
  H+  H84  1  0.36454450  0.73036917  0.50082161  1
  H+  H85  1  0.48269971  0.46256959  0.61159090  1
  H+  H86  1  0.20010825  0.45864563  0.99353477  1
  H+  H87  1  0.14184814  0.78042420  0.66335121  1
  H+  H88  1  0.87165522  0.96752704  0.45307088  1
  H+  H89  1  0.13770502  0.85992762  0.32600765  1
  H+  H90  1  0.07725448  0.70168423  0.01314387  1
  H+  H91  1  0.64806147  0.73705002  0.51326143  1
  H+  H92  1  0.87753181  0.63414946  0.68472530  1
  H+  H93  1  0.72188781  0.10865355  0.60750113  1
  H+  H94  1  0.64362911  0.32324735  0.26650696  1
  H+  H95  1  0.23453643  0.11456442  0.17423568  1
  H+  H96  1  0.88113303  0.87380965  0.81218142  1
  H+  H97  1  0.06302152  0.14148998  0.73316072  1
  H+  H98  1  0.86578559  0.60189059  1.00496894  1
  H+  H99  1  0.69112207  0.40767802  0.08441667  1
  H+  H100  1  0.50330517  0.38233351  0.82958970  1
  H+  H101  1  0.79098913  0.92981336  0.81143993  1
  H+  H102  1  0.58306676  0.42593372  0.42663064  1
  H+  H103  1  0.01949559  0.89202708  0.01204395  1
  H+  H104  1  0.77864353  0.87393223  0.17773733  1
  H+  H105  1  0.34959060  0.65510739  0.67222785  1
  H+  H106  1  0.59687014  0.14120420  0.50820587  1
  H+  H107  1  0.92911651  0.91317275  0.36817233  1
  H+  H108  1  0.36301903  0.13570845  0.66981450  1
  H+  H109  1  0.63495338  0.77239716  0.18477178  1
  H+  H110  1  0.85575844  0.36283720  0.48680228  1
  H+  H111  1  0.57615035  0.17048535  0.40942593  1
  H+  H112  1  0.39216727  0.51960005  0.82246662  1
  H+  H113  1  0.56442469  0.65056492  0.64412893  1
  H+  H114  1  0.37365514  0.13620959  0.16285432  1
  H+  H115  1  0.32544783  0.40341118  0.44094295  1
  H+  H116  1  0.27052832  0.89524680  0.67594533  1
  H+  H117  1  0.13203231  0.10520401  0.66113198  1
  H+  H118  1  0.13607144  0.02277481  0.32492963  1
  H+  H119  1  0.38800081  1.01445062  -0.00677867  1
  H+  H120  1  0.35310661  0.21290757  0.49112933  1
  H+  H121  1  0.63953400  0.52306247  0.49629314  1
  H+  H122  1  0.07966312  0.91466062  0.39320760  1
  H+  H123  1  0.96824610  0.09660892  0.64873349  1
  H+  H124  1  0.92443083  0.96676522  0.78403905  1
  H+  H125  1  0.61778953  0.39599008  0.48546759  1
  H+  H126  1  0.81008918  0.21472281  0.48014682  1
  H+  H127  1  0.11168623  0.14095491  0.16993862  1
  H+  H128  1  0.44064864  0.62529765  0.98864976  1
  H+  H129  1  0.65178594  0.34345068  0.88346723  1
  H+  H130  1  0.61217765  0.62954573  0.80884778  1
  H+  H131  1  0.31851401  0.59900292  -0.00281597  1
  H+  H132  1  0.61642026  -0.02135678  0.18481732  1
  H+  H133  1  0.82776175  0.67637306  0.37996501  1
  H+  H134  1  0.88139641  0.77297825  1.00040179  1
  H+  H135  1  0.12185620  0.64371648  0.68008065  1
  H+  H136  1  0.87850985  0.40136139  0.84228134  1
  H+  H137  1  0.27568832  0.64329508  0.35314796  1
  H+  H138  1  0.02967742  0.38558630  0.01213716  1
  H+  H139  1  0.11180080  -0.02576996  0.67092794  1
  H+  H140  1  0.85970287  0.71692158  0.83060878  1
  H+  H141  1  0.20138877  0.34501776  0.33163385  1
  H+  H142  1  0.62085106  0.16971736  1.01986599  1
  H+  H143  1  0.23220041  0.10868658  0.50234642  1
  H+  H144  1  0.14885849  0.02003865  0.99860052  1
  H+  H145  1  0.61349064  0.99331195  0.81318554  1
  H+  H146  1  0.39123514  0.86358119  0.18420872  1
  H+  H147  1  0.15617404  0.34530021  0.23118634  1
  H+  H148  1  0.78619116  0.64322730  0.47797697  1
  H+  H149  1  0.91909665  0.09391733  0.90785909  1
  H+  H150  1  -0.01174413  0.61393928  0.01052031  1
  H+  H151  1  0.27537755  0.87244349  0.01139481  1
  H+  H152  1  -0.03131569  0.83807588  0.83835564  1
  H+  H153  1  0.88822721  0.53051073  0.45215749  1
  H+  H154  1  0.36913933  0.14006628  0.82900301  1
  H+  H155  1  0.18161964  0.61129379  0.06898656  1
  H+  H156  1  0.12489949  0.72982319  0.17367320  1
  H+  H157  1  0.11384820  0.12568259  0.49631516  1
  H+  H158  1  0.61066092  0.14113575  0.35333437  1
  H+  H159  1  0.10198595  0.38393789  0.34941221  1
  H+  H160  1  0.71804278  0.87844858  1.02118781  1
  H+  H161  1  0.28189588  0.88945788  0.16506058  1
  H+  H162  1  0.86893259  0.15975570  0.84728246  1
  H+  H163  1  0.63605634  0.92101976  0.80069238  1
  H+  H164  1  0.62995108  0.52037072  0.83286318  1
  H+  H165  1  0.58085358  0.92358415  0.12302339  1
  H+  H166  1  0.37130430  0.24853998  0.34500049  1
  H+  H167  1  0.74452242  0.87498251  0.53495510  1
  H+  H168  1  0.41805332  0.65429324  0.32705761  1
  H+  H169  1  0.90620260  0.87518112  0.19759546  1
  H+  H170  1  0.62978242  0.74125079  0.03446631  1
  H+  H171  1  0.85420134  0.25445934  0.16483332  1
  H+  H172  1  0.14249175  0.50955259  0.13450725  1
  H+  H173  1  0.72251916  0.60611575  0.83080185  1
  H+  H174  1  0.39011396  0.61483144  0.16987386  1
  H+  H175  1  0.60322989  0.38731893  0.05035145  1
  H+  H176  1  0.21441465  0.35802556  0.67027930  1
  H+  H177  1  0.48728921  0.38784968  0.99671377  1
  H+  H178  1  0.98733044  0.38125930  0.85491751  1
  H+  H179  1  0.88552634  0.25634608  0.64888607  1
  H+  H180  1  0.10922243  0.63789982  0.34332194  1
  H+  H181  1  0.11849470  0.72996255  0.49381658  1
  H+  H182  1  0.85854467  0.08171355  0.16574515  1
  H+  H183  1  0.66751043  0.61860803  0.64630445  1
  H+  H184  1  0.14987626  0.87451461  0.17403594  1
  H+  H185  1  0.97917505  0.61701865  0.46056468  1
  H+  H186  1  0.74216650  0.38006229  0.65485013  1
  H+  H187  1  0.15333731  0.63516919  0.13305082  1
  H+  H188  1  0.88308935  0.00558051  0.64174252  1
  H+  H189  1  0.37289446  0.22394689  0.00331155  1
  H+  H190  1  0.99528129  0.87737678  0.18749068  1
  H+  H191  1  0.09993304  0.85909315  0.81213527  1
  H+  H192  1  0.60715740  0.13737526  0.65760923  1
  H+  H193  1  0.48534103  0.10844552  0.18215449  1
  H+  H194  1  0.98683759  0.10339975  0.99795604  1
  H+  H195  1  0.10276035  0.21117773  0.81792313  1
  H+  H196  1  0.62818542  0.32713867  0.15997650  1
  H+  H197  1  0.30679685  0.41684576  0.50880650  1
  H+  H198  1  0.38185335  0.73402071  0.15481952  1
  H+  H199  1  0.51045929  0.14450397  0.50058906  1
  H+  H200  1  0.88417165  0.14814706  1.01287092  1
  H+  H201  1  0.55443628  0.65227610  0.49812120  1
  H+  H202  1  0.53428551  0.40451612  0.66571981  1
  H+  H203  1  0.61908834  0.80172770  0.88357801  1
  H+  H204  1  0.89568582  0.29427338  0.85866883  1
  H+  H205  1  0.44000273  0.53824614  0.00060121  1
  H+  H206  1  0.62108817  0.89164030  0.51818182  1
  H+  H207  1  0.96567514  0.06228765  0.34546958  1
  H+  H208  1  0.63287279  0.54911398  0.98834738  1
  H+  H209  1  0.36861479  0.38693101  0.82903322  1
  H+  H210  1  0.34870869  0.24753513  0.18607671  1
  H+  H211  1  0.74434564  0.86294601  0.62695919  1
  H+  H212  1  0.28842584  0.13284861  0.00859939  1
  H+  H213  1  0.64444507  0.63264290  0.50402021  1
  H+  H214  1  0.38399596  1.02945035  0.50587274  1
  H+  H215  1  0.02390325  0.88307032  0.66199342  1
  H+  H216  1  0.37960127  0.02850327  0.65788619  1
  H+  H217  1  0.22141956  0.37366787  0.17451177  1
  H+  H218  1  0.37772306  0.86659525  0.33152204  1
  H+  H219  1  0.90454235  0.27259395  1.01080580  1
  H+  H220  1  0.01158552  0.12899744  0.83001573  1
  H+  H221  1  0.48531742  0.72171464  0.64113081  1
  H+  H222  1  0.36665615  -0.02565722  0.33759254  1
  H+  H223  1  0.84660336  0.47789084  0.32494593  1
  H+  H224  1  0.03314199  0.64047878  0.68850013  1
  H+  H225  1  0.13628568  0.86648318  0.65877363  1
  H+  H226  1  0.87078014  0.87058446  0.64709031  1
  H+  H227  1  0.32262718  0.32567140  0.36414299  1
  H+  H228  1  -0.01531555  0.62230053  0.83187162  1
  H+  H229  1  0.75569309  0.63682542  0.33053624  1
  H+  H230  1  0.89053970  0.52494802  0.83551635  1
  H+  H231  1  0.87272533  0.74495725  0.17430462  1
  H+  H232  1  0.88532763  0.38755631  0.02220368  1
  H+  H233  1  0.63433544  0.24760925  0.18026566  1
  H+  H234  1  0.81797003  0.41233354  0.40934918  1
  H+  H235  1  0.47902741  0.86182062  0.51371143  1
  H+  H236  1  0.88939302  0.32303088  0.21570501  1
  H+  H237  1  0.10750852  0.48745840  0.00981626  1
  H+  H238  1  0.79052307  0.63393339  0.67067645  1
  H+  H239  1  0.51753634  0.13234299  0.66791803  1
  H+  H240  1  0.54678136  0.64134501  1.01888097  1
  H+  H241  1  0.47409634  0.10747074  0.33537438  1
  H+  H242  1  0.65880275  0.30547476  1.01958302  1
  H+  H243  1  0.63025557  0.11901513  0.83097689  1
  H+  H244  1  0.13601867  0.52087953  0.35320235  1
  H+  H245  1  0.88580667  0.86378695  0.99494876  1
  H+  H246  1  0.17159552  0.30635230  1.05082947  1
  H+  H247  1  0.15874265  0.32332017  0.76194913  1
  H+  H248  1  0.59800251  0.98281335  0.64922748  1
  H+  H249  1  0.61404670  0.64035672  0.17336614  1
  H+  H250  1  0.39394158  0.02367055  0.17849602  1
  H+  H251  1  0.35539884  0.12509557  0.35020785  1
  H+  H252  1  0.87243827  0.61309577  0.31637042  1
  H+  H253  1  0.09625783  0.87595399  1.00656554  1
  H+  H254  1  0.17867128  0.08255490  0.94048484  1
  H+  H255  1  0.49092691  0.61391897  0.80967022  1
  H+  H256  1  0.58638997  0.37410139  0.81516483  1
  H+  H257  1  0.73115128  0.63607699  0.18123479  1
  H+  H258  1  0.22257187  0.60400746  0.51026171  1
  H+  H259  1  0.74966559  0.05799386  0.11161285  1
  H+  H260  1  0.12258167  -0.01490325  0.16172032  1
  H+  H261  1  0.86660206  0.37463687  0.68389732  1
  H+  H262  1  0.88529611  0.61980549  0.82916823  1
  H+  H263  1  0.89712176  0.51214972  0.68521010  1
  H+  H264  1  0.92754238  0.33553687  0.60411493  1
  H+  H265  1  0.12982937  0.41236593  0.15570538  1
  H+  H266  1  0.11776724  0.73323719  0.83190620  1
  H+  H267  1  0.46807069  0.87376346  0.65632938  1
  H+  H268  1  0.37801483  0.76950965  0.33642225  1
  H+  H269  1  0.22569875  0.35879317  0.81500644  1
  H+  H270  1  0.46867636  0.85216049  0.99448888  1
  H+  H271  1  0.52167398  0.10020548  0.01753947  1
  H+  H272  1  0.39942049  0.36965951  0.49749232  1
  H+  H273  1  0.01838251  0.38172361  0.68302107  1
  H+  H274  1  0.12689825  0.36390825  0.67969486  1
  H+  H275  1  0.53989880  0.40827301  0.15433971  1
  H+  H276  1  0.71636263  0.11824073  0.84491708  1
  H+  H277  1  0.39840205  0.10855009  0.99623255  1
  H+  H278  1  0.51823191  0.63426491  0.16988238  1
  H+  H279  1  0.77333400  0.64962122  0.01205599  1
  H+  H280  1  0.36211757  0.47678417  0.16932193  1
  H+  H281  1  0.23147116  0.11664524  0.84536716  1
  H+  H282  1  0.11668968  0.63925326  0.49337971  1
  H+  H283  1  0.36034303  0.22319116  0.67266033  1
  H+  H284  1  0.37445042  0.39653075  0.00738633  1
  H+  H285  1  0.11871896  0.97814682  0.48574798  1
  H+  H286  1  0.63148246  0.28256916  0.50354562  1
  H+  H287  1  0.87632415  0.54126687  0.16255884  1
  H+  H288  1  0.57841593  0.42346874  0.73107091  1
  H+  H289  1  0.16978991  0.83672703  0.56407251  1
  H+  H290  1  0.41367987  0.83071412  0.27040821  1
  H+  H291  1  0.91134272  0.82474553  0.89985247  1
  H+  H292  1  0.92694748  0.82451120  0.58541908  1
  H+  H293  1  0.97904352  0.86755592  0.28838097  1
  H+  H294  1  0.34045930  0.68027416  0.40916986  1
  H+  H295  1  0.36713726  0.66372572  0.05270998  1
  H+  H296  1  0.65614896  0.52468113  0.65455854  1
  H+  H297  1  0.64555058  0.26521095  0.84422472  1
  H+  H298  1  0.61125599  0.97552897  0.51445263  1
  H+  H299  1  0.81992058  0.42793493  0.09839490  1
  H+  H300  1  0.10328823  0.22504127  0.16401719  1
  H+  H301  1  0.59686054  0.91269353  0.41837716  1
  H+  H302  1  0.91411068  0.59140158  0.22479876  1
  H+  H303  1  0.89614541  0.77380124  0.49668760  1
  H+  H304  1  0.59133309  0.67365744  0.09462570  1
  H+  H305  1  0.38219225  0.30785356  0.28726296  1
  H+  H306  1  0.64982552  0.73845327  0.64370840  1
  H+  H307  1  0.34656811  0.16672526  0.10159802  1
  H+  H308  1  0.83692058  0.66440184  0.76649493  1
  H+  H309  1  0.12774438  0.51858783  0.51161274  1
  H+  H310  1  0.44083616  0.60117901  0.55818433  1
  H+  H311  1  0.06273733  0.88684360  0.75608007  1
  H+  H312  1  0.83862843  0.40575978  0.74464155  1
  H+  H313  1  0.33769387  0.91730476  0.43395599  1
  H+  H314  1  0.16197654  0.59067516  0.94802797  1
  H+  H315  1  0.34342201  0.41412749  0.76485144  1
  H+  H316  1  0.67001969  0.81433849  0.28026973  1
  H+  H317  1  0.27662871  0.25260131  0.22145722  1
  H+  H318  1  0.82207430  0.91933121  0.09260678  1
  H+  H319  1  0.03939881  0.76310923  0.94256846  1
  H+  H320  1  0.09564311  0.67661525  0.77161961  1
  H+  H321  1  0.37240347  0.11487832  0.50354440  1
  H+  H322  1  0.40722507  0.08670753  0.59641978  1
  H+  H323  1  0.07519622  0.14392107  0.07358570  1
  H+  H324  1  0.38049069  0.73016243  0.82758073  1
  H+  H325  1  0.59522782  0.66421863  0.74560759  1
  H+  H326  1  0.79843749  0.12453901  0.68744928  1
  H+  H327  1  0.68248585  0.08361376  0.25016200  1
  H+  H328  1  0.65562392  0.83346160  0.96313304  1
  H+  H329  1  0.73805410  0.92993836  0.86865287  1
  H+  H330  1  -0.02903276  0.37491777  0.31699384  1
  H+  H331  1  0.08765457  0.92048958  0.10465478  1
  H+  H332  1  0.15651175  0.28685789  0.92732259  1
  H+  H333  1  0.84265219  0.19539058  0.79048881  1
  H+  H334  1  0.20320895  0.93018938  0.86299451  1
  H+  H335  1  0.10184405  0.60437615  -0.00104742  1
  H+  H336  1  0.83732913  0.89626528  0.70591376  1
  H+  H337  1  0.43716092  0.37062253  0.58144374  1
  H+  H338  1  0.39013267  0.75807252  0.98325220  1
  H+  H339  1  0.06743139  0.40751080  0.41029493  1
  H+  H340  1  0.90752899  0.56294967  0.55400202  1
  H+  H341  1  0.07799070  0.42478438  0.74267562  1
  H+  H342  1  0.16779179  0.07397581  0.56168608  1
  H+  H343  1  0.67398676  0.59394289  0.92590443  1
  H+  H344  1  0.83326449  0.31143018  0.54776802  1
  H+  H345  1  0.42514149  0.60280305  0.23392164  1
  H+  H346  1  0.83062556  0.68271344  0.07458423  1
  H+  H347  1  0.33763598  0.16743836  0.76946835  1
  H+  H348  1  0.08323243  0.67565338  0.39742081  1
  H+  H349  1  0.09723497  0.43034629  0.08157091  1
  H+  H350  1  0.90733790  0.04707162  0.54153016  1
  H+  H351  1  0.34375147  0.92057176  0.76622424  1
  H+  H352  1  0.32046610  0.28873117  0.96801571  1
  H+  H353  1  0.36109359  0.86895185  0.00308966  1
  H+  H354  1  0.11617537  0.28926868  0.93147574  1
  H+  H355  1  0.33148630  0.67062164  0.77025704  1
  H+  H356  1  0.42534798  0.08267376  0.89970709  1
  H+  H357  1  0.49902980  0.64025528  0.32057648  1
  H+  H358  1  0.68213787  0.28265328  0.95323046  1
  H+  H359  1  0.15887387  0.57952123  0.60311314  1
  H+  H360  1  0.41872278  0.07986175  0.27348257  1
  H+  H361  1  0.43291921  0.83440886  0.89310720  1
  H+  H362  1  0.22367260  0.11011243  0.66285740  1
  H+  H363  1  0.15017580  0.62395652  0.84762172  1
  H+  H364  1  0.57924486  0.93646280  0.71431689  1
  H+  H365  1  0.85934360  0.54234918  0.55810468  1
  H+  H366  1  0.12110209  0.31117880  0.59095023  1
  H+  H367  1  0.34368572  0.91303478  0.10714231  1
  H+  H368  1  0.22385073  0.60631112  0.22515435  1
  H+  H369  1  0.66635283  0.60201599  0.23767340  1
  H+  H370  1  0.58465815  0.13405144  0.11447638  1
  H+  H371  1  0.68273797  0.57953706  0.55946140  1
  H+  H372  1  0.48672512  0.36771263  0.49803834  1
  H+  H373  1  0.86909970  0.65575453  0.16451436  1
  H+  H374  1  0.41025458  0.83516819  0.56750806  1
  H+  H375  1  0.64888972  0.02232101  0.35131264  1
  H+  H376  1  0.23668868  0.27677432  0.40347628  1
  H+  H377  1  0.12403952  0.48878542  0.83691472  1
  H+  H378  1  0.75796512  0.14442130  0.42487868  1
  H+  H379  1  0.67703758  0.35484197  0.55562423  1
  H+  H380  1  0.17635190  0.08716121  0.23534364  1
  H+  H381  1  0.03739027  0.64119985  0.16875384  1
  H+  H382  1  0.86373274  0.96794835  0.17268716  1
  H+  H383  1  0.18693604  0.56082459  0.22207127  1
  O2-  O384  1  0.07627323  0.16388488  0.15245569  1
  O2-  O385  1  0.08081533  0.15412107  0.48275423  1
  O2-  O386  1  0.06880711  0.14828949  0.81077752  1
  O2-  O387  1  0.10514319  0.44456992  0.13338403  1
  O2-  O388  1  0.05305349  0.40952952  0.49268167  1
  O2-  O389  1  0.08727998  0.42967446  0.81953827  1
  O2-  O390  1  0.10043008  0.66676623  0.17256606  1
  O2-  O391  1  0.09010267  0.67105399  0.47553234  1
  O2-  O392  1  0.08829685  0.67355720  0.81783761  1
  O2-  O393  1  0.09343778  0.92314930  0.14982331  1
  O2-  O394  1  0.08932296  0.91835403  0.46762666  1
  O2-  O395  1  0.05106607  0.86488060  0.79903168  1
  O2-  O396  1  0.34077874  0.16356393  0.14693524  1
  O2-  O397  1  0.32310015  0.15276260  0.47802843  1
  O2-  O398  1  0.33938665  0.17117981  0.81468438  1
  O2-  O399  1  0.32850118  0.41803571  0.15076018  1
  O2-  O400  1  0.35398157  0.43602806  0.47991090  1
  O2-  O401  1  0.34158637  0.42012506  0.80952157  1
  O2-  O402  1  0.35770876  0.67878707  0.13253757  1
  O2-  O403  1  0.33455599  0.66923366  0.48489249  1
  O2-  O404  1  0.34510159  0.66807760  0.81412361  1
  O2-  O405  1  0.34419856  0.91632295  0.15210842  1
  O2-  O406  1  0.33665506  0.91887219  0.47902487  1
  O2-  O407  1  0.34685473  0.91863154  0.81197725  1
  O2-  O408  1  0.58622109  0.14503987  0.15906167  1
  O2-  O409  1  0.57311157  0.17440885  0.48809551  1
  O2-  O410  1  0.58526907  0.17951395  0.80611188  1
  O2-  O411  1  0.63481027  0.36111485  0.06948163  1
  O2-  O412  1  0.58730359  0.42833612  0.47267020  1
  O2-  O413  1  0.56358728  0.41260459  0.80912204  1
  O2-  O414  1  0.58050702  0.66958696  0.15757194  1
  O2-  O415  1  0.61829011  0.67924719  0.49266348  1
  O2-  O416  1  0.57793653  0.65319994  0.78881271  1
  O2-  O417  1  0.58237362  0.91750746  0.16760630  1
  O2-  O418  1  0.58812757  0.91523835  0.49845709  1
  O2-  O419  1  0.58911878  0.93320785  0.79446079  1
  O2-  O420  1  0.79400108  0.10549192  0.13492776  1
  O2-  O421  1  0.77095879  0.15309459  0.47206169  1
  O2-  O422  1  0.83797968  0.19155423  0.83460403  1
  O2-  O423  1  0.79385927  0.44700012  0.13084327  1
  O2-  O424  1  0.82335811  0.41723229  0.45583923  1
  O2-  O425  1  0.84422189  0.42603629  0.82254639  1
  O2-  O426  1  0.83863117  0.68844657  0.15379417  1
  O2-  O427  1  0.84269662  0.67978891  0.45950572  1
  O2-  O428  1  0.83323586  0.65717071  0.81230622  1
  O2-  O429  1  0.83760673  0.90333548  0.15989036  1
  O2-  O430  1  0.84571771  0.91636033  0.42399212  1
  O2-  O431  1  0.86984495  0.91276524  0.78498372  1
  O2-  O432  1  0.17481888  0.09106914  0.18984850  1
  O2-  O433  1  0.16809683  0.07542107  0.51672282  1
  O2-  O434  1  0.17393893  0.08322118  0.86451136  1
  O2-  O435  1  0.15943996  0.34776624  0.18584552  1
  O2-  O436  1  0.10425995  0.30458900  0.54727076  1
  O2-  O437  1  0.16280275  0.32861886  0.80647244  1
  O2-  O438  1  0.18896751  0.61130264  0.11355633  1
  O2-  O439  1  0.16311377  0.57893236  0.52636971  1
  O2-  O440  1  0.17752270  0.59240900  0.86467257  1
  O2-  O441  1  0.18171990  0.84525703  0.18844443  1
  O2-  O442  1  0.16938558  0.83444368  0.51874497  1
  O2-  O443  1  0.19494212  0.87234471  0.85863181  1
  O2-  O444  1  0.42328962  0.08363803  0.19452924  1
  O2-  O445  1  0.40908556  0.08882954  0.52192173  1
  O2-  O446  1  0.42357419  0.08611472  0.85434145  1
  O2-  O447  1  0.33777659  0.28740318  0.21208822  1
  O2-  O448  1  0.42709738  0.33927562  0.51599716  1
  O2-  O449  1  0.41273637  0.33766426  0.85665375  1
  O2-  O450  1  0.41526316  0.58263439  0.19015795  1
  O2-  O451  1  0.44828786  0.60405893  0.51393774  1
  O2-  O452  1  0.42800837  0.58504829  0.82891558  1
  O2-  O453  1  0.41985206  0.83300552  0.20273225  1
  O2-  O454  1  0.41580190  0.83212926  0.52212046  1
  O2-  O455  1  0.43224314  0.83359372  0.84766011  1
  O2-  O456  1  0.67212642  0.07520000  0.20596967  1
  O2-  O457  1  0.64252011  0.07761650  0.53625838  1
  O2-  O458  1  0.65342999  0.08262047  0.84658786  1
  O2-  O459  1  0.65400324  0.30889755  0.19172289  1
  O2-  O460  1  0.66610208  0.34624372  0.51054134  1
  O2-  O461  1  0.68499536  0.31695137  0.87061820  1
  O2-  O462  1  0.66921904  0.60321454  0.19298662  1
  O2-  O463  1  0.67420654  0.58414176  0.51429155  1
  O2-  O464  1  0.66161862  0.58248078  0.84355738  1
  O2-  O465  1  0.67137230  0.83192366  0.20087121  1
  O2-  O466  1  0.68380582  0.83468247  0.54517386  1
  O2-  O467  1  0.75889111  0.95702070  0.82916229  1
  O2-  O468  1  0.89563537  0.05983937  0.18540795  1
  O2-  O469  1  0.91146146  0.04936277  0.49702277  1
  O2-  O470  1  0.91229525  0.10056771  0.86241324  1
  O2-  O471  1  0.87159593  0.31446773  0.17243825  1
  O2-  O472  1  0.87220792  0.32522383  0.51328005  1
  O2-  O473  1  0.92813962  0.35570999  0.87230534  1
  O2-  O474  1  0.91847232  0.59879674  0.17957628  1
  O2-  O475  1  0.92067834  0.59297234  0.44345463  1
  O2-  O476  1  0.92121213  0.59034503  0.84292997  1
  O2-  O477  1  0.94228431  0.85118886  0.21304949  1
  O2-  O478  1  0.92613484  0.82975617  0.51908083  1
  O2-  O479  1  0.90824314  0.81618896  0.85485955  1
  O2-  O480  1  0.17091450  0.08409232  0.31236563  1
  O2-  O481  1  0.16426001  0.07696236  0.64644081  1
  O2-  O482  1  0.18329766  0.08141271  0.98617651  1
  O2-  O483  1  0.14656946  0.32906023  0.31109883  1
  O2-  O484  1  0.15052629  0.32466552  0.66938934  1
  O2-  O485  1  0.25942596  0.49307060  0.97846280  1
  O2-  O486  1  0.16925062  0.58338769  0.33926963  1
  O2-  O487  1  0.15827616  0.58163882  0.64889406  1
  O2-  O488  1  0.14320056  0.58116948  0.99100054  1
  O2-  O489  1  0.17271521  0.83399689  0.31322350  1
  O2-  O490  1  0.17053152  0.83882604  0.64519171  1
  O2-  O491  1  0.09667527  0.79519782  0.96040998  1
  O2-  O492  1  0.41404785  0.07389863  0.31885742  1
  O2-  O493  1  0.40941553  0.08900795  0.64259542  1
  O2-  O494  1  0.42475878  0.07483647  0.97975631  1
  O2-  O495  1  0.39404513  0.31150134  0.33166178  1
  O2-  O496  1  0.44771946  0.40218961  0.62301840  1
  O2-  O497  1  0.38317429  0.31911324  0.96807464  1
  O2-  O498  1  0.45978310  0.65400394  0.29827786  1
  O2-  O499  1  0.45374673  0.65962389  0.64853127  1
  O2-  O500  1  0.47706937  0.59786231  0.98375113  1
  O2-  O501  1  0.40968649  0.83193471  0.31816534  1
  O2-  O502  1  0.40509260  0.84195718  0.64296582  1
  O2-  O503  1  0.41292328  0.82012172  0.97254703  1
  O2-  O504  1  0.66469455  0.08062001  0.33499195  1
  O2-  O505  1  0.65941050  0.08836563  0.60279604  1
  O2-  O506  1  0.62153325  -0.00599343  1.00607969  1
  O2-  O507  1  0.64499458  0.33334198  0.31155367  1
  O2-  O508  1  0.69305678  0.37064146  0.62952509  1
  O2-  O509  1  0.68404319  0.27407059  0.99732336  1
  O2-  O510  1  0.63599470  0.59368611  0.31936907  1
  O2-  O511  1  0.69213393  0.58175572  0.63393869  1
  O2-  O512  1  0.68232439  0.59947913  0.97047246  1
  O2-  O513  1  0.66664254  0.79895906  0.32398886  1
  O2-  O514  1  0.68148914  0.83332565  0.61281661  1
  O2-  O515  1  0.65667079  0.83733406  1.00752132  1
  O2-  O516  1  0.99397078  0.11067845  0.31626260  1
  O2-  O517  1  0.91072644  0.06703564  0.62874025  1
  O2-  O518  1  0.92686864  0.08251820  0.97903051  1
  O2-  O519  1  0.91466489  0.34241276  0.29732336  1
  O2-  O520  1  0.91871755  0.32099376  0.64745708  1
  O2-  O521  1  0.93680826  0.33665307  0.99681725  1
  O2-  O522  1  0.90453012  0.58311315  0.30305510  1
  O2-  O523  1  0.92767767  0.57498736  0.67253567  1
  O2-  O524  1  0.89261011  0.57154507  0.98531225  1
  O2-  O525  1  0.98534469  0.86791527  0.33427127  1
  O2-  O526  1  0.92610780  0.82768036  0.63315076  1
  O2-  O527  1  0.91439994  0.83308382  0.98063472  1
  O2-  O528  1  0.07294481  0.13602993  0.02870817  1
  O2-  O529  1  0.08004206  0.16286868  0.34155812  1
  O2-  O530  1  0.06672563  0.14611017  0.68752847  1
  O2-  O531  1  0.09302951  0.42713860  0.02451621  1
  O2-  O532  1  0.07824734  0.41942715  0.36618100  1
  O2-  O533  1  0.07877537  0.41849505  0.69714216  1
  O2-  O534  1  0.04986876  0.64146889  0.02580315  1
  O2-  O535  1  0.08160564  0.67272565  0.35198168  1
  O2-  O536  1  0.09552151  0.67596764  0.69891213  1
  O2-  O537  1  0.08014708  0.91601072  0.02557687  1
  O2-  O538  1  0.07858856  0.91430093  0.34636241  1
  O2-  O539  1  0.08141417  0.91196124  0.68301016  1
  O2-  O540  1  0.35027100  0.16547161  0.02186710  1
  O2-  O541  1  0.32415826  0.15395556  0.36518271  1
  O2-  O542  1  0.33189611  0.16501490  0.68895189  1
  O2-  O543  1  0.36721489  0.44307339  0.02720348  1
  O2-  O544  1  0.27707435  0.33340376  0.38694477  1
  O2-  O545  1  0.32588490  0.41548257  0.68292954  1
  O2-  O546  1  0.36771477  0.65800095  0.00770521  1
  O2-  O547  1  0.33811793  0.68178197  0.36342205  1
  O2-  O548  1  0.31567883  0.67606535  0.69368448  1
  O2-  O549  1  0.33628165  0.90320077  0.02153787  1
  O2-  O550  1  0.33623824  0.91162102  0.35153002  1
  O2-  O551  1  0.33157267  0.92721549  0.69077368  1
  O2-  O552  1  0.57715639  0.11214494  0.03628347  1
  O2-  O553  1  0.57612511  0.16849694  0.36387905  1
  O2-  O554  1  0.57649717  0.15622428  0.68482282  1
  O2-  O555  1  0.55087987  0.42366815  0.00087061  1
  O2-  O556  1  0.56721822  0.42121990  0.35259660  1
  O2-  O557  1  0.59040946  0.42761024  0.68653380  1
  O2-  O558  1  0.60469976  0.67962236  0.04687352  1
  O2-  O559  1  0.59410673  0.63462728  0.35180315  1
  O2-  O560  1  0.62169829  0.67885027  0.66248654  1
  O2-  O561  1  0.56461573  0.91285299  0.03807508  1
  O2-  O562  1  0.60055269  0.91301381  0.37303922  1
  O2-  O563  1  0.56783306  0.92663862  0.66987487  1
  O2-  O564  1  0.85622503  0.18000002  0.02779358  1
  O2-  O565  1  0.75013313  0.13799805  0.35742084  1
  O2-  O566  1  0.82415658  0.14596999  0.64763618  1
  O2-  O567  1  0.84283436  0.40737696  0.02867274  1
  O2-  O568  1  0.81684527  0.41642800  0.33889213  1
  O2-  O569  1  0.84185388  0.40948099  0.69929287  1
  O2-  O570  1  0.83312172  0.68065403  0.02908080  1
  O2-  O571  1  0.81798081  0.66282429  0.33584074  1
  O2-  O572  1  0.84694398  0.66687360  0.69209795  1
  O2-  O573  1  0.80937502  0.94164604  0.05244890  1
  O2-  O574  1  0.90407216  0.95148409  0.37257625  1
  O2-  O575  1  0.83567625  0.89841743  0.66095690  1
