# generated using pymatgen
data_H2O
_symmetry_space_group_name_H-M   'P 1'
_cell_length_a   17.98924206
_cell_length_b   17.99140632
_cell_length_c   22.00476399
_cell_angle_alpha   90.00621241
_cell_angle_beta   90.02237617
_cell_angle_gamma   119.98614567
_symmetry_Int_Tables_number   1
_chemical_formula_structural   H2O
_chemical_formula_sum   'H384 O192'
_cell_volume   6168.58959751
_cell_formula_units_Z   192
loop_
 _symmetry_equiv_pos_site_id
 _symmetry_equiv_pos_as_xyz
  1  'x, y, z'
loop_
 _atom_type_symbol
 _atom_type_oxidation_number
  H+  1.0
  O2-  -2.0
loop_
 _atom_site_type_symbol
 _atom_site_label
 _atom_site_symmetry_multiplicity
 _atom_site_fract_x
 _atom_site_fract_y
 _atom_site_fract_z
 _atom_site_occupancy
  H+  H0  1  1.01780779  0.11639327  0.99802225  1
  H+  H1  1  0.58513396  0.41494576  0.78048199  1
  H+  H2  1  0.35967614  0.92718434  0.00431102  1
  H+  H3  1  0.61236460  0.47354334  0.34195094  1
  H+  H4  1  0.19584381  0.99313843  0.96259429  1
  H+  H5  1  0.09533622  0.67655964  0.82508886  1
  H+  H6  1  1.03982738  0.14957620  0.49319084  1
  H+  H7  1  0.37244071  0.39732535  0.34155314  1
  H+  H8  1  0.79072997  0.14149368  0.66198792  1
  H+  H9  1  0.62947514  0.35757066  0.18106171  1
  H+  H10  1  0.65671654  0.89589779  0.82031262  1
  H+  H11  1  0.72127436  0.84986429  0.50118762  1
  H+  H12  1  0.22996375  0.87301297  0.50117717  1
  H+  H13  1  0.11647809  0.80242805  0.85682734  1
  H+  H14  1  0.85842429  0.58890601  0.32449016  1
  H+  H15  1  0.14621101  0.35687787  0.66198449  1
  H+  H16  1  0.02371046  0.15232006  0.82403514  1
  H+  H17  1  0.13638893  0.28490643  0.84414402  1
  H+  H18  1  0.38530176  1.02660719  0.66295033  1
  H+  H19  1  0.68865164  0.78540158  0.84104023  1
  H+  H20  1  0.81094788  0.49380565  0.43296657  1
  H+  H21  1  0.01636430  0.68474498  0.67642584  1
  H+  H22  1  0.13845971  0.80203307  0.66092268  1
  H+  H23  1  0.88712252  0.47008707  0.32923320  1
  H+  H24  1  0.65726389  0.58551224  0.90962661  1
  H+  H25  1  -0.01390982  0.11260247  0.65254423  1
  H+  H26  1  0.88613650  0.12163718  0.83188275  1
  H+  H27  1  0.86362660  0.52375890  0.17176582  1
  H+  H28  1  0.96022964  0.84702885  0.98998287  1
  H+  H29  1  0.87700741  0.13713091  0.66119267  1
  H+  H30  1  0.86180396  0.88459569  0.00106925  1
  H+  H31  1  0.47454074  0.82061951  0.79260120  1
  H+  H32  1  0.14950482  1.03923725  0.65764228  1
  H+  H33  1  0.87811739  0.10526351  0.18287775  1
  H+  H34  1  0.78117691  0.42490257  0.48398064  1
  H+  H35  1  0.17437285  0.64580365  0.80963976  1
  H+  H36  1  0.64069335  0.77888225  0.32824461  1
  H+  H37  1  0.81533327  0.34564985  0.74778922  1
  H+  H38  1  1.02850506  0.90374109  0.65998292  1
  H+  H39  1  1.02469788  0.66145298  0.49007853  1
  H+  H40  1  0.08116848  0.44317195  0.02752215  1
  H+  H41  1  0.61774756  0.73417651  0.67212724  1
  H+  H42  1  0.28752908  0.39711011  0.15647149  1
  H+  H43  1  0.74323204  0.60995975  0.87722876  1
  H+  H44  1  0.03940600  0.39225275  0.66973693  1
  H+  H45  1  0.62559156  0.01008060  1.01572805  1
  H+  H46  1  0.11609684  0.74487106  0.48625777  1
  H+  H47  1  0.09938237  0.42964478  0.42180463  1
  H+  H48  1  0.86728061  -0.02287863  1.00250482  1
  H+  H49  1  0.39761290  0.69033996  0.01301838  1
  H+  H50  1  0.86659227  0.89754640  0.66661607  1
  H+  H51  1  0.37896595  0.14209540  0.96976266  1
  H+  H52  1  0.15098349  0.35995043  0.17352209  1
  H+  H53  1  0.17874623  0.09558817  0.56675196  1
  H+  H54  1  0.16774487  0.24274381  0.15645501  1
  H+  H55  1  0.46424642  0.31592985  0.66123058  1
  H+  H56  1  0.64635006  1.02265097  0.65180160  1
  H+  H57  1  0.85773171  0.47120663  0.00691272  1
  H+  H58  1  0.87944654  0.86732257  0.33247573  1
  H+  H59  1  0.48556582  0.60160741  0.64048985  1
  H+  H60  1  0.35397222  0.51745584  0.85873769  1
  H+  H61  1  0.89432344  1.03736129  0.83561841  1
  H+  H62  1  0.37083127  0.68397722  0.72787550  1
  H+  H63  1  0.62559010  0.64027110  1.00630386  1
  H+  H64  1  0.35420294  0.75458292  0.85765790  1
  H+  H65  1  0.47894600  0.62331208  0.32538431  1
  H+  H66  1  0.62386657  0.47723743  0.83897945  1
  H+  H67  1  0.63577911  0.11016434  0.33026812  1
  H+  H68  1  0.62159777  0.34735852  0.33361420  1
  H+  H69  1  0.87607737  0.86337598  0.17528690  1
  H+  H70  1  0.86918723  0.26825583  0.18564432  1
  H+  H71  1  0.89533025  0.57104049  0.65512543  1
  H+  H72  1  0.62361853  0.59982207  0.65930879  1
  H+  H73  1  0.53622565  0.63052637  0.87027315  1
  H+  H74  1  0.19799546  0.34366110  1.00661684  1
  H+  H75  1  0.18414418  0.49573745  0.65604366  1
  H+  H76  1  0.12848614  0.15065215  0.49587279  1
  H+  H77  1  0.15397987  0.37481025  0.50962008  1
  H+  H78  1  0.02034044  0.88905311  0.34117630  1
  H+  H79  1  0.07929517  0.35318574  0.01631849  1
  H+  H80  1  0.64082255  0.86021078  0.65441376  1
  H+  H81  1  0.97733581  0.86767627  0.50154571  1
  H+  H82  1  0.37691259  1.02072474  0.32557966  1
  H+  H83  1  0.62046792  0.48648315  0.49387952  1
  H+  H84  1  0.78022778  0.15238038  0.80031680  1
  H+  H85  1  0.75831557  0.32753222  0.68915879  1
  H+  H86  1  0.48280312  0.37280462  0.50550737  1
  H+  H87  1  0.08927881  0.68615108  0.00575496  1
  H+  H88  1  0.87384054  0.22097084  0.34594000  1
  H+  H89  1  0.61487685  0.73736154  0.11168272  1
  H+  H90  1  0.86053640  0.61198825  0.17401262  1
  H+  H91  1  1.00082240  0.63211837  0.16185013  1
  H+  H92  1  0.66758239  0.09710192  0.74476432  1
  H+  H93  1  0.13752855  1.02622022  0.33283659  1
  H+  H94  1  0.39309262  0.53342775  0.32207246  1
  H+  H95  1  0.72200801  0.35705713  1.00429875  1
  H+  H96  1  0.85166551  0.17703887  0.74976693  1
  H+  H97  1  0.37381094  0.01943050  0.17515402  1
  H+  H98  1  0.86342915  0.45428276  0.83818202  1
  H+  H99  1  0.31683781  0.93323396  0.09974426  1
  H+  H100  1  0.29260678  0.42152161  0.50133099  1
  H+  H101  1  0.40665996  0.08135982  0.26692220  1
  H+  H102  1  0.86344623  0.97749663  0.16250780  1
  H+  H103  1  0.36095990  0.97154717  0.48787581  1
  H+  H104  1  0.41295597  0.40455726  0.01274619  1
  H+  H105  1  0.36634381  0.14270757  0.49320940  1
  H+  H106  1  0.60504030  0.21897479  0.02297954  1
  H+  H107  1  0.13704678  0.62237002  0.15711415  1
  H+  H108  1  0.13699136  0.59423830  0.67745961  1
  H+  H109  1  0.57292957  0.16036254  0.11313073  1
  H+  H110  1  0.67945145  0.53619347  0.02710807  1
  H+  H111  1  0.40266690  0.60817130  0.64301042  1
  H+  H112  1  0.27982613  0.38790861  0.68617753  1
  H+  H113  1  0.63483929  0.12815725  0.79996236  1
  H+  H114  1  0.35790663  0.24250658  0.00612780  1
  H+  H115  1  0.83881687  0.73031960  0.16930363  1
  H+  H116  1  0.51435405  0.86508472  0.01757668  1
  H+  H117  1  0.97909003  0.10820899  0.33278935  1
  H+  H118  1  0.61857264  -0.02302189  0.16396748  1
  H+  H119  1  0.59261767  0.57918896  0.19744800  1
  H+  H120  1  0.79731752  0.67148378  0.11040375  1
  H+  H121  1  0.88998091  0.35031508  0.66411057  1
  H+  H122  1  0.51507449  0.13905712  0.81652879  1
  H+  H123  1  0.49466289  0.84366783  0.18139870  1
  H+  H124  1  0.60363437  0.86464835  0.49279625  1
  H+  H125  1  0.20533041  0.85623197  0.16972673  1
  H+  H126  1  0.89372416  1.02542640  0.65273873  1
  H+  H127  1  0.61262901  0.47502536  0.17247051  1
  H+  H128  1  0.11413359  0.13382670  0.34125505  1
  H+  H129  1  0.89705959  0.26274685  0.50522699  1
  H+  H130  1  0.27267780  0.89484911  0.67224919  1
  H+  H131  1  0.60061893  0.46071135  0.68156982  1
  H+  H132  1  0.41647415  0.33859898  0.26643706  1
  H+  H133  1  0.37675921  0.85156914  0.49457712  1
  H+  H134  1  0.21774466  0.61496887  0.33194265  1
  H+  H135  1  0.40595217  0.07206787  0.97393737  1
  H+  H136  1  0.69783517  0.61708715  0.18182271  1
  H+  H137  1  0.14253415  0.59956866  0.80114029  1
  H+  H138  1  0.61114712  0.97488169  0.34195215  1
  H+  H139  1  0.25417581  0.88877276  0.82891493  1
  H+  H140  1  0.88556818  0.48152291  0.69404758  1
  H+  H141  1  0.46507035  0.10669500  0.17671488  1
  H+  H142  1  0.63759629  0.36160551  0.85225003  1
  H+  H143  1  0.12762167  0.77231870  0.32549672  1
  H+  H144  1  0.88175487  0.10835105  0.99651969  1
  H+  H145  1  0.60156316  0.21638676  0.34166686  1
  H+  H146  1  0.88580391  0.64147490  0.50947921  1
  H+  H147  1  0.46616152  0.09731119  0.50366178  1
  H+  H148  1  0.10599928  0.20156700  0.00082863  1
  H+  H149  1  0.17648581  0.80479167  1.05375856  1
  H+  H150  1  0.27746175  0.64095788  0.79736434  1
  H+  H151  1  0.12085789  0.03171944  0.81821372  1
  H+  H152  1  0.76729619  0.13791032  0.16981651  1
  H+  H153  1  0.36680297  0.78049346  0.05027957  1
  H+  H154  1  0.22664647  0.37036093  0.85201266  1
  H+  H155  1  0.68764825  0.66009913  0.82374879  1
  H+  H156  1  0.87147755  0.58155566  0.85667169  1
  H+  H157  1  0.57962837  0.91029610  0.39909453  1
  H+  H158  1  0.63172655  0.08666374  0.49548073  1
  H+  H159  1  0.02984705  0.37782354  0.49829539  1
  H+  H160  1  0.47254056  0.86452041  0.33028264  1
  H+  H161  1  0.89293524  0.01822754  0.49828636  1
  H+  H162  1  0.33882556  0.17564989  0.39825345  1
  H+  H163  1  0.66246889  0.58111906  0.26770081  1
  H+  H164  1  0.25612070  0.54736098  0.89935953  1
  H+  H165  1  0.66018395  0.07882197  0.96389603  1
  H+  H166  1  0.35913752  0.63864298  0.32665704  1
  H+  H167  1  0.64845505  0.39042656  0.51047026  1
  H+  H168  1  0.07215778  0.95426625  0.00980731  1
  H+  H169  1  0.16703265  0.55559877  0.14552067  1
  H+  H170  1  0.88690874  0.77510776  0.50770037  1
  H+  H171  1  0.72704527  0.11254238  0.33071941  1
  H+  H172  1  0.27153281  0.58761006  0.65497738  1
  H+  H173  1  0.63407269  0.27225397  0.64423677  1
  H+  H174  1  0.15002191  0.12737669  0.66114061  1
  H+  H175  1  0.85895564  0.71112543  0.92914522  1
  H+  H176  1  0.68687417  0.83626000  0.90307420  1
  H+  H177  1  0.76948621  0.88620910  0.34017475  1
  H+  H178  1  0.86027898  0.36591171  0.84866178  1
  H+  H179  1  0.63584167  0.00105119  0.50117619  1
  H+  H180  1  0.35147827  0.63323005  0.83096824  1
  H+  H181  1  0.36785725  0.77818770  0.14733207  1
  H+  H182  1  0.60236386  0.71270478  0.49419044  1
  H+  H183  1  -0.00053942  0.64614203  0.84257440  1
  H+  H184  1  0.72159818  0.35130519  0.85394015  1
  H+  H185  1  0.72889540  0.85311443  0.15077463  1
  H+  H186  1  0.08577904  0.92553862  0.43310472  1
  H+  H187  1  1.02666952  0.39409003  0.82226117  1
  H+  H188  1  0.87586627  0.90158656  0.81408132  1
  H+  H189  1  0.12242821  0.08776919  -0.02231005  1
  H+  H190  1  0.37639857  0.01960946  0.82899433  1
  H+  H191  1  0.85947044  0.67057440  0.65897047  1
  H+  H192  1  0.23695049  0.15244635  0.16464747  1
  H+  H193  1  0.86226099  0.49080656  0.71885808  1
  H+  H194  1  0.76578710  0.65727299  0.66228940  1
  H+  H195  1  0.86288161  -0.02476460  0.34282334  1
  H+  H196  1  0.27822447  0.14175589  0.68598887  1
  H+  H197  1  0.22519337  0.11621650  0.33177450  1
  H+  H198  1  0.44622839  0.51972283  0.17585466  1
  H+  H199  1  0.48411341  0.37894886  0.85392640  1
  H+  H200  1  0.87118906  0.72481205  0.86042494  1
  H+  H201  1  0.61413070  0.14168438  0.62913246  1
  H+  H202  1  0.28736103  0.95300919  1.00206659  1
  H+  H203  1  0.35793072  0.70990113  0.48614253  1
  H+  H204  1  0.87985931  0.77860692  0.33105382  1
  H+  H205  1  0.85063749  0.37768829  0.01371815  1
  H+  H206  1  0.38821833  0.88335613  0.66026102  1
  H+  H207  1  0.60315612  0.22468479  0.83147544  1
  H+  H208  1  0.92359213  0.36545506  0.33539219  1
  H+  H209  1  0.51364300  0.12484535  0.33764181  1
  H+  H210  1  0.88890587  0.10710473  0.33286835  1
  H+  H211  1  0.85508390  0.39326558  0.16271504  1
  H+  H212  1  0.09018341  0.87160371  0.15783815  1
  H+  H213  1  0.99177360  0.60073417  1.00336923  1
  H+  H214  1  0.85211079  0.21452323  0.01734271  1
  H+  H215  1  0.95502242  0.34152427  1.00689370  1
  H+  H216  1  0.86762205  0.12483622  0.49120557  1
  H+  H217  1  0.11645437  0.98660762  0.49261091  1
  H+  H218  1  0.90024679  0.25637165  0.83593176  1
  H+  H219  1  0.60125611  0.21783143  0.17361884  1
  H+  H220  1  0.35372310  0.61830950  0.48293105  1
  H+  H221  1  0.39811630  0.37912442  0.51016709  1
  H+  H222  1  -0.04525895  0.43118946  0.62565052  1
  H+  H223  1  0.11121301  0.61574439  0.68445829  1
  H+  H224  1  0.48089505  0.36825129  0.17329810  1
  H+  H225  1  0.10734370  0.88484858  0.33846438  1
  H+  H226  1  0.64167304  0.85541252  0.15595043  1
  H+  H227  1  0.76850231  0.12261204  0.02599783  1
  H+  H228  1  0.10548763  0.57186067  1.01842514  1
  H+  H229  1  0.11991659  0.22783051  0.66804516  1
  H+  H230  1  0.46971121  0.85852013  0.78483581  1
  H+  H231  1  0.36952693  0.40465496  0.84297288  1
  H+  H232  1  0.52548683  0.64084325  0.83949591  1
  H+  H233  1  0.14313426  0.87895446  0.50352758  1
  H+  H234  1  0.34854743  0.43531018  0.39946360  1
  H+  H235  1  0.51472835  0.86729145  0.49138350  1
  H+  H236  1  0.63884679  0.86580770  0.32721177  1
  H+  H237  1  0.38958595  0.73655220  0.66602598  1
  H+  H238  1  0.36940353  0.23400779  0.49317287  1
  H+  H239  1  0.14596756  0.26793316  0.32041480  1
  H+  H240  1  0.11822149  0.47407365  0.50604410  1
  H+  H241  1  0.51295301  0.65604482  0.00894403  1
  H+  H242  1  0.35819537  0.13922945  0.15803064  1
  H+  H243  1  0.33074078  0.86958492  0.83794206  1
  H+  H244  1  0.31862505  0.86171751  0.13831592  1
  H+  H245  1  0.43100663  0.35320526  1.06185417  1
  H+  H246  1  0.15421956  0.82925510  0.26497600  1
  H+  H247  1  0.11230790  0.15186136  0.81902764  1
  H+  H248  1  0.31918074  0.43529207  -0.02422702  1
  H+  H249  1  0.38694405  0.27855961  0.32567375  1
  H+  H250  1  1.03986540  0.39288140  0.17761620  1
  H+  H251  1  0.38321436  0.77506917  0.32720174  1
  H+  H252  1  0.19894541  0.79637337  0.02813133  1
  H+  H253  1  0.61150532  0.88325173  0.00758096  1
  H+  H254  1  0.62842541  0.10877242  0.18001642  1
  H+  H255  1  0.12557867  0.50275992  0.35609889  1
  H+  H256  1  0.73613643  0.87549590  0.99731581  1
  H+  H257  1  0.60001158  0.18389511  0.49103408  1
  H+  H258  1  0.60964091  0.37815980  0.68753356  1
  H+  H259  1  0.32996341  0.66039981  0.38932019  1
  H+  H260  1  0.66423490  0.31296924  0.52539295  1
  H+  H261  1  0.23269171  0.35880169  0.32318017  1
  H+  H262  1  0.10698835  0.90573396  0.81629130  1
  H+  H263  1  0.42756265  0.81683092  0.23580632  1
  H+  H264  1  0.88182969  0.79344330  0.77697438  1
  H+  H265  1  0.23427733  0.12172434  0.50572492  1
  H+  H266  1  0.71722245  0.35710469  0.17815306  1
  H+  H267  1  0.66302128  0.07953986  0.23720058  1
  H+  H268  1  0.35650971  0.88497669  0.33483346  1
  H+  H269  1  0.85881231  0.88202765  0.48981973  1
  H+  H270  1  0.88563534  0.79547035  0.65035426  1
  H+  H271  1  0.36419317  0.14222659  0.33867376  1
  H+  H272  1  0.63044320  0.39228419  1.01639208  1
  H+  H273  1  0.52518545  0.14060713  0.63036342  1
  H+  H274  1  0.60730061  0.13200493  1.02887754  1
  H+  H275  1  0.12497902  0.44103237  0.83362812  1
  H+  H276  1  0.65515349  0.98483598  0.80933215  1
  H+  H277  1  0.73025590  0.86120082  0.65679302  1
  H+  H278  1  0.83384597  0.15760800  0.40212999  1
  H+  H279  1  0.79111735  0.90403748  0.82756409  1
  H+  H280  1  0.12633639  0.61297528  0.33966130  1
  H+  H281  1  0.04882237  0.39411014  0.35448429  1
  H+  H282  1  0.01517604  0.63928800  0.33942530  1
  H+  H283  1  0.61064750  0.63761666  0.33881008  1
  H+  H284  1  0.12040083  0.90554087  0.66074017  1
  H+  H285  1  0.73747882  0.62129569  0.51001234  1
  H+  H286  1  0.77600233  0.12122278  0.49192433  1
  H+  H287  1  0.21302528  0.11011664  0.81219815  1
  H+  H288  1  0.40727326  0.07643956  0.56318888  1
  H+  H289  1  0.21575788  0.59780613  0.50422895  1
  H+  H290  1  0.55021663  0.67309720  0.72307658  1
  H+  H291  1  0.90259858  0.83141068  0.23654397  1
  H+  H292  1  0.42692858  0.35138032  0.91272950  1
  H+  H293  1  0.08287192  0.92932571  0.74992273  1
  H+  H294  1  0.59839172  0.42337382  0.10983424  1
  H+  H295  1  0.92329172  0.85269296  0.92618181  1
  H+  H296  1  0.58588534  0.42179851  0.43574271  1
  H+  H297  1  0.14458981  0.90690040  0.99377938  1
  H+  H298  1  0.83990808  0.67786062  0.44810906  1
  H+  H299  1  0.85312950  0.32070131  0.23659545  1
  H+  H300  1  0.26552127  0.88321646  0.33431725  1
  H+  H301  1  0.84558165  0.92229483  0.09996368  1
  H+  H302  1  0.64198103  0.03120481  0.89199814  1
  H+  H303  1  0.92681656  0.32889118  0.56088725  1
  H+  H304  1  0.05246377  0.89657385  0.07168358  1
  H+  H305  1  0.07121796  0.39341422  0.11106841  1
  H+  H306  1  0.46849948  0.57549128  0.23523134  1
  H+  H307  1  0.08343919  0.17295975  0.72873135  1
  H+  H308  1  0.39487263  0.59166712  0.91333093  1
  H+  H309  1  0.16278588  0.54472994  0.97792797  1
  H+  H310  1  0.41765747  0.29787691  0.59886243  1
  H+  H311  1  0.39191429  0.11826543  0.66144027  1
  H+  H312  1  0.32958323  0.91386643  0.42680507  1
  H+  H313  1  0.61120850  0.91911549  0.72704643  1
  H+  H314  1  0.86012492  0.41875260  0.38995814  1
  H+  H315  1  0.64290139  0.61327289  0.50580170  1
  H+  H316  1  0.18948483  0.57711963  0.88270539  1
  H+  H317  1  0.05483786  0.65076791  0.10067537  1
  H+  H318  1  0.59575636  0.02099198  0.89132801  1
  H+  H319  1  0.65886476  0.32535930  0.94655861  1
  H+  H320  1  0.92234781  0.85461395  0.59164839  1
  H+  H321  1  0.32501884  0.91272495  0.73541377  1
  H+  H322  1  0.11764437  0.76437706  0.17128317  1
  H+  H323  1  0.82584588  0.91029221  0.43102682  1
  H+  H324  1  0.67456519  0.07605547  0.59074330  1
  H+  H325  1  0.09087440  0.17322328  0.39883115  1
  H+  H326  1  0.18529205  0.33785397  0.60278885  1
  H+  H327  1  0.33732430  0.09894518  0.78722061  1
  H+  H328  1  0.58175541  0.66486836  0.39921591  1
  H+  H329  1  0.95606149  0.33051446  0.28157835  1
  H+  H330  1  0.83547103  0.92667170  0.72690634  1
  H+  H331  1  0.27249370  0.71145321  0.12497691  1
  H+  H332  1  0.17588188  0.85269252  0.59645191  1
  H+  H333  1  0.65762044  0.57414203  0.60040690  1
  H+  H334  1  0.16784427  0.88737090  0.90077672  1
  H+  H335  1  0.39985203  0.54181657  0.55249313  1
  H+  H336  1  0.56992325  0.14108180  0.42485176  1
  H+  H337  1  0.91061685  0.07202167  0.23768125  1
  H+  H338  1  0.97321065  0.86145589  0.80580775  1
  H+  H339  1  0.40037063  0.82207283  0.55577567  1
  H+  H340  1  0.83268514  0.16844836  0.11355300  1
  H+  H341  1  0.92629768  0.07825612  0.55728356  1
  H+  H342  1  0.91207303  0.55694470  0.91176058  1
  H+  H343  1  0.36772594  0.47438930  0.68152584  1
  H+  H344  1  0.68879594  0.36413587  0.61634008  1
  H+  H345  1  0.33037525  0.17396356  0.05763636  1
  H+  H346  1  0.82317621  0.41696768  0.10155547  1
  H+  H347  1  0.51944718  0.38862421  0.34102396  1
  H+  H348  1  0.09240849  0.41682261  0.73242334  1
  H+  H349  1  0.37331746  0.78816495  0.97543261  1
  H+  H350  1  0.16353146  0.29173789  0.50586308  1
  H+  H351  1  0.82732061  0.61285715  0.76929715  1
  H+  H352  1  0.86825529  0.65508957  0.77169156  1
  H+  H353  1  0.14536184  0.06420526  0.91359614  1
  H+  H354  1  0.15710533  0.32779893  0.93869079  1
  H+  H355  1  0.88149569  0.59031434  0.98666232  1
  H+  H356  1  0.97832832  0.28748164  0.88138097  1
  H+  H357  1  0.55511812  0.41676018  0.02035241  1
  H+  H358  1  0.90861090  0.08625004  0.93146610  1
  H+  H359  1  0.39192056  0.36947073  0.16786766  1
  H+  H360  1  0.64512891  0.78908741  1.00010862  1
  H+  H361  1  0.07523594  0.67655453  0.39966033  1
  H+  H362  1  0.46828962  0.92251059  0.61737010  1
  H+  H363  1  0.33603929  0.42996325  0.78231728  1
  H+  H364  1  0.66589334  0.82111631  0.56250882  1
  H+  H365  1  0.89790643  0.55616456  0.50728380  1
  H+  H366  1  0.53598023  0.89032579  0.67662023  1
  H+  H367  1  0.92530590  0.62188058  0.59152152  1
  H+  H368  1  0.34319596  0.43509095  0.09578129  1
  H+  H369  1  0.58646690  0.91644920  0.10452780  1
  H+  H370  1  0.51617646  0.61893402  0.48869197  1
  H+  H371  1  0.67045415  0.69319178  0.76110923  1
  H+  H372  1  1.00176686  0.87175023  0.16064265  1
  H+  H373  1  0.42689857  0.84171364  0.88256098  1
  H+  H374  1  0.06091358  0.71678324  0.74139989  1
  H+  H375  1  0.36995421  0.23372018  0.15694367  1
  H+  H376  1  0.65247719  0.31875649  0.27507204  1
  H+  H377  1  0.90151339  0.31393714  0.94476316  1
  H+  H378  1  0.18622293  0.33155543  0.23102166  1
  H+  H379  1  0.40008186  0.09594102  0.87688761  1
  H+  H380  1  0.74934338  0.65643761  0.37223897  1
  H+  H381  1  0.19153418  0.55877262  0.56995074  1
  H+  H382  1  0.39636829  0.52131547  1.00126654  1
  H+  H383  1  0.89922415  0.58053410  0.26340468  1
  O2-  O384  1  0.16105474  0.19020760  0.13450712  1
  O2-  O385  1  0.10120378  0.18422066  0.48111204  1
  O2-  O386  1  0.08313338  0.18494661  0.80713851  1
  O2-  O387  1  0.09185283  0.41071326  0.15385706  1
  O2-  O388  1  0.09281070  0.41383513  0.48615978  1
  O2-  O389  1  0.08199005  0.43770490  0.80461565  1
  O2-  O390  1  0.06036682  0.66037491  0.14570542  1
  O2-  O391  1  0.08136970  0.68606324  0.46942207  1
  O2-  O392  1  0.05507723  0.69791443  0.82812660  1
  O2-  O393  1  0.05873673  0.89902790  0.14031406  1
  O2-  O394  1  0.08589030  0.92549251  0.47876007  1
  O2-  O395  1  0.07210148  0.92746883  0.79528189  1
  O2-  O396  1  0.33487082  0.17434506  0.14014175  1
  O2-  O397  1  0.33760193  0.17396148  0.47739622  1
  O2-  O398  1  0.28783719  0.09534866  0.76242516  1
  O2-  O399  1  0.34769387  0.42662110  0.13945080  1
  O2-  O400  1  0.35511792  0.45250030  0.48639794  1
  O2-  O401  1  0.33394905  0.42994725  0.82827945  1
  O2-  O402  1  0.32242662  0.76934984  0.11515162  1
  O2-  O403  1  0.32727256  0.65139798  0.46796493  1
  O2-  O404  1  0.33930264  0.67316994  0.80460470  1
  O2-  O405  1  0.30965458  0.91216012  0.14235997  1
  O2-  O406  1  0.33217842  0.91110263  0.47246289  1
  O2-  O407  1  0.31332978  0.90516905  0.81440362  1
  O2-  O408  1  0.57085524  0.15685896  0.15950675  1
  O2-  O409  1  0.56735386  0.12873672  0.47086847  1
  O2-  O410  1  0.57733371  0.17107796  0.80713311  1
  O2-  O411  1  0.58619392  0.41605800  0.15474645  1
  O2-  O412  1  0.58880663  0.42403800  0.48134576  1
  O2-  O413  1  0.58884761  0.41611308  0.82600822  1
  O2-  O414  1  0.57669605  0.67695171  0.09256791  1
  O2-  O415  1  0.57717861  0.65320395  0.47699807  1
  O2-  O416  1  0.70056363  0.71273876  0.79988650  1
  O2-  O417  1  0.59190330  0.91642996  0.14947675  1
  O2-  O418  1  0.57592047  0.89788159  0.47828621  1
  O2-  O419  1  0.63434240  0.92622066  0.79472385  1
  O2-  O420  1  0.82981853  0.17228161  0.15877153  1
  O2-  O421  1  0.83646807  0.15533879  0.47760370  1
  O2-  O422  1  0.84370866  0.17616118  0.79614053  1
  O2-  O423  1  0.82178370  0.41965536  0.14764443  1
  O2-  O424  1  0.83133199  0.46234677  0.45737610  1
  O2-  O425  1  0.83034141  0.39135172  0.82807436  1
  O2-  O426  1  0.80203707  0.66825672  0.15443050  1
  O2-  O427  1  0.83439631  0.67659275  0.49205242  1
  O2-  O428  1  0.84954758  0.67845782  0.89113792  1
  O2-  O429  1  0.83857470  0.91726296  0.14489310  1
  O2-  O430  1  0.82478320  0.90987785  0.47696402  1
  O2-  O431  1  0.84805908  0.93658098  0.80615645  1
  O2-  O432  1  0.18258200  0.14802679  0.18137333  1
  O2-  O433  1  0.17391390  0.09198172  0.52135819  1
  O2-  O434  1  0.15792121  0.09186182  0.83332236  1
  O2-  O435  1  0.18913381  0.33667387  0.18459034  1
  O2-  O436  1  0.19290440  0.35192520  0.52188975  1
  O2-  O437  1  0.16592680  0.34077777  0.86638843  1
  O2-  O438  1  0.18826656  0.61558621  0.15683651  1
  O2-  O439  1  0.16580596  0.56431982  0.53078052  1
  O2-  O440  1  0.19576431  0.53458367  0.90598403  1
  O2-  O441  1  0.14662057  0.82426894  0.18790048  1
  O2-  O442  1  0.17187130  0.84773023  0.52011208  1
  O2-  O443  1  0.15721266  0.86535799  0.85771754  1
  O2-  O444  1  0.40324725  0.07974129  0.18969111  1
  O2-  O445  1  0.40602556  0.07475581  0.51765779  1
  O2-  O446  1  0.40061812  0.08255836  0.83182625  1
  O2-  O447  1  0.41869467  0.33659113  0.18493549  1
  O2-  O448  1  0.42143647  0.34088895  0.51854873  1
  O2-  O449  1  0.42454988  0.35790019  0.86901163  1
  O2-  O450  1  0.49465395  0.56028690  0.20131256  1
  O2-  O451  1  0.39564415  0.54301407  0.50664046  1
  O2-  O452  1  0.35581006  0.57057413  0.87693743  1
  O2-  O453  1  0.43729713  0.79816119  0.19567345  1
  O2-  O454  1  0.40388768  0.81842589  0.51128276  1
  O2-  O455  1  0.36495213  0.80342554  0.88497002  1
  O2-  O456  1  0.66311261  0.08117813  0.19171597  1
  O2-  O457  1  0.66696819  0.06327815  0.51297496  1
  O2-  O458  1  0.67234047  0.10206974  0.78887500  1
  O2-  O459  1  0.65810215  0.32509075  0.19529898  1
  O2-  O460  1  0.69126422  0.37497263  0.52852457  1
  O2-  O461  1  0.66182866  0.32632163  0.86917365  1
  O2-  O462  1  0.64561532  0.57370738  0.20417050  1
  O2-  O463  1  0.67349140  0.58450315  0.52240343  1
  O2-  O464  1  0.68000959  0.58106631  0.86909589  1
  O2-  O465  1  0.66532641  0.81606226  0.15283205  1
  O2-  O466  1  0.66065233  0.81720775  0.51727405  1
  O2-  O467  1  0.69520956  0.84018630  0.85798120  1
  O2-  O468  1  0.90526861  0.07076135  0.19270377  1
  O2-  O469  1  0.92661282  0.07950891  0.51168886  1
  O2-  O470  1  0.91864405  0.09685481  0.85242365  1
  O2-  O471  1  0.89385220  0.32777629  0.20470260  1
  O2-  O472  1  0.93068637  0.32444128  0.51634269  1
  O2-  O473  1  0.93932888  0.30545015  0.86495644  1
  O2-  O474  1  0.89302070  0.58383793  0.18811408  1
  O2-  O475  1  0.92543038  0.61501902  0.52390224  1
  O2-  O476  1  0.91081629  0.55934284  0.86291901  1
  O2-  O477  1  0.89856745  0.82522463  0.19156251  1
  O2-  O478  1  0.91729202  0.83988992  0.51720634  1
  O2-  O479  1  0.90914636  0.82390763  0.81454343  1
  O2-  O480  1  0.16404413  0.08681506  0.31962891  1
  O2-  O481  1  0.18458100  0.10124322  0.64609773  1
  O2-  O482  1  0.13772504  0.04713008  0.95684736  1
  O2-  O483  1  0.17733565  0.32620087  0.30187841  1
  O2-  O484  1  0.17909069  0.32876414  0.64758685  1
  O2-  O485  1  0.14423749  0.31667754  0.98414070  1
  O2-  O486  1  0.15398960  0.57839789  0.32838084  1
  O2-  O487  1  0.23178521  0.53842761  0.63008900  1
  O2-  O488  1  0.13634438  0.53881307  1.01844347  1
  O2-  O489  1  0.15889602  0.83321123  0.31050689  1
  O2-  O490  1  0.17783959  0.85992036  0.64187741  1
  O2-  O491  1  0.19752822  0.93864792  0.96808079  1
  O2-  O492  1  0.41005175  0.08224366  0.31254110  1
  O2-  O493  1  0.41354537  0.08309099  0.64181209  1
  O2-  O494  1  0.41071466  0.11790330  0.94729380  1
  O2-  O495  1  0.41820037  0.34007198  0.31179580  1
  O2-  O496  1  0.41863159  0.26986763  0.63693614  1
  O2-  O497  1  0.44080704  0.36830348  1.01883022  1
  O2-  O498  1  0.42202199  0.59250184  0.30460136  1
  O2-  O499  1  0.42502918  0.57144164  0.62737025  1
  O2-  O500  1  0.43960663  0.61531520  0.98279906  1
  O2-  O501  1  0.41246038  0.83659867  0.31422775  1
  O2-  O502  1  0.42933169  0.86872292  0.63785242  1
  O2-  O503  1  0.40348367  0.78787891  1.01256167  1
  O2-  O504  1  0.66653316  0.08013193  0.31565179  1
  O2-  O505  1  0.67358569  0.08244801  0.63595083  1
  O2-  O506  1  0.66102070  0.07398890  1.00803183  1
  O2-  O507  1  0.64744227  0.31277883  0.32007203  1
  O2-  O508  1  0.67061853  0.33487928  0.65594310  1
  O2-  O509  1  0.65964537  0.32738625  0.99215915  1
  O2-  O510  1  0.66509947  0.58081326  0.31660987  1
  O2-  O511  1  0.65556989  0.57161268  0.64597274  1
  O2-  O512  1  0.64516384  0.60349655  0.98268765  1
  O2-  O513  1  0.67441554  0.83987188  0.31599795  1
  O2-  O514  1  0.66917980  0.82658367  0.64172279  1
  O2-  O515  1  0.67595961  0.84697245  0.98024782  1
  O2-  O516  1  0.91752534  0.07490075  0.31882908  1
  O2-  O517  1  0.92708066  0.08374122  0.63420775  1
  O2-  O518  1  0.90883154  0.07804561  0.97632011  1
  O2-  O519  1  0.95342135  0.33087100  0.32622125  1
  O2-  O520  1  0.94294277  0.37403784  0.63702541  1
  O2-  O521  1  0.89439804  0.31511704  0.98911271  1
  O2-  O522  1  0.90166577  0.57607895  0.30900932  1
  O2-  O523  1  0.92259065  0.62892488  0.63821720  1
  O2-  O524  1  0.90960759  0.55763638  0.97652595  1
  O2-  O525  1  0.91162059  0.83746023  0.31649801  1
  O2-  O526  1  0.92361763  0.85740089  0.63755693  1
  O2-  O527  1  0.90479114  0.82567418  0.96593929  1
  O2-  O528  1  0.07911805  0.13947812  0.00805862  1
  O2-  O529  1  0.08306566  0.16574995  0.35412546  1
  O2-  O530  1  0.08634531  0.16701248  0.68367715  1
  O2-  O531  1  0.04635082  0.37773289  0.03576634  1
  O2-  O532  1  0.10460818  0.43778888  0.37411788  1
  O2-  O533  1  0.09648044  0.40873202  0.68763724  1
  O2-  O534  1  0.05376298  0.63073691  0.02507521  1
  O2-  O535  1  0.07553861  0.67027126  0.35310777  1
  O2-  O536  1  0.07275774  0.71609812  0.69784542  1
  O2-  O537  1  0.05095912  0.89504404  0.02441947  1
  O2-  O538  1  0.08047658  0.91716007  0.35622519  1
  O2-  O539  1  0.08845131  0.93417234  0.67668178  1
  O2-  O540  1  0.32908290  0.18045224  0.01290229  1
  O2-  O541  1  0.33764614  0.17644033  0.35288696  1
  O2-  O542  1  0.33026178  0.15631281  0.71217565  1
  O2-  O543  1  0.35989908  0.45570772  0.00935099  1
  O2-  O544  1  0.34356162  0.42984494  0.35488443  1
  O2-  O545  1  0.33540537  0.42364029  0.70740573  1
  O2-  O546  1  0.38073960  0.62900069  0.02064490  1
  O2-  O547  1  0.32777457  0.66652005  0.34437208  1
  O2-  O548  1  0.37716382  0.68136025  0.68302365  1
  O2-  O549  1  0.34191590  0.96476280  0.02309993  1
  O2-  O550  1  0.32581938  0.91521040  0.35011101  1
  O2-  O551  1  0.33221926  0.91942134  0.69039743  1
  O2-  O552  1  0.57551260  0.16100890  0.04159297  1
  O2-  O553  1  0.57336835  0.15337281  0.35483468  1
  O2-  O554  1  0.58570685  0.17407900  0.61616471  1
  O2-  O555  1  0.61351934  0.43344353  0.03524908  1
  O2-  O556  1  0.57886239  0.41454618  0.35870416  1
  O2-  O557  1  0.57492560  0.40402556  0.70179640  1
  O2-  O558  1  0.58365510  0.69027637  0.02686722  1
  O2-  O559  1  0.58297497  0.66982385  0.35397089  1
  O2-  O560  1  0.58517342  0.67305484  0.68922965  1
  O2-  O561  1  0.57602320  0.90680631  0.02542184  1
  O2-  O562  1  0.57798952  0.91309038  0.35396953  1
  O2-  O563  1  0.59860771  0.91742211  0.68139817  1
  O2-  O564  1  0.83119711  0.15599791  0.03520632  1
  O2-  O565  1  0.83364086  0.15995340  0.35632735  1
  O2-  O566  1  0.84938791  0.16845638  0.67871306  1
  O2-  O567  1  0.82360903  0.41131875  0.02773963  1
  O2-  O568  1  0.87361235  0.41421973  0.34711110  1
  O2-  O569  1  0.80500526  0.32012772  0.70687704  1
  O2-  O570  1  0.71088162  0.60042810  0.02033270  1
  O2-  O571  1  0.75707417  0.63538100  0.33301746  1
  O2-  O572  1  0.82638276  0.69841897  0.67281949  1
  O2-  O573  1  0.83717075  0.91776410  0.02022022  1
  O2-  O574  1  0.83099972  0.91335922  0.35654863  1
  O2-  O575  1  0.83076408  0.92278527  0.68160543  1
