# generated using pymatgen
data_H2O
_symmetry_space_group_name_H-M   'P 1'
_cell_length_a   17.98055353
_cell_length_b   17.98839770
_cell_length_c   22.00733771
_cell_angle_alpha   90.00846423
_cell_angle_beta   89.98564988
_cell_angle_gamma   119.99508915
_symmetry_Int_Tables_number   1
_chemical_formula_structural   H2O
_chemical_formula_sum   'H384 O192'
_cell_volume   6164.74550528
_cell_formula_units_Z   192
loop_
 _symmetry_equiv_pos_site_id
 _symmetry_equiv_pos_as_xyz
  1  'x, y, z'
loop_
 _atom_type_symbol
 _atom_type_oxidation_number
  H+  1.0
  O2-  -2.0
loop_
 _atom_site_type_symbol
 _atom_site_label
 _atom_site_symmetry_multiplicity
 _atom_site_fract_x
 _atom_site_fract_y
 _atom_site_fract_z
 _atom_site_occupancy
  H+  H0  1  0.28710279  0.15792749  0.02130713  1
  H+  H1  1  0.47476479  0.35983648  0.83644474  1
  H+  H2  1  0.43215013  0.41946965  0.98614289  1
  H+  H3  1  0.35309628  0.34258597  0.33144212  1
  H+  H4  1  0.36687948  0.47778170  0.06598712  1
  H+  H5  1  0.88069446  0.73604130  0.34629872  1
  H+  H6  1  0.02462026  0.89817755  0.82639411  1
  H+  H7  1  0.37327320  0.50280178  0.85612728  1
  H+  H8  1  1.00851043  0.14415585  0.81899858  1
  H+  H9  1  0.87937087  0.27969409  0.17552183  1
  H+  H10  1  0.67538694  0.01251166  0.65446612  1
  H+  H11  1  0.94817693  0.10195992  0.18774865  1
  H+  H12  1  0.38106171  0.74199574  1.02549256  1
  H+  H13  1  0.53887837  0.35648453  0.17463672  1
  H+  H14  1  0.88789565  0.25901046  0.85350058  1
  H+  H15  1  0.91382636  0.83888577  0.93813615  1
  H+  H16  1  0.25975074  0.87582054  0.02016100  1
  H+  H17  1  0.61555523  0.75466517  0.65281836  1
  H+  H18  1  0.87679203  0.27685637  1.00627189  1
  H+  H19  1  0.13519320  0.52950855  0.65532220  1
  H+  H20  1  0.22737837  0.12409433  0.65893160  1
  H+  H21  1  0.89215822  0.79357135  0.84486010  1
  H+  H22  1  0.40204869  0.88181325  0.65532947  1
  H+  H23  1  0.38593201  0.10163506  0.17787375  1
  H+  H24  1  0.40327215  0.26694031  0.64938209  1
  H+  H25  1  0.43534407  0.33486568  0.34012096  1
  H+  H26  1  0.10302706  0.23140202  0.33382258  1
  H+  H27  1  0.37890916  0.75843233  0.79425050  1
  H+  H28  1  0.37833424  0.97613422  0.48796363  1
  H+  H29  1  0.74011262  0.12030850  0.49951320  1
  H+  H30  1  0.79580932  0.40241741  0.34311696  1
  H+  H31  1  0.61167271  0.64275054  0.14148497  1
  H+  H32  1  0.89022987  0.41801260  0.49031016  1
  H+  H33  1  0.46558677  0.61838800  0.65913899  1
  H+  H34  1  0.35993218  0.42528043  0.67409482  1
  H+  H35  1  0.12717039  0.85482890  1.00014312  1
  H+  H36  1  0.15842304  0.83428827  0.21803417  1
  H+  H37  1  0.50834120  0.62399362  0.49182542  1
  H+  H38  1  0.00557512  0.39363487  0.01702924  1
  H+  H39  1  0.11435753  0.63426381  0.00225774  1
  H+  H40  1  0.13977169  0.77645793  0.67042214  1
  H+  H41  1  0.37267240  0.12886717  0.34006014  1
  H+  H42  1  0.68451497  0.59311078  0.07268961  1
  H+  H43  1  0.89443564  0.15493724  0.68600148  1
  H+  H44  1  0.46909832  0.09544021  0.17644841  1
  H+  H45  1  0.62883794  0.28103782  0.85467013  1
  H+  H46  1  0.09877829  0.47693555  0.82556798  1
  H+  H47  1  0.64835665  0.88182224  0.50748549  1
  H+  H48  1  0.63567729  0.82090013  0.25792741  1
  H+  H49  1  0.11561764  0.37253679  -0.00439928  1
  H+  H50  1  0.67347811  0.84418702  0.56478662  1
  H+  H51  1  0.96980469  0.35221087  0.84671146  1
  H+  H52  1  0.88306372  0.60969775  0.18060018  1
  H+  H53  1  0.72660776  0.09801801  0.85174177  1
  H+  H54  1  0.34748887  0.63164982  -0.03483005  1
  H+  H55  1  0.27639809  0.13852116  0.48806873  1
  H+  H56  1  0.49117384  0.12850993  0.49914563  1
  H+  H57  1  1.02575738  0.90190718  0.35121883  1
  H+  H58  1  0.52363961  0.87955451  0.80894316  1
  H+  H59  1  1.00493764  0.14140895  0.65463429  1
  H+  H60  1  0.34495515  0.86976159  0.02920073  1
  H+  H61  1  0.62811246  0.77487723  0.16508025  1
  H+  H62  1  0.14490563  0.86918430  0.66851654  1
  H+  H63  1  0.51401090  0.86927379  1.01518224  1
  H+  H64  1  0.12507360  0.65627179  0.49369236  1
  H+  H65  1  0.09571089  0.76816892  0.51580433  1
  H+  H66  1  0.96791307  0.36742352  0.53835583  1
  H+  H67  1  0.33580164  0.90907298  0.43549098  1
  H+  H68  1  0.36903219  0.13968451  0.48354737  1
  H+  H69  1  0.36879108  0.87755382  0.16882423  1
  H+  H70  1  1.01642878  0.38772783  0.67083028  1
  H+  H71  1  0.57435606  0.91254394  -0.03995073  1
  H+  H72  1  0.97492221  0.87341880  0.17866408  1
  H+  H73  1  0.64261846  1.03682862  0.33293931  1
  H+  H74  1  0.14729706  0.02842052  1.01753502  1
  H+  H75  1  0.88944122  0.24176499  0.48144052  1
  H+  H76  1  0.85061132  0.97552668  0.00436408  1
  H+  H77  1  0.62470216  0.14241451  0.61629350  1
  H+  H78  1  0.36013580  0.70035105  0.87869637  1
  H+  H79  1  0.14350777  0.03442479  0.50662023  1
  H+  H80  1  0.58284039  0.10049237  0.61469388  1
  H+  H81  1  0.74661838  0.38139488  0.50886215  1
  H+  H82  1  0.15508419  0.12997698  0.50428389  1
  H+  H83  1  0.12965998  0.37210751  0.65199701  1
  H+  H84  1  0.85534458  0.37676883  0.68125431  1
  H+  H85  1  1.00316515  0.78674779  0.59081029  1
  H+  H86  1  0.60900453  0.13096662  0.85540472  1
  H+  H87  1  0.28682818  0.40700160  0.15549987  1
  H+  H88  1  0.37297672  0.25014689  0.00785847  1
  H+  H89  1  0.87363507  0.36748124  0.17848895  1
  H+  H90  1  0.90112429  0.53477402  0.33359331  1
  H+  H91  1  0.62860648  0.61383068  0.50837976  1
  H+  H92  1  0.88417360  0.86293307  0.33651003  1
  H+  H93  1  0.07206484  0.90492794  0.06768110  1
  H+  H94  1  0.90074534  1.03191798  0.50478318  1
  H+  H95  1  0.61469383  0.90009001  0.34237944  1
  H+  H96  1  0.10571629  0.63769349  0.17476552  1
  H+  H97  1  0.77426553  0.14426675  0.33833695  1
  H+  H98  1  0.22394175  0.38485253  0.65383280  1
  H+  H99  1  0.35466578  0.47265122  0.49502945  1
  H+  H100  1  0.81095747  0.94283182  0.69199146  1
  H+  H101  1  0.14291587  0.12066871  0.81515525  1
  H+  H102  1  0.87811625  0.10906687  0.33234505  1
  H+  H103  1  0.89258512  0.88262296  0.84717100  1
  H+  H104  1  0.27352994  0.64755350  0.67288900  1
  H+  H105  1  0.88118616  0.26035546  0.68318199  1
  H+  H106  1  0.83593939  0.85413602  0.69512007  1
  H+  H107  1  0.12766756  0.12126056  0.31737811  1
  H+  H108  1  0.66960638  0.38323514  0.32038801  1
  H+  H109  1  0.65448814  0.12400141  0.50819295  1
  H+  H110  1  0.64183218  0.63009355  0.99203364  1
  H+  H111  1  0.12708418  0.15416082  0.67030323  1
  H+  H112  1  0.39438913  0.27653345  0.48936142  1
  H+  H113  1  0.17287912  0.14470740  0.15387125  1
  H+  H114  1  0.87777429  0.38895854  0.83342283  1
  H+  H115  1  0.58297155  0.66021472  0.72812640  1
  H+  H116  1  0.48458135  0.87839312  0.33058665  1
  H+  H117  1  0.10644106  0.63700547  0.83263082  1
  H+  H118  1  0.70666016  0.83401782  0.66653335  1
  H+  H119  1  0.63479520  1.01436955  0.84655453  1
  H+  H120  1  0.34285767  0.20540071  0.33667736  1
  H+  H121  1  0.13640259  0.60993850  0.34077424  1
  H+  H122  1  0.27122503  0.88424589  0.66968994  1
  H+  H123  1  0.79750920  0.12717794  0.68442444  1
  H+  H124  1  0.38971962  0.11543409  1.00114408  1
  H+  H125  1  0.78056197  0.90172419  0.50076411  1
  H+  H126  1  0.25010180  0.12916211  0.17169704  1
  H+  H127  1  0.52400459  0.38636983  0.01116680  1
  H+  H128  1  0.88529125  0.60858629  0.66839953  1
  H+  H129  1  0.27330395  0.13654011  0.81494919  1
  H+  H130  1  0.84055468  0.17636663  0.39559755  1
  H+  H131  1  0.61594005  0.48694125  0.67301907  1
  H+  H132  1  0.82062885  -0.00482056  0.67847259  1
  H+  H133  1  0.38101201  0.63072780  0.66008435  1
  H+  H134  1  0.34651921  0.00694614  0.63731694  1
  H+  H135  1  0.87811206  1.01892902  0.33740122  1
  H+  H136  1  0.13452473  0.26452923  0.50002565  1
  H+  H137  1  0.65831587  0.40764916  0.65658169  1
  H+  H138  1  0.06637400  0.15983596  0.13876462  1
  H+  H139  1  0.52289340  0.64025578  0.15964348  1
  H+  H140  1  0.32207194  0.70963398  0.49901633  1
  H+  H141  1  0.23445640  0.85710950  0.31514961  1
  H+  H142  1  0.09821134  0.38835656  0.82248648  1
  H+  H143  1  0.57717681  0.21855312  0.15598886  1
  H+  H144  1  0.61082930  0.39009052  0.83168952  1
  H+  H145  1  0.92496977  0.58874267  0.27153366  1
  H+  H146  1  0.48906431  0.12581688  0.33290839  1
  H+  H147  1  0.21816698  0.60616496  0.84918393  1
  H+  H148  1  0.61690885  0.60441535  0.84596286  1
  H+  H149  1  0.11145289  0.48283504  0.17024523  1
  H+  H150  1  0.72572652  0.37049761  1.00720696  1
  H+  H151  1  0.26745078  0.31163807  0.78265275  1
  H+  H152  1  0.35670888  0.59931475  0.50626704  1
  H+  H153  1  0.57524179  0.42514923  0.33044881  1
  H+  H154  1  0.38376919  0.02485091  1.01033530  1
  H+  H155  1  0.00307949  0.84587686  0.64263608  1
  H+  H156  1  0.88612350  0.26449742  0.32176366  1
  H+  H157  1  0.48326076  0.60145537  0.33296660  1
  H+  H158  1  0.36824377  0.22596418  0.83032566  1
  H+  H159  1  0.36640997  0.97414651  0.34573080  1
  H+  H160  1  0.60930560  0.87719424  0.82712825  1
  H+  H161  1  0.94466675  0.47149193  0.80122315  1
  H+  H162  1  0.15723008  0.29781037  0.15742556  1
  H+  H163  1  0.21645829  0.59743355  -0.00338648  1
  H+  H164  1  0.12062852  0.51765336  1.00115690  1
  H+  H165  1  0.63068616  0.56471893  0.91250856  1
  H+  H166  1  0.39955486  0.29300231  0.17507775  1
  H+  H167  1  0.39707397  0.80617191  0.97403256  1
  H+  H168  1  0.84708684  0.98259609  0.82772977  1
  H+  H169  1  0.63062766  0.02936553  0.17752648  1
  H+  H170  1  0.09695435  0.24707731  0.99468125  1
  H+  H171  1  0.84814310  0.14742592  0.78400288  1
  H+  H172  1  0.11145205  0.72732461  1.00207071  1
  H+  H173  1  0.23320757  0.36110332  0.50405954  1
  H+  H174  1  0.57357392  0.65364768  0.43622482  1
  H+  H175  1  0.01470218  0.87314812  0.00791079  1
  H+  H176  1  0.11002851  0.97655994  0.15735303  1
  H+  H177  1  0.79165857  0.67526526  0.87141130  1
  H+  H178  1  0.76870753  0.14356602  0.01742390  1
  H+  H179  1  0.16532487  0.33909181  0.25824439  1
  H+  H180  1  0.66289488  0.51000719  0.34146767  1
  H+  H181  1  1.02881017  0.64011930  0.49375841  1
  H+  H182  1  1.03233616  0.63194229  0.33672056  1
  H+  H183  1  0.14477342  0.37929515  0.16708694  1
  H+  H184  1  0.89582800  0.63853374  0.51707943  1
  H+  H185  1  0.64647112  0.73400466  0.82400303  1
  H+  H186  1  0.14232112  0.03113288  0.81119107  1
  H+  H187  1  0.58859932  0.16541789  0.79741496  1
  H+  H188  1  0.84966303  0.13813293  0.17258739  1
  H+  H189  1  0.41010852  0.53872500  0.92122819  1
  H+  H190  1  1.01257890  0.62752112  1.00270962  1
  H+  H191  1  0.62862254  0.35700834  0.16179737  1
  H+  H192  1  0.89122639  0.52286663  0.66524516  1
  H+  H193  1  0.09196162  0.90156407  0.50381730  1
  H+  H194  1  0.70552250  0.35285631  0.26437933  1
  H+  H195  1  0.40132356  0.35105196  0.63859339  1
  H+  H196  1  0.36848129  0.88663109  0.34231951  1
  H+  H197  1  0.34698459  0.12935651  0.66268289  1
  H+  H198  1  0.76911301  0.88430953  0.35623581  1
  H+  H199  1  0.88216102  0.86537900  0.17956657  1
  H+  H200  1  0.87722379  0.73544519  0.17073439  1
  H+  H201  1  0.55153590  0.78228834  0.29643302  1
  H+  H202  1  0.38095053  0.02415296  0.83944542  1
  H+  H203  1  1.02417715  0.64036819  0.67760040  1
  H+  H204  1  0.71679333  0.29415138  0.17610372  1
  H+  H205  1  0.47118928  0.11488481  0.84802657  1
  H+  H206  1  0.71848351  0.86285386  0.17115666  1
  H+  H207  1  0.88451552  0.53575560  0.84909100  1
  H+  H208  1  0.72219855  0.86343193  0.84591656  1
  H+  H209  1  0.10373714  0.46572031  0.34291090  1
  H+  H210  1  0.75338676  0.40454341  0.65996354  1
  H+  H211  1  0.84567386  -0.02916786  0.16469128  1
  H+  H212  1  0.40755471  0.81986200  0.73789990  1
  H+  H213  1  0.36784445  0.63979734  0.17156056  1
  H+  H214  1  0.16610427  0.33514233  0.56394582  1
  H+  H215  1  0.57917735  0.20931567  0.66126961  1
  H+  H216  1  0.87163263  0.11652062  -0.00632800  1
  H+  H217  1  0.92130696  0.59784611  0.57205699  1
  H+  H218  1  0.21712651  0.36249055  0.32113693  1
  H+  H219  1  0.47721294  0.86590547  0.17020332  1
  H+  H220  1  0.51113516  0.59229974  0.00409060  1
  H+  H221  1  0.98195177  0.35962137  0.32230690  1
  H+  H222  1  0.88360603  0.64686908  0.34259183  1
  H+  H223  1  0.62589897  0.24051403  0.33944301  1
  H+  H224  1  0.97034569  0.62391310  0.84816217  1
  H+  H225  1  0.89052382  0.52740291  1.00542165  1
  H+  H226  1  0.37281519  0.12466340  0.83088643  1
  H+  H227  1  0.22617474  0.61288618  0.18866888  1
  H+  H228  1  0.17607365  0.59635424  0.60025966  1
  H+  H229  1  0.10980323  0.89078814  0.82619583  1
  H+  H230  1  0.12768991  0.24521370  0.66933303  1
  H+  H231  1  0.39519630  0.60315455  0.33602842  1
  H+  H232  1  0.17229516  0.09632489  0.59757756  1
  H+  H233  1  0.42396721  0.58803521  0.23848397  1
  H+  H234  1  0.88030473  0.86047568  0.99844672  1
  H+  H235  1  0.77176018  0.63774771  0.33985213  1
  H+  H236  1  0.61006227  0.71512077  0.33739406  1
  H+  H237  1  0.15060872  0.76715499  0.31086441  1
  H+  H238  1  0.36003508  -0.03094600  0.17306464  1
  H+  H239  1  0.17840985  0.07897887  1.07808558  1
  H+  H240  1  0.87724628  0.49975142  0.49959316  1
  H+  H241  1  0.88051414  0.71901885  0.66559276  1
  H+  H242  1  0.38173401  0.35148527  0.83834462  1
  H+  H243  1  0.84945025  0.38760377  0.01932750  1
  H+  H244  1  0.76442945  0.14397163  0.16829710  1
  H+  H245  1  0.51271865  0.20789965  0.61703396  1
  H+  H246  1  0.66232707  0.34889364  0.90708420  1
  H+  H247  1  0.66665404  0.09370761  0.27208025  1
  H+  H248  1  0.15288462  0.57502775  0.90388614  1
  H+  H249  1  0.43080880  0.33066473  0.54963900  1
  H+  H250  1  0.63529533  0.27723146  0.00192726  1
  H+  H251  1  0.72447912  0.61777664  0.65844318  1
  H+  H252  1  0.61318040  0.89086010  0.16035909  1
  H+  H253  1  0.51950542  0.13880084  1.01033400  1
  H+  H254  1  0.53916869  0.39337478  0.48370917  1
  H+  H255  1  0.62630217  0.11598922  0.17658272  1
  H+  H256  1  1.01564849  0.14036081  0.34152758  1
  H+  H257  1  0.59026009  0.92981985  0.10339654  1
  H+  H258  1  0.49064259  0.87631088  0.65895160  1
  H+  H259  1  0.88241438  0.30033153  0.61965763  1
  H+  H260  1  0.45242497  0.22984716  0.14060318  1
  H+  H261  1  0.21853879  0.85879950  0.84443119  1
  H+  H262  1  0.53735327  0.38900709  0.66945558  1
  H+  H263  1  0.11386100  0.64212285  0.67589008  1
  H+  H264  1  0.35724427  0.46617837  0.34029484  1
  H+  H265  1  0.63047887  0.24052159  0.49853675  1
  H+  H266  1  0.20405777  0.35973816  0.83968972  1
  H+  H267  1  0.35359346  0.50848754  0.67461348  1
  H+  H268  1  0.38792936  0.77412244  0.17435105  1
  H+  H269  1  0.09863409  0.15892641  -0.01481253  1
  H+  H270  1  0.38266230  0.85591524  0.50455073  1
  H+  H271  1  0.61308169  0.87465794  0.66880298  1
  H+  H272  1  0.39378234  0.53418691  0.17641302  1
  H+  H273  1  0.03187029  0.14777159  0.49024356  1
  H+  H274  1  0.11043645  0.99222597  0.34497010  1
  H+  H275  1  0.37624524  0.40682923  0.15871610  1
  H+  H276  1  0.60094867  0.62558433  0.66735666  1
  H+  H277  1  0.88187414  0.14937691  0.48635270  1
  H+  H278  1  0.63461274  0.03137688  1.00401005  1
  H+  H279  1  0.34943939  0.90430445  0.87967724  1
  H+  H280  1  0.11280660  0.76845087  0.16495880  1
  H+  H281  1  0.65555498  0.37921780  0.50509036  1
  H+  H282  1  0.91436752  0.33226692  0.25871639  1
  H+  H283  1  0.59620798  0.49931582  0.84807906  1
  H+  H284  1  0.62767728  0.84049522  0.99436244  1
  H+  H285  1  0.11698015  0.98381807  0.66966407  1
  H+  H286  1  0.63057748  0.63823399  0.34338107  1
  H+  H287  1  0.77440413  0.66443144  0.50872532  1
  H+  H288  1  0.70377923  0.70114234  0.79198197  1
  H+  H289  1  0.61028164  0.43210938  0.43100057  1
  H+  H290  1  0.65600626  0.81667778  0.90013170  1
  H+  H291  1  0.89139813  0.10022614  0.89309894  1
  H+  H292  1  0.57037788  0.65613710  0.05960760  1
  H+  H293  1  0.41170376  0.82554638  0.89852545  1
  H+  H294  1  0.66651480  0.08373916  0.94263325  1
  H+  H295  1  0.82406722  0.91638301  0.10265379  1
  H+  H296  1  0.85581018  0.65072117  0.84221805  1
  H+  H297  1  0.89206296  0.07021000  0.24648478  1
  H+  H298  1  0.43610880  0.35581430  0.93659231  1
  H+  H299  1  0.34391096  0.17109296  0.72707710  1
  H+  H300  1  0.34218974  0.93831711  0.72005987  1
  H+  H301  1  0.91006982  0.05917022  0.65194932  1
  H+  H302  1  0.11957329  0.09736068  0.92195116  1
  H+  H303  1  0.83926158  0.42002155  0.73928071  1
  H+  H304  1  0.83776447  0.68209481  0.73049495  1
  H+  H305  1  0.33107505  0.15490306  0.40391115  1
  H+  H306  1  0.59714422  0.91816915  0.72767991  1
  H+  H307  1  0.11399743  0.27456971  0.83901510  1
  H+  H308  1  0.45358075  0.82484207  0.90010933  1
  H+  H309  1  0.01324524  0.62651579  0.17031502  1
  H+  H310  1  0.07541847  0.17749415  0.76363500  1
  H+  H311  1  0.61194792  0.14399596  0.00996744  1
  H+  H312  1  -0.03985255  0.12028707  -0.01597562  1
  H+  H313  1  0.61805990  0.37308597  1.01261783  1
  H+  H314  1  0.10925523  0.19445279  0.07644822  1
  H+  H315  1  0.79379326  0.65480546  0.14490379  1
  H+  H316  1  0.64633003  0.53468502  0.50607715  1
  H+  H317  1  0.12849813  0.77191844  0.84324960  1
  H+  H318  1  0.81608251  0.90312865  0.77996347  1
  H+  H319  1  0.07104934  0.42547811  0.07474866  1
  H+  H320  1  0.31254895  0.40717706  0.76231704  1
  H+  H321  1  0.25026863  0.62241403  0.39196770  1
  H+  H322  1  0.69694720  0.38086867  0.59039007  1
  H+  H323  1  0.41281365  0.08514305  0.54819488  1
  H+  H324  1  0.41255080  0.82360681  0.56239593  1
  H+  H325  1  0.17072974  0.55590315  0.49939219  1
  H+  H326  1  0.34517760  0.58178677  0.02223857  1
  H+  H327  1  0.32611451  0.65608777  0.11340986  1
  H+  H328  1  0.93449856  0.10170010  0.55907084  1
  H+  H329  1  0.13363040  0.82326901  0.57603808  1
  H+  H330  1  0.42425768  0.84116754  0.27258060  1
  H+  H331  1  0.15823660  0.14198232  0.92050414  1
  H+  H332  1  0.62447211  0.75056263  0.99066094  1
  H+  H333  1  0.15424150  0.08762604  0.25940654  1
  H+  H334  1  0.37343921  0.19233194  0.09599707  1
  H+  H335  1  0.76741726  0.88178949  0.00681606  1
  H+  H336  1  0.79863491  0.72110159  -0.02851974  1
  H+  H337  1  0.28855993  0.02604174  0.59396766  1
  H+  H338  1  0.64309220  0.13712597  0.73395854  1
  H+  H339  1  0.09989281  0.88138130  0.15848908  1
  H+  H340  1  0.39723136  0.58200624  0.56488543  1
  H+  H341  1  0.62152195  0.15018167  0.34346046  1
  H+  H342  1  0.41396615  0.34062370  0.23741228  1
  H+  H343  1  0.02159619  0.39429739  0.16720384  1
  H+  H344  1  0.56805811  0.37704158  0.07695753  1
  H+  H345  1  0.58705008  0.42402646  0.76912770  1
  H+  H346  1  0.31936753  0.40870202  0.39991972  1
  H+  H347  1  0.32061151  0.90507268  0.11170151  1
  H+  H348  1  0.09095925  0.66753670  0.39696833  1
  H+  H349  1  0.65740386  0.53831959  0.13220099  1
  H+  H350  1  0.86819076  0.51274431  0.18324779  1
  H+  H351  1  0.61072333  -0.01823525  0.49560379  1
  H+  H352  1  0.36337167  0.87878960  0.81487329  1
  H+  H353  1  0.84735920  0.43955420  0.40476304  1
  H+  H354  1  0.89679992  0.79220140  0.56374492  1
  H+  H355  1  0.57247547  0.16421100  0.09797046  1
  H+  H356  1  0.07831811  0.66724520  0.77271952  1
  H+  H357  1  0.10290383  0.37660576  0.33438622  1
  H+  H358  1  0.35896562  0.61721543  0.85616856  1
  H+  H359  1  0.36531734  0.38766877  0.49074431  1
  H+  H360  1  0.16250491  0.83160248  0.93993926  1
  H+  H361  1  0.82932743  0.17074131  0.07618159  1
  H+  H362  1  0.91724019  0.83988525  0.27574589  1
  H+  H363  1  0.07693508  0.42174676  0.72837475  1
  H+  H364  1  0.42512516  0.08531320  0.27488270  1
  H+  H365  1  0.58877305  0.93051734  0.40380656  1
  H+  H366  1  0.83359660  0.91879458  0.41289337  1
  H+  H367  1  0.60072783  0.13357756  0.72503378  1
  H+  H368  1  0.14382579  0.34580478  0.93357581  1
  H+  H369  1  0.08982052  0.18211749  0.42930320  1
  H+  H370  1  0.16767783  0.57871566  0.24780276  1
  H+  H371  1  0.91673437  0.58539532  0.94415144  1
  H+  H372  1  0.85783437  0.88244986  0.49846085  1
  H+  H373  1  0.71093197  0.07805883  0.59879728  1
  H+  H374  1  0.60085204  0.18484357  0.43740560  1
  H+  H375  1  0.66574281  0.58703376  0.59808090  1
  H+  H376  1  0.70534146  0.60760896  0.27961377  1
  H+  H377  1  0.90560280  0.33241745  0.94557220  1
  H+  H378  1  0.36243676  0.73556031  0.66623255  1
  H+  H379  1  0.08291955  0.94296241  0.44095275  1
  H+  H380  1  0.52189839  0.88931036  0.49353410  1
  H+  H381  1  0.81656045  0.41422127  0.08004505  1
  H+  H382  1  0.04486072  0.39873422  0.43013230  1
  H+  H383  1  0.08448133  0.92320910  0.72909619  1
  O2-  O384  1  0.12306407  0.19719314  0.12174630  1
  O2-  O385  1  0.09334199  0.18307705  0.47537086  1
  O2-  O386  1  0.07046955  0.17419940  0.80890533  1
  O2-  O387  1  0.08127424  0.42381073  0.15122100  1
  O2-  O388  1  0.04765388  0.41143081  0.47460882  1
  O2-  O389  1  0.06672111  0.41801611  0.80758313  1
  O2-  O390  1  0.07290799  0.66116842  0.15486933  1
  O2-  O391  1  0.08740063  0.67638896  0.47675037  1
  O2-  O392  1  0.07622053  0.66766275  0.81825595  1
  O2-  O393  1  0.07187043  0.91735658  0.14384626  1
  O2-  O394  1  0.08414373  0.94815118  0.48717181  1
  O2-  O395  1  0.08317014  0.92220243  0.80752776  1
  O2-  O396  1  0.38941836  0.19468706  0.14070511  1
  O2-  O397  1  0.33577329  0.16753076  0.46793388  1
  O2-  O398  1  0.34064857  0.16612669  0.81191916  1
  O2-  O399  1  0.34892879  0.43928882  0.14333467  1
  O2-  O400  1  0.32773612  0.41182769  0.47914709  1
  O2-  O401  1  0.30022561  0.36973563  0.79915356  1
  O2-  O402  1  0.33539758  0.66894454  0.15673024  1
  O2-  O403  1  0.28640902  0.64760153  0.48535165  1
  O2-  O404  1  0.33535975  0.65667410  0.84700684  1
  O2-  O405  1  0.33271400  0.90759471  0.15736834  1
  O2-  O406  1  0.34400407  0.91398149  0.48064532  1
  O2-  O407  1  0.34023841  0.91207788  0.83691935  1
  O2-  O408  1  0.56704542  0.16174653  0.14424376  1
  O2-  O409  1  0.59913449  0.18082140  0.48279575  1
  O2-  O410  1  0.57823481  0.16130806  0.84140055  1
  O2-  O411  1  0.56896669  0.33666145  0.14685079  1
  O2-  O412  1  0.60215123  0.42585497  0.47593397  1
  O2-  O413  1  0.57907119  0.41954029  0.81426985  1
  O2-  O414  1  0.57892530  0.67331558  0.13748216  1
  O2-  O415  1  0.56922752  0.64834979  0.48094207  1
  O2-  O416  1  0.64436729  0.68196696  0.80368579  1
  O2-  O417  1  0.58355771  0.92396543  0.14747763  1
  O2-  O418  1  0.58189974  0.92257508  0.47823226  1
  O2-  O419  1  0.58699891  0.91456753  0.81096210  1
  O2-  O420  1  0.82578865  0.17278197  0.15479975  1
  O2-  O421  1  0.85240851  0.18054197  0.47088794  1
  O2-  O422  1  0.84335340  0.14416381  0.83011029  1
  O2-  O423  1  0.81405172  0.40685774  0.15557282  1
  O2-  O424  1  0.84890292  0.43859383  0.48536330  1
  O2-  O425  1  0.88349052  0.44007397  0.81116747  1
  O2-  O426  1  0.85527373  0.67793195  0.15197141  1
  O2-  O427  1  0.83816281  0.70221133  0.50301968  1
  O2-  O428  1  0.82486972  0.68258783  0.83356319  1
  O2-  O429  1  0.81929995  0.91162296  0.14800963  1
  O2-  O430  1  0.84234878  0.92522994  0.48454451  1
  O2-  O431  1  0.82418112  0.92007923  0.82484268  1
  O2-  O432  1  0.18778341  0.10062227  0.16727333  1
  O2-  O433  1  0.18394956  0.09966514  0.52061513  1
  O2-  O434  1  0.17902789  0.09490168  0.80673612  1
  O2-  O435  1  0.18075415  0.35341867  0.17937591  1
  O2-  O436  1  0.17023984  0.32986673  0.51804563  1
  O2-  O437  1  0.14386558  0.33615991  0.85276523  1
  O2-  O438  1  0.16591266  0.57963997  0.20254134  1
  O2-  O439  1  0.20139975  0.61455437  0.51626509  1
  O2-  O440  1  0.15584421  0.57913447  0.85847945  1
  O2-  O441  1  0.14273691  0.83150136  0.17414600  1
  O2-  O442  1  0.09157613  0.81012520  0.54297068  1
  O2-  O443  1  0.15880479  0.83254922  0.85897658  1
  O2-  O444  1  0.41017296  0.06709103  0.19495553  1
  O2-  O445  1  0.42714326  0.09656869  0.50450554  1
  O2-  O446  1  0.40656999  0.08598179  0.85011205  1
  O2-  O447  1  0.42969958  0.35091014  0.19374606  1
  O2-  O448  1  0.42619943  0.33675065  0.50503564  1
  O2-  O449  1  0.41577883  0.32650146  0.85482590  1
  O2-  O450  1  0.42390514  0.59439326  0.19351229  1
  O2-  O451  1  0.39118549  0.57337838  0.51988272  1
  O2-  O452  1  0.39826816  0.55550580  0.87979853  1
  O2-  O453  1  0.41692017  0.83659680  0.18589868  1
  O2-  O454  1  0.40655024  0.81753903  0.51786369  1
  O2-  O455  1  0.40583673  0.81971136  0.78275758  1
  O2-  O456  1  0.65922126  0.08957331  0.19290165  1
  O2-  O457  1  0.68218064  0.08952325  0.51801832  1
  O2-  O458  1  0.66617371  0.07298385  0.86539510  1
  O2-  O459  1  0.72421741  0.35174847  0.18085860  1
  O2-  O460  1  0.68639024  0.35226507  0.52577591  1
  O2-  O461  1  0.65562558  0.34312744  0.86244026  1
  O2-  O462  1  0.67689368  0.59588371  0.11672296  1
  O2-  O463  1  0.66794445  0.59239178  0.52418798  1
  O2-  O464  1  0.59749269  0.54991150  0.87244260  1
  O2-  O465  1  0.65586247  0.83395992  0.18346031  1
  O2-  O466  1  0.68758414  0.86188784  0.52174214  1
  O2-  O467  1  0.65937854  0.82297897  0.85478739  1
  O2-  O468  1  0.88822764  0.07214155  0.20011360  1
  O2-  O469  1  0.93175983  0.09525825  0.51387738  1
  O2-  O470  1  0.89215638  0.10056383  0.84685876  1
  O2-  O471  1  0.90931916  0.33982179  0.19163633  1
  O2-  O472  1  0.95593670  0.36227417  0.49460858  1
  O2-  O473  1  0.91116250  0.31988001  0.86510422  1
  O2-  O474  1  0.90578687  0.57299401  0.19755745  1
  O2-  O475  1  0.92166167  0.60247572  0.52684645  1
  O2-  O476  1  0.91066274  0.59495858  0.86487236  1
  O2-  O477  1  0.91629804  0.84161819  0.19770066  1
  O2-  O478  1  0.85327753  0.78277892  0.53176095  1
  O2-  O479  1  0.92629849  0.85441008  0.85900361  1
  O2-  O480  1  0.15876898  0.09184298  0.30372156  1
  O2-  O481  1  0.16748740  0.09406453  0.64334048  1
  O2-  O482  1  0.18172682  0.08730914  1.03377307  1
  O2-  O483  1  0.15818702  0.33377916  0.30347240  1
  O2-  O484  1  0.16520987  0.34684555  0.63687062  1
  O2-  O485  1  0.14274711  0.34057385  0.97841731  1
  O2-  O486  1  0.16238842  0.56927680  0.32782211  1
  O2-  O487  1  0.16735244  0.59175109  0.64475208  1
  O2-  O488  1  0.15715046  0.57753993  0.98264412  1
  O2-  O489  1  0.18061659  0.82417365  0.29185481  1
  O2-  O490  1  0.17351773  0.83654846  0.65420817  1
  O2-  O491  1  0.16145123  0.82704913  0.98523420  1
  O2-  O492  1  0.42701031  0.09231011  0.31981682  1
  O2-  O493  1  0.34477278  0.05421825  0.61373826  1
  O2-  O494  1  0.41875303  0.08229317  0.99232136  1
  O2-  O495  1  0.38206460  0.30934762  0.31683608  1
  O2-  O496  1  0.43664220  0.32548970  0.62976848  1
  O2-  O497  1  0.44060131  0.36728500  0.98095830  1
  O2-  O498  1  0.42192945  0.57256021  0.31791423  1
  O2-  O499  1  0.40534620  0.59365702  0.64399920  1
  O2-  O500  1  0.43269789  0.51091652  0.98807651  1
  O2-  O501  1  0.42417868  0.84176512  0.31724455  1
  O2-  O502  1  0.42713093  0.84410099  0.64945723  1
  O2-  O503  1  0.40369521  0.80456241  1.01834686  1
  O2-  O504  1  0.67245166  0.09771259  0.31722031  1
  O2-  O505  1  0.72616813  0.06564029  0.63914726  1
  O2-  O506  1  0.66429938  0.09034169  0.98781115  1
  O2-  O507  1  0.69054273  0.34350609  0.30807409  1
  O2-  O508  1  0.70962985  0.41031069  0.63324191  1
  O2-  O509  1  0.66390660  0.33979472  0.99019224  1
  O2-  O510  1  0.70206225  0.60455731  0.32385026  1
  O2-  O511  1  0.66397678  0.58484132  0.64429679  1
  O2-  O512  1  0.68414556  0.61046190  0.97564155  1
  O2-  O513  1  0.61371261  0.80898532  0.30118301  1
  O2-  O514  1  0.65243580  0.81673490  0.64319931  1
  O2-  O515  1  0.65878379  0.81248680  0.97838621  1
  O2-  O516  1  0.90726791  0.07720705  0.31777206  1
  O2-  O517  1  0.94527668  0.11861332  0.63704228  1
  O2-  O518  1  0.89872069  0.08783936  0.97108005  1
  O2-  O519  1  0.91921861  0.32643084  0.30563612  1
  O2-  O520  1  0.90123613  0.31782915  0.66137464  1
  O2-  O521  1  0.90332039  0.33716504  0.99054299  1
  O2-  O522  1  0.93359138  0.59563611  0.31688003  1
  O2-  O523  1  0.91950209  0.58353757  0.65142106  1
  O2-  O524  1  0.92746103  0.58610239  0.98868103  1
  O2-  O525  1  0.91717547  0.83631769  0.32112671  1
  O2-  O526  1  0.96333246  0.79356226  0.61903716  1
  O2-  O527  1  0.90191543  0.82324442  0.98206839  1
  O2-  O528  1  0.06939755  0.18313469  0.00863565  1
  O2-  O529  1  0.07681688  0.17445771  0.35468451  1
  O2-  O530  1  0.09804051  0.18582119  0.68630234  1
  O2-  O531  1  0.06768504  0.42559537  0.02915036  1
  O2-  O532  1  0.06827076  0.40197146  0.35109088  1
  O2-  O533  1  0.07786783  0.42109775  0.68275806  1
  O2-  O534  1  0.08117220  0.66401054  0.01418958  1
  O2-  O535  1  0.09356249  0.65752785  0.35267121  1
  O2-  O536  1  0.08425091  0.67142928  0.69392943  1
  O2-  O537  1  0.07547489  0.90296877  0.02204282  1
  O2-  O538  1  0.08342022  0.93834381  0.36893926  1
  O2-  O539  1  0.09175469  0.92344542  0.68399137  1
  O2-  O540  1  0.35157926  0.19193258  0.02467121  1
  O2-  O541  1  0.33120959  0.14967928  0.35559343  1
  O2-  O542  1  0.33720895  0.17376324  0.68265689  1
  O2-  O543  1  0.36111367  0.50210957  0.02679149  1
  O2-  O544  1  0.31903081  0.40582206  0.35450483  1
  O2-  O545  1  0.32234734  0.44496360  0.69019426  1
  O2-  O546  1  0.33348546  0.62949344  0.00838230  1
  O2-  O547  1  0.25252851  0.60862098  0.34882421  1
  O2-  O548  1  0.33469849  0.67822031  0.68587557  1
  O2-  O549  1  0.31834424  0.90452056  0.03975447  1
  O2-  O550  1  0.33432864  0.91338937  0.35773987  1
  O2-  O551  1  0.33586784  0.92422575  0.67691542  1
  O2-  O552  1  0.58129884  0.17391963  0.02510277  1
  O2-  O553  1  0.59221057  0.18207016  0.35778600  1
  O2-  O554  1  0.54464209  0.23634467  0.65366291  1
  O2-  O555  1  0.58024463  0.39991701  0.03424619  1
  O2-  O556  1  0.62921942  0.44501713  0.35197696  1
  O2-  O557  1  0.59384289  0.42661259  0.68915732  1
  O2-  O558  1  0.57135757  0.64686070  0.01494317  1
  O2-  O559  1  0.58763509  0.65645689  0.35380616  1
  O2-  O560  1  0.56774339  0.65192527  0.68459332  1
  O2-  O561  1  0.57596573  0.90763161  0.00429437  1
  O2-  O562  1  0.59252813  0.93677255  0.35802737  1
  O2-  O563  1  0.59192558  0.91472564  0.68276887  1
  O2-  O564  1  0.82979274  0.17244812  0.03070264  1
  O2-  O565  1  0.83708317  0.17297892  0.34986449  1
  O2-  O566  1  0.85279685  0.16692116  0.70792050  1
  O2-  O567  1  0.81945632  0.41858980  0.03369375  1
  O2-  O568  1  0.85368759  0.43965086  0.36014608  1
  O2-  O569  1  0.83250743  0.41510269  0.69405449  1
  O2-  O570  1  0.74889956  0.68852343  -0.05674884  1
  O2-  O571  1  0.85071117  0.67415873  0.35928872  1
  O2-  O572  1  0.83499798  0.66729856  0.68738191  1
  O2-  O573  1  0.82634531  0.91789776  0.02338909  1
  O2-  O574  1  0.82991012  0.91801642  0.36633371  1
  O2-  O575  1  0.79414206  0.86762346  0.71238360  1
