# generated using pymatgen
data_H2O
_symmetry_space_group_name_H-M   'P 1'
_cell_length_a   17.98798635
_cell_length_b   17.98828251
_cell_length_c   21.97932641
_cell_angle_alpha   90.04919923
_cell_angle_beta   89.99903881
_cell_angle_gamma   120.00265150
_symmetry_Int_Tables_number   1
_chemical_formula_structural   H2O
_chemical_formula_sum   'H384 O192'
_cell_volume   6158.93252052
_cell_formula_units_Z   192
loop_
 _symmetry_equiv_pos_site_id
 _symmetry_equiv_pos_as_xyz
  1  'x, y, z'
loop_
 _atom_type_symbol
 _atom_type_oxidation_number
  H+  1.0
  O2-  -2.0
loop_
 _atom_site_type_symbol
 _atom_site_label
 _atom_site_symmetry_multiplicity
 _atom_site_fract_x
 _atom_site_fract_y
 _atom_site_fract_z
 _atom_site_occupancy
  H+  H0  1  0.88453461  0.27726055  0.16882858  1
  H+  H1  1  0.86328376  0.13777578  0.67153783  1
  H+  H2  1  0.59105370  0.56665441  0.97797242  1
  H+  H3  1  0.02559987  0.87628367  0.18679194  1
  H+  H4  1  0.86816976  0.76086953  0.83846839  1
  H+  H5  1  0.13883197  0.61965206  0.32363305  1
  H+  H6  1  0.62934740  0.76648584  0.65673425  1
  H+  H7  1  0.61534291  0.89296694  0.01501756  1
  H+  H8  1  0.09584415  0.12687991  0.15747584  1
  H+  H9  1  0.13878658  0.53533585  0.32969655  1
  H+  H10  1  0.68719808  0.10936065  0.26826356  1
  H+  H11  1  0.85596795  0.63223836  0.83322429  1
  H+  H12  1  0.39098974  0.03765554  1.00116645  1
  H+  H13  1  0.58536167  0.41815145  0.72424255  1
  H+  H14  1  0.59626871  0.72576909  0.48224321  1
  H+  H15  1  0.35888502  0.23054872  0.65887835  1
  H+  H16  1  0.62196226  0.48021658  -0.00623466  1
  H+  H17  1  0.11619307  0.12458989  0.00311923  1
  H+  H18  1  0.62668423  0.15289576  0.33877073  1
  H+  H19  1  0.02946909  0.38815058  0.69347313  1
  H+  H20  1  -0.01321397  0.61261126  0.01796326  1
  H+  H21  1  0.13682359  0.11174104  0.32581522  1
  H+  H22  1  0.63021559  0.48655692  0.15605890  1
  H+  H23  1  0.26403248  0.48879891  0.37321236  1
  H+  H24  1  0.11653474  0.01566560  0.17596513  1
  H+  H25  1  0.52356269  0.14191391  1.00935196  1
  H+  H26  1  0.37578547  0.60882013  -0.00392824  1
  H+  H27  1  0.91584947  0.33873853  0.25716462  1
  H+  H28  1  0.20579450  0.10246054  0.17132020  1
  H+  H29  1  0.27753159  0.65155432  0.33931103  1
  H+  H30  1  0.16394240  0.33055371  0.09163111  1
  H+  H31  1  0.11227027  0.36935305  0.84775111  1
  H+  H32  1  0.61567152  0.90589666  0.16691196  1
  H+  H33  1  0.48411465  0.60920065  0.31049160  1
  H+  H34  1  0.87571801  0.61046548  0.32306365  1
  H+  H35  1  0.52046199  0.89178105  0.16488760  1
  H+  H36  1  0.84032339  0.59172618  0.17275806  1
  H+  H37  1  0.46853263  0.36675470  0.85062544  1
  H+  H38  1  0.33100124  0.83777802  0.71193307  1
  H+  H39  1  0.87574220  0.27425022  0.99683606  1
  H+  H40  1  0.84737883  0.71440771  1.00841324  1
  H+  H41  1  0.26851409  0.13952579  0.65908741  1
  H+  H42  1  0.65279147  0.82947665  0.12621965  1
  H+  H43  1  0.12481469  0.87948651  0.84094098  1
  H+  H44  1  0.97630211  0.34439543  0.84675797  1
  H+  H45  1  0.10673423  0.97848609  0.33213222  1
  H+  H46  1  0.82419893  0.40988031  0.09123803  1
  H+  H47  1  0.11944180  0.76300053  0.66017567  1
  H+  H48  1  0.86510334  0.48640377  0.83468611  1
  H+  H49  1  -0.00232006  0.11236113  -0.00835383  1
  H+  H50  1  0.13295351  0.09132961  0.84460539  1
  H+  H51  1  0.77142433  0.63617072  0.67550017  1
  H+  H52  1  0.16629123  0.61428906  0.89960069  1
  H+  H53  1  0.23161714  0.35937447  0.85640673  1
  H+  H54  1  0.75019758  0.87558015  0.84579101  1
  H+  H55  1  0.00684071  0.09067218  0.82232426  1
  H+  H56  1  -0.11361761  0.77116660  0.19803705  1
  H+  H57  1  0.38949907  0.25523612  0.02460717  1
  H+  H58  1  0.72430495  0.85557357  0.49951659  1
  H+  H59  1  0.38262398  0.78094334  -0.00459411  1
  H+  H60  1  0.60373036  0.22574889  0.15986300  1
  H+  H61  1  0.36849063  0.39291918  0.00246703  1
  H+  H62  1  0.02238152  0.88634587  0.32362971  1
  H+  H63  1  0.36978113  0.38086669  0.48346932  1
  H+  H64  1  0.36923555  0.59900640  0.49406933  1
  H+  H65  1  0.88543877  0.85246118  0.49409772  1
  H+  H66  1  0.86298471  0.50830875  0.99378848  1
  H+  H67  1  0.37103750  0.89568312  -0.00184538  1
  H+  H68  1  0.78553384  0.62123853  0.51000492  1
  H+  H69  1  0.61664121  0.23627518  0.33849015  1
  H+  H70  1  0.37125156  0.08630176  0.16712795  1
  H+  H71  1  0.41263690  0.58155517  0.94013145  1
  H+  H72  1  0.63501428  1.02497570  -0.00415866  1
  H+  H73  1  0.38569243  0.14456664  0.85314393  1
  H+  H74  1  0.15131435  0.89981295  0.30156823  1
  H+  H75  1  0.01188912  0.87500520  0.82860266  1
  H+  H76  1  0.49226112  0.12773723  0.32960728  1
  H+  H77  1  0.89647432  0.60067834  0.51821818  1
  H+  H78  1  0.36077905  -0.03725011  0.15122294  1
  H+  H79  1  0.25038920  0.88246726  0.99001669  1
  H+  H80  1  0.66221990  0.66317129  1.02111500  1
  H+  H81  1  0.39415265  1.02340917  0.32081879  1
  H+  H82  1  0.75622933  0.62865106  0.01091654  1
  H+  H83  1  1.01416148  0.62755556  0.68785614  1
  H+  H84  1  0.85186579  0.35708905  0.34348179  1
  H+  H85  1  0.36406948  0.48104197  0.67829055  1
  H+  H86  1  0.38482926  0.85445520  0.16239251  1
  H+  H87  1  0.38782450  0.76636080  0.16849582  1
  H+  H88  1  0.13698540  0.61116329  0.50256007  1
  H+  H89  1  0.62389202  0.29301887  0.91579137  1
  H+  H90  1  0.11275847  0.14156562  0.66992392  1
  H+  H91  1  0.47824358  0.60410120  0.16387143  1
  H+  H92  1  0.71913896  0.10593464  0.66965339  1
  H+  H93  1  0.12174777  0.38831484  0.68876681  1
  H+  H94  1  0.81404843  0.41237386  0.74480452  1
  H+  H95  1  0.11883978  0.59994851  0.67815078  1
  H+  H96  1  0.76867308  0.14429514  0.16434544  1
  H+  H97  1  0.40361812  0.50616208  0.30833806  1
  H+  H98  1  0.66526002  0.33272811  0.60261641  1
  H+  H99  1  0.36354969  0.74179790  0.34025630  1
  H+  H100  1  0.62994827  0.39659062  0.15480978  1
  H+  H101  1  0.61905782  0.63280429  0.67308329  1
  H+  H102  1  0.97526359  0.10034618  0.50269947  1
  H+  H103  1  0.33750869  0.19216075  0.18142230  1
  H+  H104  1  0.48004300  0.37214393  0.99021464  1
  H+  H105  1  0.63081914  0.52290691  0.84752574  1
  H+  H106  1  0.40003842  0.17248644  0.03455804  1
  H+  H107  1  0.90996012  0.22390092  0.38382619  1
  H+  H108  1  0.39672231  0.26241994  0.30064611  1
  H+  H109  1  0.02870196  0.87903201  0.48146205  1
  H+  H110  1  0.88373307  0.10787687  0.84828769  1
  H+  H111  1  0.61783810  0.13770071  0.49628960  1
  H+  H112  1  0.34649009  0.70767303  0.68317717  1
  H+  H113  1  0.97562407  0.36606543  0.16712986  1
  H+  H114  1  0.13188429  0.82579344  0.15207477  1
  H+  H115  1  0.76468102  0.62063271  0.34699145  1
  H+  H116  1  0.86658868  -0.02269705  0.16469444  1
  H+  H117  1  0.22635371  0.35674349  0.46701017  1
  H+  H118  1  0.60459980  0.72836025  0.32502013  1
  H+  H119  1  0.50257561  0.63852482  0.47979784  1
  H+  H120  1  0.11974747  0.61283377  0.00092414  1
  H+  H121  1  0.87289210  0.46850852  0.50549200  1
  H+  H122  1  0.37082014  0.25504909  0.84056075  1
  H+  H123  1  0.02225752  0.88746168  0.68901179  1
  H+  H124  1  0.23571336  0.61492060  0.49549481  1
  H+  H125  1  0.47115660  0.85276564  0.68632715  1
  H+  H126  1  0.90711557  0.83891178  0.75268592  1
  H+  H127  1  0.46494567  0.09767821  0.16286481  1
  H+  H128  1  0.86850194  0.88861059  0.17236212  1
  H+  H129  1  0.59087790  0.17045028  0.43603726  1
  H+  H130  1  0.26457012  0.64315254  1.00614021  1
  H+  H131  1  0.22645413  0.37105164  0.67726183  1
  H+  H132  1  0.48404099  0.86604074  0.49040698  1
  H+  H133  1  0.63394170  0.12529249  0.17672291  1
  H+  H134  1  0.47976343  0.10918276  0.66300021  1
  H+  H135  1  0.07755504  0.14933862  0.43245011  1
  H+  H136  1  0.47293919  0.86758414  0.99657727  1
  H+  H137  1  0.63421845  0.11329712  0.99396576  1
  H+  H138  1  0.38868566  0.26861214  0.51909116  1
  H+  H139  1  0.09727513  0.69053757  0.16950594  1
  H+  H140  1  0.76779525  0.64120636  0.16624822  1
  H+  H141  1  0.86526528  0.96672531  0.48583541  1
  H+  H142  1  0.72876431  0.10524234  0.84318402  1
  H+  H143  1  0.13048546  0.59601147  0.17570090  1
  H+  H144  1  0.72473248  0.35692086  0.32893793  1
  H+  H145  1  0.87089808  0.88433432  1.00814330  1
  H+  H146  1  0.60421620  0.88061546  0.67345779  1
  H+  H147  1  0.23411882  0.12870492  0.85278168  1
  H+  H148  1  0.86693494  0.71206779  0.49636179  1
  H+  H149  1  0.13597390  0.27028890  0.47480592  1
  H+  H150  1  0.22492293  0.10268663  0.51832755  1
  H+  H151  1  0.16475128  0.68786678  0.82425059  1
  H+  H152  1  0.48142214  0.11131793  0.50691333  1
  H+  H153  1  0.06376402  0.70197101  0.03915036  1
  H+  H154  1  0.46184883  0.63915654  0.63443679  1
  H+  H155  1  0.85107668  0.47417838  0.68715203  1
  H+  H156  1  0.37559150  0.38329861  0.14646710  1
  H+  H157  1  0.10815083  0.88350817  0.67588392  1
  H+  H158  1  0.62126512  0.97502492  0.83499532  1
  H+  H159  1  0.88318778  0.85235508  0.29329267  1
  H+  H160  1  0.35656775  0.62388771  0.83407094  1
  H+  H161  1  0.36656142  0.12974703  0.52249574  1
  H+  H162  1  0.52836526  0.61572692  0.69385245  1
  H+  H163  1  0.63160126  0.61230600  0.32789997  1
  H+  H164  1  0.89073056  0.35151119  0.51209150  1
  H+  H165  1  0.85392375  0.13693918  0.16015510  1
  H+  H166  1  0.88171948  0.61043695  0.67128563  1
  H+  H167  1  0.42562841  0.28957009  0.12444216  1
  H+  H168  1  0.64131309  0.27287845  0.50867436  1
  H+  H169  1  0.64136782  0.36886557  0.32441672  1
  H+  H170  1  0.76979246  0.14409173  0.00635003  1
  H+  H171  1  0.08775849  0.91089976  0.42339460  1
  H+  H172  1  0.61178768  0.39010596  0.66389154  1
  H+  H173  1  0.21355880  0.60173584  0.67308344  1
  H+  H174  1  0.47745401  0.61050504  0.84712148  1
  H+  H175  1  0.02932301  0.14448530  0.33320586  1
  H+  H176  1  0.68270155  0.60957234  0.46351371  1
  H+  H177  1  0.73182329  0.36029079  0.51203670  1
  H+  H178  1  0.33339301  0.17479229  0.38214000  1
  H+  H179  1  0.05479383  0.75153491  0.28351237  1
  H+  H180  1  0.36065708  0.62912286  0.15656566  1
  H+  H181  1  0.89274895  0.27358277  0.31464344  1
  H+  H182  1  0.98136364  0.19307731  0.27456710  1
  H+  H183  1  0.63084436  0.86401504  0.85134143  1
  H+  H184  1  0.60131280  0.42073183  0.05239537  1
  H+  H185  1  0.76204108  0.62466655  0.83526318  1
  H+  H186  1  0.30362677  0.37943325  0.32068558  1
  H+  H187  1  0.60788002  0.22620638  0.68178759  1
  H+  H188  1  0.63568220  1.02305666  0.51212085  1
  H+  H189  1  0.47428327  0.87827843  0.31346052  1
  H+  H190  1  0.04343869  0.75956289  0.31494843  1
  H+  H191  1  1.00603881  0.40309150  0.34385933  1
  H+  H192  1  0.47771869  0.35487652  0.50337741  1
  H+  H193  1  0.92299450  1.07734749  0.92943248  1
  H+  H194  1  0.97243912  0.84783972  0.99383550  1
  H+  H195  1  0.63467332  0.86910265  0.31138222  1
  H+  H196  1  0.63070844  0.77216575  0.85518477  1
  H+  H197  1  0.72451265  0.35612942  0.16855213  1
  H+  H198  1  0.63639750  0.52131163  0.65368017  1
  H+  H199  1  -0.01263994  0.58724070  0.35118315  1
  H+  H200  1  0.13188757  1.02339194  0.66308444  1
  H+  H201  1  0.17141092  0.78796576  0.97794400  1
  H+  H202  1  0.87027993  0.22006322  0.83482918  1
  H+  H203  1  0.96337576  0.10843319  0.16480231  1
  H+  H204  1  0.17573104  0.36800275  0.32222768  1
  H+  H205  1  0.38940242  0.51080476  0.16270854  1
  H+  H206  1  0.90147982  0.01793027  0.99523826  1
  H+  H207  1  0.12933072  0.01848329  0.99652201  1
  H+  H208  1  0.10323103  0.21854375  0.14484427  1
  H+  H209  1  0.63344199  1.03652665  0.18083504  1
  H+  H210  1  0.88445601  0.09828319  0.50328776  1
  H+  H211  1  0.39732555  0.12374562  0.32326511  1
  H+  H212  1  0.62931829  0.52091261  0.32951328  1
  H+  H213  1  0.52834345  0.37941294  0.32854538  1
  H+  H214  1  0.88525875  0.37769452  0.67244535  1
  H+  H215  1  0.60851646  0.71525107  0.17034092  1
  H+  H216  1  0.14202876  0.51735659  0.50107477  1
  H+  H217  1  0.11047510  0.12586398  0.49311163  1
  H+  H218  1  0.03203331  0.38369260  0.50165889  1
  H+  H219  1  0.13851985  1.01401702  0.50115895  1
  H+  H220  1  0.73714042  0.87921587  0.00036344  1
  H+  H221  1  0.36569804  0.39379495  0.67723827  1
  H+  H222  1  0.37302103  0.89723666  0.46120966  1
  H+  H223  1  0.62951331  0.35824160  0.96989983  1
  H+  H224  1  0.47603511  0.36986176  0.65871124  1
  H+  H225  1  0.60967293  0.13985309  0.68894433  1
  H+  H226  1  0.13706439  0.28246277  0.67403430  1
  H+  H227  1  0.60378197  0.60499444  0.49260283  1
  H+  H228  1  0.34050362  0.61839522  0.66557540  1
  H+  H229  1  0.61719099  0.38157247  0.48998291  1
  H+  H230  1  0.85860837  0.22257671  0.68179192  1
  H+  H231  1  0.11179285  0.71329432  0.49920907  1
  H+  H232  1  0.26933289  0.13156622  0.32640559  1
  H+  H233  1  -0.03500297  0.36561582  -0.00725337  1
  H+  H234  1  0.24689983  0.91907022  0.29024414  1
  H+  H235  1  0.13941120  0.26782352  1.00792525  1
  H+  H236  1  0.11075715  0.38461580  0.14793049  1
  H+  H237  1  0.88753275  1.02994253  0.65479181  1
  H+  H238  1  0.81977811  0.65328030  0.74061730  1
  H+  H239  1  0.39094992  0.10446802  0.65272427  1
  H+  H240  1  0.12810649  0.53054365  -0.00909461  1
  H+  H241  1  0.37123210  0.90743646  0.31675368  1
  H+  H242  1  0.16214979  0.80508030  0.83563628  1
  H+  H243  1  0.90264209  0.15422455  0.32695414  1
  H+  H244  1  0.86221796  0.59848258  -0.00185840  1
  H+  H245  1  0.77265866  0.88417817  0.32485814  1
  H+  H246  1  0.36092642  0.72341255  0.48905770  1
  H+  H247  1  0.21762799  0.47444516  0.36721283  1
  H+  H248  1  0.76174331  0.37388399  0.99602935  1
  H+  H249  1  0.12433191  0.22128230  0.34296405  1
  H+  H250  1  0.71686141  0.85497817  0.64939521  1
  H+  H251  1  0.62299937  1.01239640  0.33972637  1
  H+  H252  1  0.85374609  0.37946033  1.00027816  1
  H+  H253  1  0.13306892  0.84346901  0.50068838  1
  H+  H254  1  0.16809720  0.08414694  0.93958632  1
  H+  H255  1  0.75074314  0.13724603  0.32734460  1
  H+  H256  1  0.71884971  0.36330774  0.66518451  1
  H+  H257  1  0.37930851  0.51355552  0.49147406  1
  H+  H258  1  0.37604621  0.98614541  0.47442199  1
  H+  H259  1  0.85874485  0.88268095  0.67304090  1
  H+  H260  1  0.61869416  0.63785982  0.83807390  1
  H+  H261  1  0.65559610  0.42278449  0.81011537  1
  H+  H262  1  -0.01567529  0.59919273  0.52241213  1
  H+  H263  1  0.98323980  0.62172917  0.85416947  1
  H+  H264  1  0.38959487  0.51882373  0.84813148  1
  H+  H265  1  0.84155357  0.49251901  0.16855084  1
  H+  H266  1  -0.03867278  0.65375144  0.28447567  1
  H+  H267  1  0.36662527  0.38438983  0.84115181  1
  H+  H268  1  0.87172064  0.55719513  0.23524488  1
  H+  H269  1  0.02612897  0.14474036  0.67010340  1
  H+  H270  1  0.27239062  0.63004264  0.16135027  1
  H+  H271  1  0.86262997  0.21306092  0.49804612  1
  H+  H272  1  0.10545468  0.39270853  1.00681561  1
  H+  H273  1  0.91250269  0.08920797  0.22710877  1
  H+  H274  1  0.23091916  0.62893274  0.84446877  1
  H+  H275  1  0.51649005  0.19526395  0.85435446  1
  H+  H276  1  0.60711340  0.46563123  0.48388391  1
  H+  H277  1  0.33590658  0.41647998  0.78149721  1
  H+  H278  1  0.42430125  0.07097296  0.56694761  1
  H+  H279  1  0.84445041  0.90832711  0.60741748  1
  H+  H280  1  0.86350553  0.38725755  0.15137889  1
  H+  H281  1  0.91765984  0.08608689  0.59580618  1
  H+  H282  1  0.11728203  0.87992128  0.00881035  1
  H+  H283  1  0.39277753  0.38072411  0.31462843  1
  H+  H284  1  0.72489392  0.10945106  0.51371673  1
  H+  H285  1  0.63554105  0.61145331  0.17874109  1
  H+  H286  1  0.12242854  0.50161037  0.68432752  1
  H+  H287  1  0.32556073  0.66745431  0.06429040  1
  H+  H288  1  0.60401638  0.96942082  0.67925457  1
  H+  H289  1  0.17919197  0.32588900  0.26086701  1
  H+  H290  1  0.50282126  0.37310036  0.15124973  1
  H+  H291  1  0.91523591  0.58549947  0.90843581  1
  H+  H292  1  0.35735369  0.41297763  0.41857248  1
  H+  H293  1  0.66004274  0.83855831  0.25182291  1
  H+  H294  1  0.91287817  0.82343937  0.93457026  1
  H+  H295  1  0.17342928  0.82894826  0.21401114  1
  H+  H296  1  0.66544109  0.58421514  0.59560877  1
  H+  H297  1  0.07520335  0.42451190  0.06281394  1
  H+  H298  1  0.06228335  0.43072525  0.40740388  1
  H+  H299  1  0.91429974  0.57557665  0.61536463  1
  H+  H300  1  0.82820658  0.15273851  0.43886355  1
  H+  H301  1  0.66051451  0.58053859  0.91195424  1
  H+  H302  1  0.03036327  0.53355535  0.37537585  1
  H+  H303  1  0.09002126  0.41089176  0.79225420  1
  H+  H304  1  0.96431561  0.42626143  0.63070322  1
  H+  H305  1  0.92441848  0.83103356  0.55212763  1
  H+  H306  1  0.66541462  0.07940950  0.89878719  1
  H+  H307  1  0.27411910  0.86836555  0.14649019  1
  H+  H308  1  0.22967873  0.36104220  1.01078238  1
  H+  H309  1  0.65965661  0.75122606  0.02578762  1
  H+  H310  1  0.58224800  0.92618867  0.07081222  1
  H+  H311  1  0.20807841  0.76737531  0.77321829  1
  H+  H312  1  0.09404581  0.67864977  0.73689120  1
  H+  H313  1  0.66807809  0.58301911  0.23805936  1
  H+  H314  1  0.66163541  0.82690667  0.55827642  1
  H+  H315  1  0.20789306  0.84447317  0.66922698  1
  H+  H316  1  0.12318093  0.91247547  0.20480311  1
  H+  H317  1  0.06774149  0.63749402  0.44503518  1
  H+  H318  1  0.11893107  0.38529307  0.47769357  1
  H+  H319  1  0.31978396  0.64033908  0.77324486  1
  H+  H320  1  0.40658882  0.06696908  0.85201984  1
  H+  H321  1  0.58849903  0.91001793  0.77853112  1
  H+  H322  1  0.41802347  0.10767465  0.94843792  1
  H+  H323  1  0.33490187  0.16110799  0.57862089  1
  H+  H324  1  0.11410002  0.47409930  0.16143272  1
  H+  H325  1  0.17792953  0.85891251  0.90215389  1
  H+  H326  1  0.60759601  0.67236821  0.10723752  1
  H+  H327  1  0.56941494  0.67234874  0.38674685  1
  H+  H328  1  0.82691942  0.66730900  0.10657798  1
  H+  H329  1  0.40073095  0.83430664  0.63690269  1
  H+  H330  1  0.82705674  0.17668221  0.06629987  1
  H+  H331  1  0.91809141  0.32042770  0.57039984  1
  H+  H332  1  0.04922102  0.62187370  0.11895655  1
  H+  H333  1  0.59533368  0.67272626  0.77880210  1
  H+  H334  1  0.33111248  0.67165886  0.42631208  1
  H+  H335  1  0.84942361  0.91965485  0.06888177  1
  H+  H336  1  0.87771604  0.77113053  0.69936530  1
  H+  H337  1  0.66917462  0.33510035  0.23002527  1
  H+  H338  1  0.86599645  0.85092678  0.84341146  1
  H+  H339  1  0.34382383  0.41795390  0.09031655  1
  H+  H340  1  0.66753492  0.83895421  0.94701401  1
  H+  H341  1  0.58241493  0.16911895  0.09962428  1
  H+  H342  1  0.23136619  0.35731216  0.14399474  1
  H+  H343  1  0.53786578  0.97937894  0.37515463  1
  H+  H344  1  0.41321874  0.33633466  0.93321800  1
  H+  H345  1  0.77738512  0.29907474  0.38749271  1
  H+  H346  1  0.34578685  0.93916144  0.38000413  1
  H+  H347  1  0.61465990  0.22701029  0.00215825  1
  H+  H348  1  0.57187682  0.33796367  0.81115324  1
  H+  H349  1  0.40092156  0.57488333  0.58509320  1
  H+  H350  1  0.86332715  0.96773927  0.32757542  1
  H+  H351  1  0.83958768  0.40559263  0.44611455  1
  H+  H352  1  0.17570499  0.33319889  0.91602809  1
  H+  H353  1  0.15509084  0.81659673  0.56422829  1
  H+  H354  1  0.73956095  0.87036256  0.16264508  1
  H+  H355  1  0.61923796  0.88822180  0.48879856  1
  H+  H356  1  0.43665315  0.32127000  0.24038925  1
  H+  H357  1  0.59513292  0.93054895  0.43232969  1
  H+  H358  1  0.17261942  0.57793595  0.23289979  1
  H+  H359  1  0.15956549  0.08197162  0.26304468  1
  H+  H360  1  0.32760532  0.16433755  0.11296492  1
  H+  H361  1  0.87125602  1.01194848  0.85318811  1
  H+  H362  1  0.36243733  0.48182440  0.00523269  1
  H+  H363  1  0.08023201  0.91388117  0.77236497  1
  H+  H364  1  0.08231790  0.90238365  0.06834787  1
  H+  H365  1  0.72776086  0.40145190  0.88664238  1
  H+  H366  1  0.15281479  0.07284023  0.59947896  1
  H+  H367  1  0.60108007  0.22565275  0.81516205  1
  H+  H368  1  0.33777290  0.91939269  0.05838670  1
  H+  H369  1  0.83390248  0.90697351  0.42598859  1
  H+  H370  1  0.42327457  0.56894961  0.24256902  1
  H+  H371  1  0.90505520  0.31935723  0.89745641  1
  H+  H372  1  0.41327914  0.83695311  0.25522737  1
  H+  H373  1  0.07569973  0.15228183  0.06096791  1
  H+  H374  1  0.83871163  0.15618562  0.77638154  1
  H+  H375  1  0.65974109  0.07980869  0.61107646  1
  H+  H376  1  0.06564771  0.12353879  0.76375233  1
  H+  H377  1  0.31206730  0.89743974  0.75290230  1
  H+  H378  1  0.41770350  0.34509471  0.59948833  1
  H+  H379  1  0.57857582  0.40568677  0.39368710  1
  H+  H380  1  0.82636244  0.63753798  0.40494638  1
  H+  H381  1  0.41470883  0.85624181  0.53832825  1
  H+  H382  1  0.80650249  0.91111055  0.78484671  1
  H+  H383  1  0.34133225  0.18887911  0.77965118  1
  O2-  O384  1  0.06551832  0.15537296  0.13879878  1
  O2-  O385  1  0.07717525  0.15301653  0.47773847  1
  O2-  O386  1  0.05005955  0.08427251  0.79893586  1
  O2-  O387  1  0.07824997  0.41547889  0.14259585  1
  O2-  O388  1  0.08825182  0.42015062  0.48131662  1
  O2-  O389  1  0.07885697  0.39791431  0.83569627  1
  O2-  O390  1  0.06210477  0.62753109  0.16305093  1
  O2-  O391  1  0.08341144  0.64813672  0.48937264  1
  O2-  O392  1  0.15524641  0.73222206  0.79806590  1
  O2-  O393  1  0.08536479  0.90658329  0.17030644  1
  O2-  O394  1  0.08954205  0.90979453  0.46875748  1
  O2-  O395  1  0.07349848  0.90439878  0.81726592  1
  O2-  O396  1  0.30735803  0.14124821  0.15576844  1
  O2-  O397  1  0.33452707  0.16072116  0.53290418  1
  O2-  O398  1  0.33940150  0.18850937  0.82393082  1
  O2-  O399  1  0.34323998  0.41350744  0.13726864  1
  O2-  O400  1  0.34446183  0.41263304  0.46232997  1
  O2-  O401  1  0.33638387  0.41769209  0.82640168  1
  O2-  O402  1  0.33271924  0.66248374  0.14516769  1
  O2-  O403  1  0.32769786  0.66356529  0.47320736  1
  O2-  O404  1  0.32444623  0.65105882  0.81722916  1
  O2-  O405  1  0.33508103  0.90203197  0.13372430  1
  O2-  O406  1  0.35187642  0.93510164  0.44661762  1
  O2-  O407  1  0.37183362  0.95666893  0.82370174  1
  O2-  O408  1  0.57653998  0.16529007  0.14515465  1
  O2-  O409  1  0.58949075  0.17010666  0.48125531  1
  O2-  O410  1  0.57541820  0.24647398  0.84502140  1
  O2-  O411  1  0.60401918  0.42914030  0.13597716  1
  O2-  O412  1  0.58174452  0.40476303  0.47146308  1
  O2-  O413  1  0.59409783  0.39890259  0.79929671  1
  O2-  O414  1  0.58199644  0.65833552  0.15088810  1
  O2-  O415  1  0.56288703  0.66745147  0.46356095  1
  O2-  O416  1  0.58968600  0.67014581  0.82338145  1
  O2-  O417  1  0.58213218  0.93243453  0.15345222  1
  O2-  O418  1  0.58920990  0.92046870  0.47693142  1
  O2-  O419  1  0.59278420  0.91196974  0.82318730  1
  O2-  O420  1  0.82905652  0.17361326  0.14890169  1
  O2-  O421  1  0.82877876  0.15187817  0.48412076  1
  O2-  O422  1  0.84028479  0.15593764  0.82123330  1
  O2-  O423  1  0.82792249  0.41295377  0.13717832  1
  O2-  O424  1  0.84171919  0.40715086  0.49129707  1
  O2-  O425  1  0.81487936  0.42893530  0.82416648  1
  O2-  O426  1  0.82957276  0.66669478  0.15217105  1
  O2-  O427  1  0.84026613  0.64893533  0.48836271  1
  O2-  O428  1  0.82178394  0.65704425  0.81650146  1
  O2-  O429  1  0.83998873  0.91537665  0.15029370  1
  O2-  O430  1  0.83415209  0.90525174  0.47115242  1
  O2-  O431  1  0.81269445  0.90516220  0.82831167  1
  O2-  O432  1  0.14547513  0.07750243  0.18745542  1
  O2-  O433  1  0.16071139  0.07184159  0.52005643  1
  O2-  O434  1  0.17723627  0.08998453  0.87096105  1
  O2-  O435  1  0.16783553  0.32887344  0.13724077  1
  O2-  O436  1  0.16360219  0.33089720  0.46121156  1
  O2-  O437  1  0.17160702  0.32562789  0.87194461  1
  O2-  O438  1  0.17028294  0.57345669  0.18764248  1
  O2-  O439  1  0.17364604  0.58124282  0.51305553  1
  O2-  O440  1  0.17311166  0.62185905  0.85498978  1
  O2-  O441  1  0.16502450  0.80307146  0.17233370  1
  O2-  O442  1  0.15355623  0.80704565  0.51968589  1
  O2-  O443  1  0.17216807  0.86128907  0.85656947  1
  O2-  O444  1  0.40479902  0.05781155  0.17566611  1
  O2-  O445  1  0.42103452  0.07492042  0.52074237  1
  O2-  O446  1  0.42251395  0.12182440  0.87233781  1
  O2-  O447  1  0.43927970  0.33104784  0.15829536  1
  O2-  O448  1  0.41880792  0.33308345  0.52001059  1
  O2-  O449  1  0.40962441  0.33616347  0.86546286  1
  O2-  O450  1  0.41767245  0.57141780  0.18031181  1
  O2-  O451  1  0.40311959  0.57256479  0.50953179  1
  O2-  O452  1  0.41747452  0.58059777  0.86203261  1
  O2-  O453  1  0.41680356  0.82789531  0.18229898  1
  O2-  O454  1  0.42011043  0.83670110  0.49813240  1
  O2-  O455  1  0.36397331  0.89932485  0.86047464  1
  O2-  O456  1  0.66618434  0.09771990  0.19441127  1
  O2-  O457  1  0.66415904  0.08302216  0.52778198  1
  O2-  O458  1  0.66693605  0.07499860  0.85380936  1
  O2-  O459  1  0.66513105  0.33257428  0.18468107  1
  O2-  O460  1  0.66996747  0.33403352  0.52304202  1
  O2-  O461  1  0.74673533  0.44088052  0.85105831  1
  O2-  O462  1  0.67052882  0.58521546  0.19248388  1
  O2-  O463  1  0.64349066  0.58116315  0.49744934  1
  O2-  O464  1  0.66558125  0.58208473  0.86188111  1
  O2-  O465  1  0.67443558  0.84168155  0.16803618  1
  O2-  O466  1  0.66326738  0.82896222  0.51270496  1
  O2-  O467  1  0.66082472  0.83236461  0.87079275  1
  O2-  O468  1  0.90369881  0.07680000  0.18215435  1
  O2-  O469  1  0.91391697  0.06688464  0.51763583  1
  O2-  O470  1  0.90990788  0.07269942  0.86554220  1
  O2-  O471  1  0.91474682  0.33930860  0.18206078  1
  O2-  O472  1  0.92007622  0.31903186  0.52552717  1
  O2-  O473  1  0.91194844  0.31299846  0.85342405  1
  O2-  O474  1  0.83845162  0.53943078  0.19463843  1
  O2-  O475  1  0.92308097  0.56895729  0.53666832  1
  O2-  O476  1  0.92193236  0.59072323  0.86274528  1
  O2-  O477  1  0.91853942  0.83234307  0.21232545  1
  O2-  O478  1  0.91598697  0.82134623  0.50839408  1
  O2-  O479  1  0.90294480  0.82407808  0.84780161  1
  O2-  O480  1  0.16786023  0.08285616  0.30846879  1
  O2-  O481  1  0.15862379  0.08170836  0.64446689  1
  O2-  O482  1  0.16035670  0.07984655  0.98632086  1
  O2-  O483  1  0.19264990  0.32889050  0.30417846  1
  O2-  O484  1  0.16539897  0.34509865  0.66439960  1
  O2-  O485  1  0.16497153  0.33148029  1.01221111  1
  O2-  O486  1  0.17313136  0.59336889  0.31095995  1
  O2-  O487  1  0.14861289  0.56660852  0.66453242  1
  O2-  O488  1  0.15628905  0.59314346  0.98130407  1
  O2-  O489  1  0.19202054  0.90268458  0.26951632  1
  O2-  O490  1  0.15267250  0.82416931  0.64729612  1
  O2-  O491  1  0.18605753  0.84783969  0.97502514  1
  O2-  O492  1  0.43214484  0.09641046  0.31151105  1
  O2-  O493  1  0.42393562  0.07654086  0.64078186  1
  O2-  O494  1  0.42201743  0.10094293  0.99343849  1
  O2-  O495  1  0.43383886  0.32219592  0.28566420  1
  O2-  O496  1  0.41491906  0.34212391  0.64486206  1
  O2-  O497  1  0.41758990  0.34110074  0.98103703  1
  O2-  O498  1  0.42536356  0.56719434  0.29219773  1
  O2-  O499  1  0.40712475  0.58585476  0.63055379  1
  O2-  O500  1  0.40653660  0.57763412  0.98538485  1
  O2-  O501  1  0.41359346  0.84680530  0.30087183  1
  O2-  O502  1  0.40678706  0.81783114  0.67789565  1
  O2-  O503  1  0.41300673  0.84184681  0.98200696  1
  O2-  O504  1  0.69013708  0.11097193  0.31435423  1
  O2-  O505  1  0.65815093  0.07549288  0.65613978  1
  O2-  O506  1  0.66603434  0.08465889  0.97936555  1
  O2-  O507  1  0.66790970  0.33475970  0.30885663  1
  O2-  O508  1  0.65976943  0.33457223  0.64768121  1
  O2-  O509  1  0.65788027  0.32708619  0.95182961  1
  O2-  O510  1  0.66304655  0.58219417  0.31596693  1
  O2-  O511  1  0.66818466  0.58410591  0.64022602  1
  O2-  O512  1  0.65024423  0.57877482  0.97462334  1
  O2-  O513  1  0.66144597  0.83665576  0.29676155  1
  O2-  O514  1  0.65500146  0.82427442  0.63787868  1
  O2-  O515  1  0.67441272  0.84504582  0.99256581  1
  O2-  O516  1  0.94759361  0.13797090  0.29523007  1
  O2-  O517  1  0.91677291  0.09037759  0.64121483  1
  O2-  O518  1  0.93229689  0.07801364  0.97749148  1
  O2-  O519  1  0.91498518  0.33509979  0.30316358  1
  O2-  O520  1  0.93041420  0.37028700  0.65010534  1
  O2-  O521  1  0.90400007  0.33540877  0.97952806  1
  O2-  O522  1  0.91528954  0.59665178  0.29679081  1
  O2-  O523  1  0.91085237  0.57702439  0.66075327  1
  O2-  O524  1  0.89562504  0.57139720  0.98277234  1
  O2-  O525  1  0.91772763  0.82592428  0.27960944  1
  O2-  O526  1  0.90655916  0.83483073  0.70797911  1
  O2-  O527  1  0.91168876  0.82165068  0.97965851  1
  O2-  O528  1  0.08297467  0.15770483  0.01579951  1
  O2-  O529  1  0.08619542  0.16038286  0.35363313  1
  O2-  O530  1  0.08473938  0.17261711  0.68759527  1
  O2-  O531  1  0.07533378  0.42427558  0.01737951  1
  O2-  O532  1  0.05340325  0.45090097  0.36717081  1
  O2-  O533  1  0.09051423  0.42122738  0.70541109  1
  O2-  O534  1  0.04550506  0.64111631  0.03818023  1
  O2-  O535  1  0.03570716  0.59153496  0.37559020  1
  O2-  O536  1  0.07787554  0.65748971  0.69382313  1
  O2-  O537  1  0.07751559  0.89941687  0.02393059  1
  O2-  O538  1  0.07913249  0.91646336  0.34385715  1
  O2-  O539  1  0.08536174  0.91939989  0.69392408  1
  O2-  O540  1  0.38639048  0.21305191  0.05609218  1
  O2-  O541  1  0.33266766  0.16421546  0.33852278  1
  O2-  O542  1  0.33245286  0.16682535  0.65815204  1
  O2-  O543  1  0.33536601  0.41946585  0.02062565  1
  O2-  O544  1  0.36511299  0.41230857  0.33283106  1
  O2-  O545  1  0.33700550  0.42345845  0.69638705  1
  O2-  O546  1  0.32576335  0.67054429  0.01917277  1
  O2-  O547  1  0.33614735  0.68302600  0.35722867  1
  O2-  O548  1  0.31018006  0.64404937  0.68736220  1
  O2-  O549  1  0.34017955  0.92787125  0.01314902  1
  O2-  O550  1  0.34702075  0.94421241  0.33220184  1
  O2-  O551  1  0.28378003  0.84743088  0.72547123  1
  O2-  O552  1  0.58600327  0.17026551  0.02224836  1
  O2-  O553  1  0.58988688  0.17571250  0.35477956  1
  O2-  O554  1  0.57848085  0.16941377  0.70195002  1
  O2-  O555  1  0.59500907  0.41779244  0.00750756  1
  O2-  O556  1  0.58528654  0.41461833  0.34846131  1
  O2-  O557  1  0.58407017  0.42376878  0.67883806  1
  O2-  O558  1  0.66295606  0.70628093  0.05027736  1
  O2-  O559  1  0.57443532  0.66878505  0.34126871  1
  O2-  O560  1  0.58827861  0.66132626  0.69160219  1
  O2-  O561  1  0.58219771  0.92201282  0.02585179  1
  O2-  O562  1  0.57433855  0.95841897  0.35831617  1
  O2-  O563  1  0.57429816  0.90797125  0.69304229  1
  O2-  O564  1  0.82987007  0.18006861  0.02144360  1
  O2-  O565  1  0.86364439  0.18154005  0.35825657  1
  O2-  O566  1  0.82951884  0.16154769  0.69160137  1
  O2-  O567  1  0.81867794  0.40721871  0.01534923  1
  O2-  O568  1  0.80845788  0.35805864  0.37247105  1
  O2-  O569  1  0.82052395  0.41226575  0.69972780  1
  O2-  O570  1  0.81605163  0.65587859  0.02678537  1
  O2-  O571  1  0.82490365  0.64195884  0.36032442  1
  O2-  O572  1  0.82890457  0.66370327  0.69531872  1
  O2-  O573  1  0.84850544  0.92187050  0.02363745  1
  O2-  O574  1  0.83252768  0.90725704  0.33942476  1
  O2-  O575  1  0.83050089  0.91047572  0.65005638  1
