# generated using pymatgen
data_H2O
_symmetry_space_group_name_H-M   'P 1'
_cell_length_a   17.99053893
_cell_length_b   17.99746427
_cell_length_c   22.00671091
_cell_angle_alpha   89.96596437
_cell_angle_beta   90.02645713
_cell_angle_gamma   120.01635168
_symmetry_Int_Tables_number   1
_chemical_formula_structural   H2O
_chemical_formula_sum   'H384 O192'
_cell_volume   6169.77883782
_cell_formula_units_Z   192
loop_
 _symmetry_equiv_pos_site_id
 _symmetry_equiv_pos_as_xyz
  1  'x, y, z'
loop_
 _atom_type_symbol
 _atom_type_oxidation_number
  H+  1.0
  O2-  -2.0
loop_
 _atom_site_type_symbol
 _atom_site_label
 _atom_site_symmetry_multiplicity
 _atom_site_fract_x
 _atom_site_fract_y
 _atom_site_fract_z
 _atom_site_occupancy
  H+  H0  1  0.60812856  0.72157880  0.47826330  1
  H+  H1  1  0.88315848  0.85884308  0.49148920  1
  H+  H2  1  0.27596703  0.63907856  0.68801939  1
  H+  H3  1  0.37173849  0.60196895  0.17055569  1
  H+  H4  1  0.09771499  0.41272769  0.90403949  1
  H+  H5  1  0.14349476  0.77639877  0.51756023  1
  H+  H6  1  0.62621703  0.52830780  0.32692703  1
  H+  H7  1  0.88889941  0.88068913  0.17948040  1
  H+  H8  1  0.61095665  0.23337603  1.00200902  1
  H+  H9  1  0.88692997  0.76057603  0.67213070  1
  H+  H10  1  0.58749784  0.91759554  0.90586978  1
  H+  H11  1  0.39178901  0.02208073  0.65760645  1
  H+  H12  1  0.77503027  0.14626390  0.68504148  1
  H+  H13  1  0.39111578  0.62217553  -0.02806154  1
  H+  H14  1  0.94058124  0.04551308  0.66567791  1
  H+  H15  1  0.60866445  0.99799906  0.49855013  1
  H+  H16  1  0.13085764  0.61905980  0.51423508  1
  H+  H17  1  0.88312674  0.27866660  0.99399222  1
  H+  H18  1  0.46917531  0.84997276  0.64208946  1
  H+  H19  1  0.76100121  0.86394042  0.34106457  1
  H+  H20  1  0.36295424  -0.00632626  0.48820335  1
  H+  H21  1  0.88629285  0.36697625  0.83746701  1
  H+  H22  1  0.69019479  0.14580183  0.17098714  1
  H+  H23  1  0.60871684  0.60541459  0.33292420  1
  H+  H24  1  0.47140759  0.34989744  1.00993743  1
  H+  H25  1  0.64812487  0.01927036  0.35256830  1
  H+  H26  1  0.77032199  0.88771182  0.15288169  1
  H+  H27  1  0.87904747  0.60518246  0.65754300  1
  H+  H28  1  0.14007678  0.85250166  0.32103210  1
  H+  H29  1  0.23101296  0.86713665  0.51389528  1
  H+  H30  1  0.11558772  0.88660100  0.49620042  1
  H+  H31  1  0.38821174  0.52746306  0.83388009  1
  H+  H32  1  0.60838264  0.47679111  0.00927785  1
  H+  H33  1  0.14444171  0.49578661  0.48874700  1
  H+  H34  1  0.87169557  0.14510799  0.83518660  1
  H+  H35  1  0.91458356  0.12502802  0.50304215  1
  H+  H36  1  0.86094861  0.88831337  0.00121683  1
  H+  H37  1  0.61025191  0.72622180  1.00281944  1
  H+  H38  1  0.53026177  0.39545031  0.47797120  1
  H+  H39  1  0.21499062  0.85588117  0.84229704  1
  H+  H40  1  0.37646394  0.27101397  0.17082271  1
  H+  H41  1  0.75907975  0.36491417  0.15522302  1
  H+  H42  1  0.83372512  0.41780369  0.42316418  1
  H+  H43  1  0.89982113  0.37670565  0.66966713  1
  H+  H44  1  0.32394389  0.19712331  0.68015098  1
  H+  H45  1  0.16244910  0.59161230  0.57396208  1
  H+  H46  1  0.52592740  0.89697515  0.98954550  1
  H+  H47  1  0.14896259  0.88002844  0.14411351  1
  H+  H48  1  0.60339835  0.24791803  0.81733101  1
  H+  H49  1  0.99727899  0.37533110  0.16868462  1
  H+  H50  1  0.47406462  0.85830222  0.16002218  1
  H+  H51  1  0.11031851  0.21693821  0.81425418  1
  H+  H52  1  0.80058226  0.08833215  0.57961607  1
  H+  H53  1  0.63985622  0.85944444  0.84973345  1
  H+  H54  1  0.48569702  0.11821045  0.16931239  1
  H+  H55  1  0.71760222  0.37423489  0.83683442  1
  H+  H56  1  0.92279791  0.83202206  0.75465575  1
  H+  H57  1  0.39000657  0.61911710  0.83520503  1
  H+  H58  1  0.47684152  0.11473850  0.50420954  1
  H+  H59  1  0.26976900  0.38593174  0.49236365  1
  H+  H60  1  0.86123881  0.97687784  0.49400203  1
  H+  H61  1  0.88228241  1.02801032  0.16236610  1
  H+  H62  1  0.85111045  0.44023785  0.16370695  1
  H+  H63  1  0.49502397  0.10680292  0.32204805  1
  H+  H64  1  0.36386360  0.60011178  0.51102881  1
  H+  H65  1  0.63513775  0.02729517  0.65977514  1
  H+  H66  1  0.66761118  0.79640138  0.65652735  1
  H+  H67  1  0.77308226  0.88941445  0.00393783  1
  H+  H68  1  0.26244086  0.62126920  0.48743078  1
  H+  H69  1  0.72618416  0.33852281  0.32573085  1
  H+  H70  1  0.08491659  0.16713039  0.43276642  1
  H+  H71  1  0.51915267  0.87394411  0.32524467  1
  H+  H72  1  0.88283182  0.52727331  0.99270782  1
  H+  H73  1  0.98786660  0.36698579  0.32472531  1
  H+  H74  1  0.61309708  0.38993961  0.00785658  1
  H+  H75  1  0.20224823  0.31593637  0.31352698  1
  H+  H76  1  0.28620440  0.63262108  0.32482315  1
  H+  H77  1  0.37677292  0.87885118  0.32325088  1
  H+  H78  1  0.66398793  0.66505221  0.66775233  1
  H+  H79  1  0.50324575  0.32753809  0.65566115  1
  H+  H80  1  0.01003914  0.64170931  0.49505531  1
  H+  H81  1  -0.02216677  0.87917652  0.18171322  1
  H+  H82  1  0.35011816  0.85578791  0.82047792  1
  H+  H83  1  0.59032439  0.63548225  0.15947937  1
  H+  H84  1  0.73665463  0.12234123  0.84886979  1
  H+  H85  1  0.36623883  0.39266249  0.84018226  1
  H+  H86  1  0.63543754  0.61201293  0.84140373  1
  H+  H87  1  0.71600593  0.74342349  0.71563314  1
  H+  H88  1  0.71993177  0.86189417  0.49816354  1
  H+  H89  1  0.63073340  0.77378813  0.15717014  1
  H+  H90  1  0.88298048  0.77006641  0.32802640  1
  H+  H91  1  0.39605507  0.02652401  0.17014658  1
  H+  H92  1  0.38903630  0.27620473  0.48264966  1
  H+  H93  1  0.11464182  0.14646370  0.16529075  1
  H+  H94  1  0.28523371  0.95082446  0.44276356  1
  H+  H95  1  0.36550906  0.50641378  0.50947098  1
  H+  H96  1  0.22550775  0.11512846  0.17674670  1
  H+  H97  1  -0.03083810  0.11842425  0.16704730  1
  H+  H98  1  0.39205286  0.37232468  0.32587507  1
  H+  H99  1  0.35900044  0.21848710  0.01388463  1
  H+  H100  1  0.78601843  0.13963987  0.35008384  1
  H+  H101  1  0.13580184  0.11026070  0.49888156  1
  H+  H102  1  0.32444973  0.16275520  0.43043612  1
  H+  H103  1  0.13390611  0.27376905  0.99085151  1
  H+  H104  1  0.63957228  0.53158104  0.50243033  1
  H+  H105  1  0.08572771  0.43973447  0.06178606  1
  H+  H106  1  0.09992398  0.89650901  0.00960684  1
  H+  H107  1  0.52543247  0.39544087  0.33341456  1
  H+  H108  1  0.16307666  0.08544894  0.23512456  1
  H+  H109  1  0.63719774  0.43207869  0.73786133  1
  H+  H110  1  0.13318449  0.53275147  0.84845699  1
  H+  H111  1  0.61619226  0.22827002  0.15738265  1
  H+  H112  1  0.76603082  0.64020240  -0.00156450  1
  H+  H113  1  0.62660172  0.37416695  0.17330633  1
  H+  H114  1  0.32715676  0.42335095  0.09943446  1
  H+  H115  1  0.71417118  0.50115802  0.69989230  1
  H+  H116  1  0.86937274  0.47947368  0.66707547  1
  H+  H117  1  0.36251007  0.47837769  0.16142165  1
  H+  H118  1  0.66737850  0.37043121  0.65148111  1
  H+  H119  1  0.33840429  0.67448092  0.90806984  1
  H+  H120  1  0.35939416  0.13766290  0.49100662  1
  H+  H121  1  0.12100703  0.26024433  0.65809400  1
  H+  H122  1  0.80087865  0.92001186  0.66306007  1
  H+  H123  1  0.76448436  0.63708239  0.33572132  1
  H+  H124  1  0.22812315  0.86223580  0.66668579  1
  H+  H125  1  0.87282789  0.23180859  0.15861666  1
  H+  H126  1  0.97788356  0.86637781  0.81477560  1
  H+  H127  1  0.85609967  0.64156257  -0.00319174  1
  H+  H128  1  0.85390565  0.87271128  0.34499995  1
  H+  H129  1  0.09828527  0.72931641  0.02782571  1
  H+  H130  1  0.42038566  0.82759991  0.25142822  1
  H+  H131  1  0.36323865  0.84341270  0.50128134  1
  H+  H132  1  0.70654298  0.41469585  0.21619942  1
  H+  H133  1  0.60635004  0.88402336  0.14373178  1
  H+  H134  1  0.86549355  0.23236609  0.68656672  1
  H+  H135  1  0.85843072  0.38865162  0.00066302  1
  H+  H136  1  0.22880599  0.85446961  0.31710415  1
  H+  H137  1  0.85536811  0.46434080  0.32902170  1
  H+  H138  1  0.18236809  0.58395322  0.25452376  1
  H+  H139  1  0.48445665  0.34423808  0.67879826  1
  H+  H140  1  0.34934328  0.70888986  0.48819024  1
  H+  H141  1  0.40735002  0.50573175  0.35456668  1
  H+  H142  1  0.80784383  0.13234020  0.57287656  1
  H+  H143  1  0.27524277  0.64749231  0.96555623  1
  H+  H144  1  0.13970595  0.27264553  0.50562373  1
  H+  H145  1  0.59994593  0.74723922  0.30908909  1
  H+  H146  1  1.02084596  0.14053867  1.01274280  1
  H+  H147  1  0.49932380  0.86355182  0.48284758  1
  H+  H148  1  0.88590514  0.02771330  0.99624779  1
  H+  H149  1  0.52580166  0.88710190  0.84923438  1
  H+  H150  1  0.46238585  0.60770443  0.17195131  1
  H+  H151  1  0.14080938  0.53112069  0.67172698  1
  H+  H152  1  1.03195073  0.13650150  0.49432796  1
  H+  H153  1  0.61273612  0.22257830  0.48743281  1
  H+  H154  1  0.88662934  0.02642493  0.84210883  1
  H+  H155  1  0.64638361  0.27310901  0.64990433  1
  H+  H156  1  0.62583547  0.85241452  0.49703351  1
  H+  H157  1  0.22108031  0.95564788  0.96743037  1
  H+  H158  1  0.39138078  0.36637963  0.48361083  1
  H+  H159  1  0.23771754  0.37406349  0.16676759  1
  H+  H160  1  0.15859429  0.52865094  0.31898400  1
  H+  H161  1  0.94279778  0.09324246  0.56418871  1
  H+  H162  1  0.15866009  0.79870574  0.15974178  1
  H+  H163  1  0.12314846  0.49470878  0.16266586  1
  H+  H164  1  0.10127741  0.72863384  0.83446661  1
  H+  H165  1  0.16307026  0.09148912  0.90741743  1
  H+  H166  1  0.97708795  0.11201020  0.84055637  1
  H+  H167  1  0.61339114  0.14521903  0.00479712  1
  H+  H168  1  1.03271115  0.39265558  0.69236730  1
  H+  H169  1  0.35440043  0.71082738  0.15645299  1
  H+  H170  1  0.07047731  0.71015888  0.44566898  1
  H+  H171  1  0.90283822  0.85553625  0.66334765  1
  H+  H172  1  0.10257487  0.93381365  0.77944815  1
  H+  H173  1  0.93641823  0.58574308  0.16121137  1
  H+  H174  1  0.44172498  0.66284578  0.33373915  1
  H+  H175  1  0.14007170  0.63171482  -0.00722418  1
  H+  H176  1  0.61299367  0.21172917  0.33656720  1
  H+  H177  1  0.52591022  0.63935474  0.81709316  1
  H+  H178  1  0.72246860  0.36136644  0.49105821  1
  H+  H179  1  0.61785998  0.39382816  0.48504491  1
  H+  H180  1  0.48108793  0.37720224  0.86284780  1
  H+  H181  1  0.11091841  0.98520208  0.16209779  1
  H+  H182  1  0.65780593  0.57924466  0.93517919  1
  H+  H183  1  0.39124790  0.28860462  0.86007334  1
  H+  H184  1  0.51918297  0.63861383  -0.00069333  1
  H+  H185  1  0.37163160  0.50354605  0.66394751  1
  H+  H186  1  0.77627558  0.89015189  0.82357568  1
  H+  H187  1  0.26813791  0.37210082  0.68320563  1
  H+  H188  1  0.39105506  0.76745977  0.31266459  1
  H+  H189  1  0.82366199  0.32631972  0.49829630  1
  H+  H190  1  0.87014558  0.38294934  0.33255526  1
  H+  H191  1  0.37880894  0.36241382  0.16764453  1
  H+  H192  1  0.86068819  0.66021551  0.17936382  1
  H+  H193  1  0.38239272  0.76250658  0.65989481  1
  H+  H194  1  0.87590160  0.60800504  0.83760072  1
  H+  H195  1  0.32875991  0.15801284  0.10328658  1
  H+  H196  1  0.27756111  0.15476465  0.84105547  1
  H+  H197  1  0.36400589  0.13633102  0.16351948  1
  H+  H198  1  0.13539206  0.61743504  0.67118658  1
  H+  H199  1  0.64861191  0.03354838  0.85410871  1
  H+  H200  1  0.87521093  1.00703459  0.33607382  1
  H+  H201  1  0.51568526  0.15867873  0.81561107  1
  H+  H202  1  0.86917675  0.21991531  0.48504847  1
  H+  H203  1  0.97235983  0.85953800  0.48767989  1
  H+  H204  1  0.22388979  0.10848185  0.50307580  1
  H+  H205  1  0.12520794  0.98786123  0.68206326  1
  H+  H206  1  0.21352292  0.10742171  0.64313942  1
  H+  H207  1  0.34823570  0.48886003  1.00668777  1
  H+  H208  1  0.61071617  0.14369449  0.67447375  1
  H+  H209  1  0.37852853  1.04299155  0.83156193  1
  H+  H210  1  0.28046523  0.64800771  0.82944036  1
  H+  H211  1  -0.02678605  0.61421606  0.65892791  1
  H+  H212  1  0.13778160  0.74714676  0.24640032  1
  H+  H213  1  0.26454418  0.62308971  0.16303036  1
  H+  H214  1  0.60448895  0.12872537  0.49097581  1
  H+  H215  1  0.19536983  0.36142180  0.25289839  1
  H+  H216  1  0.87513407  0.60352378  0.32256370  1
  H+  H217  1  0.97069100  0.35264136  0.53448961  1
  H+  H218  1  0.50834540  0.37627622  0.15934179  1
  H+  H219  1  0.13814512  0.35130039  0.84107935  1
  H+  H220  1  0.57888256  0.18488874  0.72688260  1
  H+  H221  1  0.38533604  0.76668459  0.83767056  1
  H+  H222  1  0.86544856  0.89220755  0.80996158  1
  H+  H223  1  0.10994735  0.14077075  0.01283659  1
  H+  H224  1  0.22916525  0.35490947  0.83379755  1
  H+  H225  1  0.13190172  0.90260185  0.68859260  1
  H+  H226  1  0.62811384  0.61045235  -0.00604549  1
  H+  H227  1  0.86060706  0.47600513  0.48464211  1
  H+  H228  1  0.59691659  0.51316749  0.17833642  1
  H+  H229  1  0.64498931  0.10485036  0.35414142  1
  H+  H230  1  0.86217627  0.14334354  0.00573433  1
  H+  H231  1  0.15167425  0.61891793  0.18378258  1
  H+  H232  1  0.58556005  0.17522917  0.09581822  1
  H+  H233  1  0.96768618  0.61314124  0.83870305  1
  H+  H234  1  0.25726073  0.40073841  1.00693856  1
  H+  H235  1  0.47891989  0.11885115  0.98998476  1
  H+  H236  1  0.87970875  0.61181674  0.50198704  1
  H+  H237  1  0.12223436  0.10523550  0.32830270  1
  H+  H238  1  0.11556559  0.98262914  0.84240963  1
  H+  H239  1  0.38055763  0.13269864  0.83972314  1
  H+  H240  1  0.39017925  0.86970200  0.99026772  1
  H+  H241  1  0.28209750  0.90150666  0.14626774  1
  H+  H242  1  0.01741910  0.64280628  0.00498149  1
  H+  H243  1  0.36401243  0.88119715  0.66602621  1
  H+  H244  1  0.43272759  0.07967658  0.25361490  1
  H+  H245  1  0.38798676  0.86281559  0.16800668  1
  H+  H246  1  0.61785038  0.88811186  0.64062115  1
  H+  H247  1  0.47671832  0.11605222  0.65692178  1
  H+  H248  1  0.02352190  0.88176139  0.33945471  1
  H+  H249  1  0.12917520  0.01927573  0.32693711  1
  H+  H250  1  0.35641390  0.12809836  0.00866586  1
  H+  H251  1  0.75830453  0.62787744  0.66143052  1
  H+  H252  1  0.61725354  0.98915094  -0.00708433  1
  H+  H253  1  0.22105559  0.11108614  1.00135466  1
  H+  H254  1  0.62849059  0.37849964  0.84021210  1
  H+  H255  1  0.06974917  0.14770292  0.75998177  1
  H+  H256  1  0.37095628  0.59318641  0.66735391  1
  H+  H257  1  1.02259712  0.38553978  0.85670723  1
  H+  H258  1  0.31026046  0.43567240  0.33279822  1
  H+  H259  1  1.00064619  0.11350174  0.34487562  1
  H+  H260  1  0.13376124  0.11262195  0.84297776  1
  H+  H261  1  0.35285672  0.22771544  0.34204187  1
  H+  H262  1  0.64103618  0.86606470  0.98602765  1
  H+  H263  1  0.87328257  0.76550156  -0.01376227  1
  H+  H264  1  0.35222548  0.91510543  0.38272774  1
  H+  H265  1  0.72347862  0.36711579  0.98910981  1
  H+  H266  1  0.63934255  0.55042702  0.64890228  1
  H+  H267  1  0.10479086  0.64116553  0.83108686  1
  H+  H268  1  0.01863982  0.37139198  0.53138122  1
  H+  H269  1  0.09662722  0.11241696  0.65555463  1
  H+  H270  1  0.13261647  0.87022400  0.84650551  1
  H+  H271  1  0.86065110  0.72245194  0.48185469  1
  H+  H272  1  0.06100336  0.68659626  0.20285281  1
  H+  H273  1  0.40105407  1.00955765  0.31399470  1
  H+  H274  1  0.85224542  0.71819968  0.81373871  1
  H+  H275  1  0.10488267  0.60500415  0.33043634  1
  H+  H276  1  0.60949903  0.87739356  0.33003364  1
  H+  H277  1  0.14478576  0.28639114  0.17319144  1
  H+  H278  1  0.37727906  -0.01515216  1.00329150  1
  H+  H279  1  0.88854254  0.27781722  0.84129261  1
  H+  H280  1  0.78539636  0.38455863  0.66325994  1
  H+  H281  1  0.89913576  0.35504807  0.16848197  1
  H+  H282  1  0.26346543  0.13974426  0.34182187  1
  H+  H283  1  0.58744631  0.93277571  0.59344196  1
  H+  H284  1  0.85692257  0.13669285  0.15521002  1
  H+  H285  1  0.13073121  0.39672080  0.33104662  1
  H+  H286  1  0.25946737  0.22880655  0.73232117  1
  H+  H287  1  0.87383254  0.22708522  0.33096763  1
  H+  H288  1  0.26446275  0.80215635  0.78366643  1
  H+  H289  1  0.91137915  0.58272757  0.56205313  1
  H+  H290  1  0.13472954  0.54004088  0.99228595  1
  H+  H291  1  0.40965008  0.33503697  0.26489692  1
  H+  H292  1  0.57352677  0.66879618  0.09540375  1
  H+  H293  1  0.08591331  0.17692477  0.10602661  1
  H+  H294  1  0.53641965  0.63428655  0.40664972  1
  H+  H295  1  0.84608513  0.93865892  0.72748270  1
  H+  H296  1  0.07461390  0.66873280  0.73690985  1
  H+  H297  1  0.10987640  0.72834840  0.67801058  1
  H+  H298  1  0.12265523  0.40429240  0.15414562  1
  H+  H299  1  0.35740932  0.93297155  0.10015321  1
  H+  H300  1  0.35357661  0.33214938  0.58916246  1
  H+  H301  1  0.88080030  0.18162713  0.42300887  1
  H+  H302  1  0.66133479  0.34035697  0.93069269  1
  H+  H303  1  1.00607483  0.88603774  1.00515404  1
  H+  H304  1  0.66994802  0.33024983  0.55281443  1
  H+  H305  1  0.93262303  0.33846548  0.26363608  1
  H+  H306  1  0.88468226  0.10105973  0.32949097  1
  H+  H307  1  0.67780980  0.83876833  0.59055825  1
  H+  H308  1  0.62777872  0.51722578  0.84396628  1
  H+  H309  1  0.16562061  0.83571463  0.61062799  1
  H+  H310  1  0.61188080  0.63450328  0.48088560  1
  H+  H311  1  0.90786989  0.83141282  0.92896205  1
  H+  H312  1  0.08831660  0.91211438  0.39516170  1
  H+  H313  1  0.91890339  0.08830113  0.93787680  1
  H+  H314  1  0.41702833  0.08920676  0.93105055  1
  H+  H315  1  0.06968430  0.92513879  0.10359753  1
  H+  H316  1  0.66150523  0.83315881  0.21537703  1
  H+  H317  1  0.92522816  0.59847269  0.23288084  1
  H+  H318  1  0.67368087  0.82976293  0.93244369  1
  H+  H319  1  0.91105024  0.58322706  0.93212475  1
  H+  H320  1  0.57365578  0.41142181  0.10143557  1
  H+  H321  1  0.15321309  0.41139523  0.48643610  1
  H+  H322  1  0.36993562  0.30127511  0.59079018  1
  H+  H323  1  0.17751710  0.86697949  0.93359793  1
  H+  H324  1  0.34368044  0.12498498  0.64963894  1
  H+  H325  1  0.41018522  0.32821503  0.95358071  1
  H+  H326  1  0.33420189  0.90585940  0.72725693  1
  H+  H327  1  0.83259483  0.41795261  0.76485914  1
  H+  H328  1  0.33470111  0.41282503  0.77617060  1
  H+  H329  1  0.67201912  0.09846626  0.93590232  1
  H+  H330  1  0.82401205  0.65789898  0.39427563  1
  H+  H331  1  0.82445430  0.91623024  0.43449645  1
  H+  H332  1  0.54414446  0.42040047  0.78884356  1
  H+  H333  1  0.72594002  0.12255799  0.99804839  1
  H+  H334  1  0.38943691  0.78099935  0.97175728  1
  H+  H335  1  0.57674075  0.91190758  0.08492698  1
  H+  H336  1  0.16701118  0.32965158  0.56663765  1
  H+  H337  1  0.28713336  0.90058932  0.01068666  1
  H+  H338  1  0.16152437  0.59925382  0.90153990  1
  H+  H339  1  0.16849311  0.31651866  0.92649150  1
  H+  H340  1  0.69850667  0.08151369  0.50343395  1
  H+  H341  1  0.11126028  0.43125021  0.39181722  1
  H+  H342  1  0.62511170  0.57565054  0.23616609  1
  H+  H343  1  0.34118646  0.67072263  0.74516243  1
  H+  H344  1  0.64038282  0.77071118  0.83794113  1
  H+  H345  1  0.94258801  0.34666619  0.61834075  1
  H+  H346  1  0.83481926  0.91760730  0.09682564  1
  H+  H347  1  0.82551966  0.41173169  0.06057532  1
  H+  H348  1  0.08023910  0.20898568  0.33950672  1
  H+  H349  1  0.42582068  0.58414986  0.92381212  1
  H+  H350  1  0.91009529  0.33704826  0.93390112  1
  H+  H351  1  0.83318622  0.17530206  0.06430357  1
  H+  H352  1  0.76262589  0.62983250  0.82868957  1
  H+  H353  1  0.95928378  0.59146283  0.32389147  1
  H+  H354  1  0.81452247  0.64439715  0.72756116  1
  H+  H355  1  0.38729427  0.56314939  0.57903204  1
  H+  H356  1  0.56284446  0.89517195  0.42474693  1
  H+  H357  1  0.41736382  0.08234151  0.56471845  1
  H+  H358  1  0.33775629  0.66073934  0.38758622  1
  H+  H359  1  0.57118872  0.15328695  0.39686513  1
  H+  H360  1  0.65705091  0.31122195  0.27259493  1
  H+  H361  1  0.60141516  0.67699084  0.76487911  1
  H+  H362  1  0.10050637  0.42137658  0.74642362  1
  H+  H363  1  0.80096069  0.26955257  0.55744052  1
  H+  H364  1  0.41351128  0.84109022  0.89194704  1
  H+  H365  1  0.83820864  0.17293167  0.77601971  1
  H+  H366  1  0.91516152  0.84054375  0.27413177  1
  H+  H367  1  0.33547064  0.34638547  0.70668149  1
  H+  H368  1  0.84956516  0.73886539  0.18567893  1
  H+  H369  1  0.66565663  0.09083421  0.60657234  1
  H+  H370  1  0.33556268  0.21575663  0.78511934  1
  H+  H371  1  0.76976295  0.63484823  0.48814570  1
  H+  H372  1  0.13254026  0.35379183  0.66643679  1
  H+  H373  1  0.39338198  0.81380170  0.56057955  1
  H+  H374  1  0.06778128  0.61330762  0.39329124  1
  H+  H375  1  0.85989342  0.47696537  0.82443412  1
  H+  H376  1  0.14478550  0.06980024  0.59019881  1
  H+  H377  1  0.67063207  0.59854241  0.55965348  1
  H+  H378  1  0.68069257  0.75060238  0.28061346  1
  H+  H379  1  0.33388368  0.42958977  0.43343989  1
  H+  H380  1  0.12574537  1.02703712  0.00003720  1
  H+  H381  1  0.58910978  0.42824202  0.38999338  1
  H+  H382  1  0.01900864  0.40817960  0.00700983  1
  H+  H383  1  0.11521048  0.97495525  0.48940480  1
  O2-  O384  1  0.08635048  0.17909634  0.15153743  1
  O2-  O385  1  0.09233718  0.17033940  0.47801344  1
  O2-  O386  1  0.07618789  0.15388533  0.80466995  1
  O2-  O387  1  0.09015193  0.43305218  0.14201036  1
  O2-  O388  1  0.15283125  0.45706659  0.46157826  1
  O2-  O389  1  0.08733422  0.41399083  0.86034154  1
  O2-  O390  1  0.12433405  0.71727881  0.20644257  1
  O2-  O391  1  0.07238824  0.67687107  0.48005770  1
  O2-  O392  1  0.07317942  0.67051910  0.81552166  1
  O2-  O393  1  0.07798629  0.92400023  0.14821013  1
  O2-  O394  1  0.08810240  0.91422524  0.47386331  1
  O2-  O395  1  0.08844495  0.92327898  0.82485339  1
  O2-  O396  1  0.32988734  0.16237291  0.14886022  1
  O2-  O397  1  0.32476200  0.16315358  0.47692238  1
  O2-  O398  1  0.33827846  0.18899041  0.82740710  1
  O2-  O399  1  0.33284705  0.41665347  0.14477133  1
  O2-  O400  1  0.33105962  0.42377560  0.47896552  1
  O2-  O401  1  0.33293850  0.41827399  0.82142738  1
  O2-  O402  1  0.32473754  0.65029197  0.14403695  1
  O2-  O403  1  0.32342058  0.64818507  0.47435849  1
  O2-  O404  1  0.34325608  0.67683537  0.82498284  1
  O2-  O405  1  0.34802021  0.93050178  0.14493110  1
  O2-  O406  1  0.32267975  0.93662468  0.46611543  1
  O2-  O407  1  0.30050145  0.86026803  0.79920130  1
  O2-  O408  1  0.58529549  0.17000431  0.14132516  1
  O2-  O409  1  0.57706434  0.16066919  0.47480981  1
  O2-  O410  1  0.57235063  0.19151156  0.79601089  1
  O2-  O411  1  0.57070947  0.40740695  0.14710118  1
  O2-  O412  1  0.59440344  0.43046195  0.47114078  1
  O2-  O413  1  0.57744867  0.42569357  0.82500854  1
  O2-  O414  1  0.57434111  0.67686187  0.14026072  1
  O2-  O415  1  0.57908126  0.66132875  0.46345926  1
  O2-  O416  1  0.58944809  0.67047773  0.80940147  1
  O2-  O417  1  0.57072320  0.90870289  0.12929884  1
  O2-  O418  1  0.56057696  0.89656518  0.47032382  1
  O2-  O419  1  0.58809657  0.91572726  0.86102085  1
  O2-  O420  1  0.83307489  0.17470505  0.14014645  1
  O2-  O421  1  0.89900739  0.19190745  0.46674635  1
  O2-  O422  1  0.84188397  0.17662685  0.82191900  1
  O2-  O423  1  0.81900870  0.38813873  0.13988708  1
  O2-  O424  1  0.82770275  0.41647684  0.46863934  1
  O2-  O425  1  0.82972195  0.41589600  0.80997029  1
  O2-  O426  1  0.81588333  0.67592573  0.18117073  1
  O2-  O427  1  0.82980516  0.65905813  0.47157241  1
  O2-  O428  1  0.82115856  0.65481575  0.80883195  1
  O2-  O429  1  0.83284710  0.91867868  0.14211136  1
  O2-  O430  1  0.82453939  0.91649585  0.48001901  1
  O2-  O431  1  0.83562917  0.92661653  0.80696385  1
  O2-  O432  1  0.16406508  0.08752551  0.18957218  1
  O2-  O433  1  0.16120425  0.07539039  0.51463651  1
  O2-  O434  1  0.16727445  0.08838708  0.86217939  1
  O2-  O435  1  0.17744507  0.34825762  0.18534397  1
  O2-  O436  1  0.17129359  0.33301843  0.52150860  1
  O2-  O437  1  0.16597586  0.31578857  0.84201383  1
  O2-  O438  1  0.17286727  0.57927625  0.19201546  1
  O2-  O439  1  0.16260929  0.59122554  0.52861582  1
  O2-  O440  1  0.15978474  0.59520781  0.85536589  1
  O2-  O441  1  0.18319712  0.85238921  0.13405816  1
  O2-  O442  1  0.17285932  0.83664972  0.53233705  1
  O2-  O443  1  0.15900023  0.83548268  0.86316904  1
  O2-  O444  1  0.42628095  0.08719922  0.18770071  1
  O2-  O445  1  0.41582386  0.08307217  0.51879591  1
  O2-  O446  1  0.40957388  0.09818400  0.85200340  1
  O2-  O447  1  0.40797372  0.33150130  0.18540697  1
  O2-  O448  1  0.42726448  0.33945266  0.48106381  1
  O2-  O449  1  0.41887999  0.34877739  0.87600726  1
  O2-  O450  1  0.40301750  0.57188341  0.18670863  1
  O2-  O451  1  0.38979207  0.56667844  0.53064733  1
  O2-  O452  1  0.42410462  0.58945605  0.84487407  1
  O2-  O453  1  0.41605248  0.82957018  0.18070197  1
  O2-  O454  1  0.39314831  0.81346219  0.51463656  1
  O2-  O455  1  0.41550373  0.83503669  0.84686380  1
  O2-  O456  1  0.72990880  0.16112452  0.20608913  1
  O2-  O457  1  0.64030168  0.05527811  0.51972842  1
  O2-  O458  1  0.67704615  0.09491770  0.86503924  1
  O2-  O459  1  0.67151074  0.36171400  0.19363776  1
  O2-  O460  1  0.66282250  0.32759865  0.50771554  1
  O2-  O461  1  0.65866859  0.34562183  0.85375732  1
  O2-  O462  1  0.59692232  0.56354202  0.19589502  1
  O2-  O463  1  0.66875168  0.59387372  0.51355980  1
  O2-  O464  1  0.66458567  0.58178394  0.85808345  1
  O2-  O465  1  0.66409758  0.83675043  0.17075920  1
  O2-  O466  1  0.65877610  0.82552259  0.51231413  1
  O2-  O467  1  0.67478793  0.83055966  0.85480102  1
  O2-  O468  1  0.90645261  0.08916352  0.17370272  1
  O2-  O469  1  0.93229082  0.08326632  0.52015099  1
  O2-  O470  1  0.91862413  0.08598448  0.85899202  1
  O2-  O471  1  0.93706830  0.33635646  0.18642014  1
  O2-  O472  1  0.81076327  0.26901122  0.51411074  1
  O2-  O473  1  0.91761483  0.33948602  0.85564678  1
  O2-  O474  1  0.94769701  0.62810177  0.19247441  1
  O2-  O475  1  0.91340029  0.58386660  0.51658989  1
  O2-  O476  1  0.90702180  0.57858660  0.85327472  1
  O2-  O477  1  0.91978700  0.85470369  0.20070499  1
  O2-  O478  1  0.91121761  0.82438540  0.49915424  1
  O2-  O479  1  0.91684962  0.83414373  0.80062138  1
  O2-  O480  1  0.15677229  0.08014642  0.31244168  1
  O2-  O481  1  0.14703084  0.07574943  0.63569043  1
  O2-  O482  1  0.16124984  0.08713040  0.98476679  1
  O2-  O483  1  0.20676789  0.36932805  0.29962818  1
  O2-  O484  1  0.15803788  0.32171036  0.64742868  1
  O2-  O485  1  0.16348853  0.32967431  0.96921100  1
  O2-  O486  1  0.18883153  0.58895813  0.30445063  1
  O2-  O487  1  0.16900040  0.59058833  0.65563319  1
  O2-  O488  1  0.16754373  0.60052194  0.97450076  1
  O2-  O489  1  0.16660496  0.81714871  0.31168413  1
  O2-  O490  1  0.16589728  0.83249035  0.65581241  1
  O2-  O491  1  0.19087402  0.89413303  0.97561713  1
  O2-  O492  1  0.43293443  0.07273443  0.30116827  1
  O2-  O493  1  0.41731573  0.08071161  0.63998299  1
  O2-  O494  1  0.41743847  0.08392154  0.97618576  1
  O2-  O495  1  0.41322694  0.33469720  0.31024781  1
  O2-  O496  1  0.32178566  0.25532781  0.73001672  1
  O2-  O497  1  0.41041553  0.31460902  0.99744741  1
  O2-  O498  1  0.50300102  0.67584930  0.33070628  1
  O2-  O499  1  0.39182486  0.55997808  0.64388388  1
  O2-  O500  1  0.42181156  0.58901656  0.96888857  1
  O2-  O501  1  0.42188702  0.82848032  0.29820847  1
  O2-  O502  1  0.40541203  0.81802789  0.63677935  1
  O2-  O503  1  0.42293984  0.84542784  0.96949400  1
  O2-  O504  1  0.68062676  0.07947896  0.36592863  1
  O2-  O505  1  0.66534453  0.08992852  0.65134318  1
  O2-  O506  1  0.66554360  0.09387913  0.98230682  1
  O2-  O507  1  0.66387523  0.30295523  0.31589488  1
  O2-  O508  1  0.68510808  0.33193542  0.63171345  1
  O2-  O509  1  0.66183212  0.33666450  0.97633408  1
  O2-  O510  1  0.65137332  0.59202606  0.31598937  1
  O2-  O511  1  0.67891482  0.60831006  0.63433019  1
  O2-  O512  1  0.65824933  0.57898973  0.98082915  1
  O2-  O513  1  0.66039164  0.78839236  0.29569350  1
  O2-  O514  1  0.68408043  0.85208456  0.63504567  1
  O2-  O515  1  0.67071348  0.83275715  0.97787634  1
  O2-  O516  1  0.91369088  0.06678226  0.32247649  1
  O2-  O517  1  0.97717060  0.10385812  0.64651868  1
  O2-  O518  1  0.91699938  0.08929558  0.98324329  1
  O2-  O519  1  0.92755448  0.33718465  0.30912910  1
  O2-  O520  1  0.93418479  0.34622442  0.66224518  1
  O2-  O521  1  0.91003124  0.33957411  0.97921600  1
  O2-  O522  1  0.90147793  0.57065509  0.30495927  1
  O2-  O523  1  0.91447476  0.58004310  0.64114489  1
  O2-  O524  1  0.91296182  0.58764680  0.97744870  1
  O2-  O525  1  0.91393348  0.83318987  0.31980648  1
  O2-  O526  1  0.92610787  0.82173388  0.68168298  1
  O2-  O527  1  0.90688694  0.83054669  0.97319686  1
  O2-  O528  1  0.08110271  0.17197041  0.02835900  1
  O2-  O529  1  0.06615650  0.15386369  0.35711291  1
  O2-  O530  1  0.06270696  0.14231190  0.67513855  1
  O2-  O531  1  0.08058637  0.44458808  0.01694591  1
  O2-  O532  1  0.09541764  0.42009104  0.34763305  1
  O2-  O533  1  0.09574241  0.42143785  0.70225902  1
  O2-  O534  1  0.07647126  0.66821523  0.02231912  1
  O2-  O535  1  0.05488494  0.60591313  0.35002580  1
  O2-  O536  1  0.07764361  0.66670528  0.69152971  1
  O2-  O537  1  0.06446154  0.92107557  0.02378337  1
  O2-  O538  1  0.08603526  0.91278066  0.34982985  1
  O2-  O539  1  0.12471821  0.94582904  0.71141867  1
  O2-  O540  1  0.32416374  0.15461774  0.02611340  1
  O2-  O541  1  0.32250493  0.16852063  0.35876137  1
  O2-  O542  1  0.30904757  0.15317858  0.64564320  1
  O2-  O543  1  0.30943102  0.43830351  0.03126242  1
  O2-  O544  1  0.35925515  0.44601583  0.35931433  1
  O2-  O545  1  0.32732665  0.39856361  0.69931862  1
  O2-  O546  1  0.33744271  0.67691579  -0.04643368  1
  O2-  O547  1  0.34737946  0.66543480  0.34325129  1
  O2-  O548  1  0.33778061  0.66636252  0.69918057  1
  O2-  O549  1  0.34860729  0.92518121  0.02108199  1
  O2-  O550  1  0.35083921  0.91485122  0.33805744  1
  O2-  O551  1  0.33828772  0.91508130  0.68238357  1
  O2-  O552  1  0.58005278  0.17339765  0.01869560  1
  O2-  O553  1  0.57521971  0.14922002  0.35174969  1
  O2-  O554  1  0.58189380  0.17796891  0.68062842  1
  O2-  O555  1  0.58184843  0.41717451  0.02635548  1
  O2-  O556  1  0.58659871  0.43197484  0.34499813  1
  O2-  O557  1  0.65924513  0.44756847  0.69614856  1
  O2-  O558  1  0.57871594  0.66555373  0.01703983  1
  O2-  O559  1  0.50658581  0.60669685  0.36341515  1
  O2-  O560  1  0.65966271  0.71317086  0.69632872  1
  O2-  O561  1  0.58976572  0.92436860  -0.00509009  1
  O2-  O562  1  0.57617503  0.90118769  0.34755077  1
  O2-  O563  1  0.57991946  0.91511501  0.63604619  1
  O2-  O564  1  0.83249350  0.17511583  0.01854455  1
  O2-  O565  1  0.85031918  0.16923471  0.34974584  1
  O2-  O566  1  0.83341290  0.17328496  0.70243035  1
  O2-  O567  1  0.82791890  0.41944911  0.01585715  1
  O2-  O568  1  0.83235779  0.40595218  0.34701689  1
  O2-  O569  1  0.84292143  0.41902841  0.68346388  1
  O2-  O570  1  0.82866941  0.67588150  0.00772678  1
  O2-  O571  1  0.82521556  0.66032868  0.34863910  1
  O2-  O572  1  0.81767638  0.64040533  0.68268578  1
  O2-  O573  1  0.83437783  0.92111112  0.01798580  1
  O2-  O574  1  0.81859394  0.89916542  0.35878507  1
  O2-  O575  1  0.85777718  0.94370964  0.68282426  1
