# generated using pymatgen
data_H2O
_symmetry_space_group_name_H-M   'P 1'
_cell_length_a   17.99164378
_cell_length_b   17.98335762
_cell_length_c   21.99849625
_cell_angle_alpha   89.99785962
_cell_angle_beta   89.99335937
_cell_angle_gamma   120.03158699
_symmetry_Int_Tables_number   1
_chemical_formula_structural   H2O
_chemical_formula_sum   'H384 O192'
_cell_volume   6162.07422591
_cell_formula_units_Z   192
loop_
 _symmetry_equiv_pos_site_id
 _symmetry_equiv_pos_as_xyz
  1  'x, y, z'
loop_
 _atom_type_symbol
 _atom_type_oxidation_number
  H+  1.0
  O2-  -2.0
loop_
 _atom_site_type_symbol
 _atom_site_label
 _atom_site_symmetry_multiplicity
 _atom_site_fract_x
 _atom_site_fract_y
 _atom_site_fract_z
 _atom_site_occupancy
  H+  H0  1  0.81650381  0.88845631  0.84126484  1
  H+  H1  1  0.23037846  0.37714100  0.65884402  1
  H+  H2  1  0.99499540  0.11774073  0.99973541  1
  H+  H3  1  0.75403129  0.38593881  0.34246418  1
  H+  H4  1  0.88691737  0.88091679  0.17618968  1
  H+  H5  1  0.36844506  0.64523649  0.50050245  1
  H+  H6  1  0.17993052  0.13542138  0.82372543  1
  H+  H7  1  0.44489721  0.11291624  0.85454268  1
  H+  H8  1  -0.00732769  0.34001393  0.15177347  1
  H+  H9  1  0.62721493  0.26975088  0.85209983  1
  H+  H10  1  0.46849337  0.60678465  1.00701012  1
  H+  H11  1  0.87402169  0.67103926  0.16469091  1
  H+  H12  1  0.37358668  0.10853271  0.51501672  1
  H+  H13  1  0.35615106  0.47909804  0.66870694  1
  H+  H14  1  0.08888163  0.18248796  0.06578560  1
  H+  H15  1  0.60508688  0.38328696  0.00525628  1
  H+  H16  1  0.77684561  0.12561095  0.66922642  1
  H+  H17  1  0.14131188  0.36883014  0.99660319  1
  H+  H18  1  0.78869638  0.27283750  0.03783867  1
  H+  H19  1  0.35416133  0.46161447  0.02455541  1
  H+  H20  1  0.89925775  0.66331334  -0.01827395  1
  H+  H21  1  0.88093348  0.78916736  0.17393748  1
  H+  H22  1  0.77868548  0.90075031  0.15948044  1
  H+  H23  1  -0.01758778  0.61622412  0.83222683  1
  H+  H24  1  0.16527717  0.59321545  0.26999978  1
  H+  H25  1  0.61285195  0.98619637  0.66216034  1
  H+  H26  1  0.89089866  0.77818801  0.50394337  1
  H+  H27  1  0.38427626  0.35960224  0.17874744  1
  H+  H28  1  0.94528593  0.50484354  0.21514969  1
  H+  H29  1  0.93593965  0.37769643  0.29559145  1
  H+  H30  1  0.03536060  0.40667255  0.66891057  1
  H+  H31  1  0.62156937  0.47786157  0.50148661  1
  H+  H32  1  0.36887096  0.74194303  0.50252524  1
  H+  H33  1  0.11379106  0.89145121  0.34832960  1
  H+  H34  1  0.13730787  0.36690192  0.83980199  1
  H+  H35  1  0.85832939  0.63412474  0.82541350  1
  H+  H36  1  0.36277786  0.89848016  0.34315091  1
  H+  H37  1  0.64001446  0.52615995  0.16903190  1
  H+  H38  1  0.14144748  0.52809295  0.83710294  1
  H+  H39  1  0.47277223  0.61911106  0.50331746  1
  H+  H40  1  0.48018722  0.86602104  -0.01111423  1
  H+  H41  1  0.84579642  0.43437735  0.15694725  1
  H+  H42  1  0.39260766  0.27479941  0.17637072  1
  H+  H43  1  0.38826008  0.78022190  0.98995716  1
  H+  H44  1  -0.01579112  0.11626722  0.50891516  1
  H+  H45  1  0.57382352  0.64618581  0.39696496  1
  H+  H46  1  0.63273994  0.82540576  0.33509752  1
  H+  H47  1  0.83837885  0.21676174  0.17639296  1
  H+  H48  1  0.10899822  0.72153083  0.82301181  1
  H+  H49  1  0.37501744  0.01311482  0.51764275  1
  H+  H50  1  0.12164121  0.23081771  0.67824506  1
  H+  H51  1  0.15039160  0.36857572  0.33090249  1
  H+  H52  1  0.14819112  0.80703073  0.90212663  1
  H+  H53  1  0.52564945  0.64150953  0.82094648  1
  H+  H54  1  0.34189409  0.40265317  0.51408464  1
  H+  H55  1  0.22510665  0.63032327  0.18090617  1
  H+  H56  1  0.53255318  0.89499465  0.15997796  1
  H+  H57  1  0.64665028  0.36503129  0.84777717  1
  H+  H58  1  0.81359252  0.89926905  0.68988621  1
  H+  H59  1  0.37705666  0.35002798  1.00046053  1
  H+  H60  1  0.69519473  0.10596162  0.22328419  1
  H+  H61  1  0.47333897  0.88810851  0.83554775  1
  H+  H62  1  0.58158506  0.41318279  0.60673186  1
  H+  H63  1  0.15477901  0.83614355  0.28229504  1
  H+  H64  1  1.02203336  0.38789621  0.81500828  1
  H+  H65  1  0.74281434  0.11328303  0.49827987  1
  H+  H66  1  0.13501116  0.76618450  0.65661656  1
  H+  H67  1  0.32790416  0.13152590  0.83286041  1
  H+  H68  1  0.34079954  0.68316544  0.76136927  1
  H+  H69  1  0.36623997  0.49401934  0.82663095  1
  H+  H70  1  0.88927559  0.25735057  1.00670262  1
  H+  H71  1  0.73697523  0.62275400  0.31993700  1
  H+  H72  1  0.27040173  0.64332605  0.49896834  1
  H+  H73  1  0.04735234  0.38754629  0.32973557  1
  H+  H74  1  1.04471368  0.73448968  0.97371548  1
  H+  H75  1  0.12178976  0.14753570  0.49710853  1
  H+  H76  1  0.91192716  0.86939139  0.66173992  1
  H+  H77  1  0.79979632  0.57040451  0.03727785  1
  H+  H78  1  0.99206406  0.11862088  0.66512946  1
  H+  H79  1  0.10162959  0.32305177  0.15873514  1
  H+  H80  1  0.46347970  0.60216390  0.16815068  1
  H+  H81  1  0.89234289  0.87665438  0.32870985  1
  H+  H82  1  0.61415980  0.70096640  0.33729245  1
  H+  H83  1  0.26554400  0.37508151  1.01303358  1
  H+  H84  1  0.63673963  0.26837537  0.33128678  1
  H+  H85  1  0.35846055  0.13722557  0.34080622  1
  H+  H86  1  0.14373749  0.11447183  0.66238434  1
  H+  H87  1  0.89706782  0.77284961  0.85333551  1
  H+  H88  1  0.71695253  0.85961160  0.50939440  1
  H+  H89  1  0.35501064  0.89484352  0.83252276  1
  H+  H90  1  0.33394435  0.43032637  0.77003824  1
  H+  H91  1  0.86457518  0.97832941  0.50348593  1
  H+  H92  1  0.13428651  0.38288581  0.66015495  1
  H+  H93  1  0.90667924  0.03848777  0.32986771  1
  H+  H94  1  0.63803389  0.52956482  0.65544930  1
  H+  H95  1  0.10812844  0.92416048  0.72504547  1
  H+  H96  1  0.89000190  0.37090119  0.50541653  1
  H+  H97  1  0.22923704  0.61868469  0.83536294  1
  H+  H98  1  0.63964865  0.86494906  0.17126582  1
  H+  H99  1  0.93596246  0.28918368  0.94363680  1
  H+  H100  1  0.35692399  0.97730743  0.67786371  1
  H+  H101  1  0.98049663  0.61323445  0.50937788  1
  H+  H102  1  0.48109072  0.12442872  0.66307211  1
  H+  H103  1  0.90781265  0.77902648  0.65180643  1
  H+  H104  1  0.47086611  0.61811289  0.32200305  1
  H+  H105  1  0.60561838  0.72074429  0.48827588  1
  H+  H106  1  0.77303679  0.64628212  0.16111734  1
  H+  H107  1  0.91078709  0.02814850  0.84930862  1
  H+  H108  1  0.10734479  0.87078979  0.01320267  1
  H+  H109  1  0.72894430  0.85090353  0.33200047  1
  H+  H110  1  0.22543871  0.86977647  0.33684869  1
  H+  H111  1  0.33326686  0.16453100  0.40331462  1
  H+  H112  1  0.58293993  0.75844857  0.64520042  1
  H+  H113  1  0.91704629  0.84618354  0.26808584  1
  H+  H114  1  0.61864913  0.48207174  0.83042576  1
  H+  H115  1  0.27942760  0.64584958  0.66912766  1
  H+  H116  1  0.40805427  0.08140618  0.58034588  1
  H+  H117  1  0.51370873  0.37898582  0.00529068  1
  H+  H118  1  0.14137869  0.03002928  0.50671980  1
  H+  H119  1  0.39488824  0.77864049  0.17236485  1
  H+  H120  1  0.11148648  0.63380574  0.82228636  1
  H+  H121  1  0.90953527  1.04862879  0.17174423  1
  H+  H122  1  0.60759976  0.72174567  0.15847164  1
  H+  H123  1  0.70968767  0.60346240  0.99448026  1
  H+  H124  1  0.59337923  0.21810778  1.00486563  1
  H+  H125  1  1.03835179  0.17191757  0.16234614  1
  H+  H126  1  0.35435419  0.64037894  1.01346690  1
  H+  H127  1  1.04572205  0.14340862  0.83193264  1
  H+  H128  1  0.62808692  0.38953118  0.50436588  1
  H+  H129  1  0.62234945  0.14222050  0.15179784  1
  H+  H130  1  0.90567327  0.12637707  0.32879845  1
  H+  H131  1  0.39104277  0.12456474  0.66853748  1
  H+  H132  1  0.37111742  0.65542517  0.33246040  1
  H+  H133  1  0.72924384  0.61786982  0.50318841  1
  H+  H134  1  0.35988474  0.37654174  0.34317339  1
  H+  H135  1  0.37774855  0.27402233  0.66621569  1
  H+  H136  1  0.70498326  0.17221744  0.84992811  1
  H+  H137  1  0.47137095  0.12299836  0.32669415  1
  H+  H138  1  0.47365191  0.10412319  0.17145162  1
  H+  H139  1  0.60439030  0.82637374  0.81555582  1
  H+  H140  1  0.94428051  0.63658065  0.23677533  1
  H+  H141  1  0.63299473  0.23422123  0.49488154  1
  H+  H142  1  0.61313250  0.97813998  0.00109974  1
  H+  H143  1  0.61314897  0.35371637  0.15909196  1
  H+  H144  1  0.21664926  0.85251690  0.84777560  1
  H+  H145  1  0.22778484  0.62057625  0.32787072  1
  H+  H146  1  0.13649365  0.10802915  1.00666166  1
  H+  H147  1  0.88679293  0.23706483  0.33704184  1
  H+  H148  1  0.71411628  0.88536297  0.67685370  1
  H+  H149  1  0.37275351  0.51472070  0.17368017  1
  H+  H150  1  0.87960731  0.25851934  0.82059996  1
  H+  H151  1  0.92765870  0.08699641  0.56951991  1
  H+  H152  1  0.36990406  0.21860045  0.50188048  1
  H+  H153  1  0.12837901  0.27601950  0.51031652  1
  H+  H154  1  0.86499783  0.63961890  0.49803354  1
  H+  H155  1  0.74286706  0.14464641  1.01471591  1
  H+  H156  1  0.89584145  0.52332265  0.99831996  1
  H+  H157  1  0.25428972  0.39545337  0.49841121  1
  H+  H158  1  0.90489817  0.36239866  0.69039069  1
  H+  H159  1  0.61510118  0.62826757  0.82376120  1
  H+  H160  1  0.60594009  0.63180342  0.49319875  1
  H+  H161  1  0.13384550  1.02926652  0.33643357  1
  H+  H162  1  0.87569133  0.23475633  0.49634904  1
  H+  H163  1  0.61399752  0.02534083  0.82148608  1
  H+  H164  1  0.10664643  0.70563420  0.09161388  1
  H+  H165  1  0.14224800  0.85978761  0.65682073  1
  H+  H166  1  0.14805418  0.02673458  0.65760334  1
  H+  H167  1  0.51594172  0.37430092  0.34675272  1
  H+  H168  1  0.86313458  0.88810318  0.49837171  1
  H+  H169  1  0.82085502  0.35085524  0.78903412  1
  H+  H170  1  0.74100030  0.37202673  0.50706016  1
  H+  H171  1  1.03655543  0.15020750  0.34422592  1
  H+  H172  1  0.95855776  0.51545694  0.18223434  1
  H+  H173  1  0.38058412  0.86751458  0.65859484  1
  H+  H174  1  0.74926161  0.40125412  0.65708566  1
  H+  H175  1  1.04490309  0.89320915  0.66605569  1
  H+  H176  1  0.60158646  0.63384157  1.00613269  1
  H+  H177  1  0.99852792  0.66466475  0.17319947  1
  H+  H178  1  0.35766517  0.02379816  0.84727785  1
  H+  H179  1  0.97802100  0.61767681  0.33250984  1
  H+  H180  1  0.86554660  0.20973347  0.68200230  1
  H+  H181  1  0.72555995  0.61920923  0.66225649  1
  H+  H182  1  0.89807189  0.11038472  0.84843373  1
  H+  H183  1  0.38533092  1.03140410  0.32961602  1
  H+  H184  1  0.14636397  0.53355666  0.50037976  1
  H+  H185  1  0.76998139  0.12045293  0.83223149  1
  H+  H186  1  0.65089365  0.37326518  0.66057551  1
  H+  H187  1  0.38619731  0.61814713  0.65989031  1
  H+  H188  1  1.02761211  0.88555183  1.01032410  1
  H+  H189  1  0.72499807  0.61890479  0.83909466  1
  H+  H190  1  0.12284887  0.75045946  0.15734318  1
  H+  H191  1  0.35183447  0.38692576  0.67163493  1
  H+  H192  1  0.12836322  0.48218242  0.33680511  1
  H+  H193  1  0.93655521  0.52319080  -0.00937364  1
  H+  H194  1  0.61353114  0.25360045  0.15810925  1
  H+  H195  1  0.41894499  0.84407976  0.89626621  1
  H+  H196  1  0.51146028  0.62554243  0.67447239  1
  H+  H197  1  0.37272578  0.01961089  0.99888957  1
  H+  H198  1  0.14290702  0.27104502  0.33438650  1
  H+  H199  1  0.58097774  0.65723072  0.75435966  1
  H+  H200  1  0.35616652  0.63730022  0.16043933  1
  H+  H201  1  0.65577819  0.12351809  0.64406254  1
  H+  H202  1  0.63448887  0.14580596  0.49389932  1
  H+  H203  1  0.70579659  0.34683945  0.16497936  1
  H+  H204  1  0.47728114  0.37072154  0.84865518  1
  H+  H205  1  0.17326352  0.59055990  0.59792454  1
  H+  H206  1  0.57634842  0.66363128  0.06798790  1
  H+  H207  1  0.89637398  0.53159699  0.85457220  1
  H+  H208  1  0.89918805  0.98715901  0.68041344  1
  H+  H209  1  0.27405724  0.13431916  0.50054775  1
  H+  H210  1  0.36347710  0.89164082  0.49984197  1
  H+  H211  1  0.84420008  0.39053951  0.34438213  1
  H+  H212  1  0.39875520  0.64363131  0.82736262  1
  H+  H213  1  0.36770649  0.89997950  -0.00068702  1
  H+  H214  1  0.66448980  0.13614548  0.32548319  1
  H+  H215  1  0.11233701  0.86810441  0.18956555  1
  H+  H216  1  0.14912238  0.64277915  -0.01069909  1
  H+  H217  1  0.85864570  0.61149503  0.67103981  1
  H+  H218  1  0.57885438  0.81397518  0.84478110  1
  H+  H219  1  0.11530709  0.22856149  1.00211829  1
  H+  H220  1  0.61617999  0.10434443  0.99123952  1
  H+  H221  1  0.15180199  0.98935339  0.81044148  1
  H+  H222  1  0.50225637  0.12998755  0.00652722  1
  H+  H223  1  0.51749499  0.38384358  0.16062749  1
  H+  H224  1  0.63917122  0.24342035  0.66594195  1
  H+  H225  1  0.13907897  0.61493844  0.65803704  1
  H+  H226  1  0.26984415  0.64795879  0.00735374  1
  H+  H227  1  0.02546346  0.39799942  0.49104669  1
  H+  H228  1  0.60716207  0.63617421  0.67081778  1
  H+  H229  1  0.12862620  0.23616495  0.82923925  1
  H+  H230  1  0.47300161  0.88131092  0.32597689  1
  H+  H231  1  0.47694442  0.86505696  0.50414302  1
  H+  H232  1  0.54859349  0.08434928  0.36439548  1
  H+  H233  1  0.11450341  0.63799558  0.34320077  1
  H+  H234  1  0.70955205  0.33714934  1.00102556  1
  H+  H235  1  0.38077996  0.27039718  0.32877838  1
  H+  H236  1  0.39202659  0.37643556  0.84721774  1
  H+  H237  1  0.59152081  0.13309898  0.84665212  1
  H+  H238  1  0.85657234  0.31457456  0.17698306  1
  H+  H239  1  0.75222887  0.13312452  0.32584438  1
  H+  H240  1  0.62082406  0.51723536  -0.01107503  1
  H+  H241  1  0.40700113  0.34673612  0.48750305  1
  H+  H242  1  0.35616692  -0.03246075  0.15350892  1
  H+  H243  1  0.86953764  0.48307282  0.49314702  1
  H+  H244  1  0.60226311  0.91295222  0.30620394  1
  H+  H245  1  0.36425410  0.88465684  0.15078977  1
  H+  H246  1  0.89686516  0.10644447  0.66526639  1
  H+  H247  1  0.27184335  0.88895598  0.49971447  1
  H+  H248  1  0.01705504  0.60759495  0.66702735  1
  H+  H249  1  0.09180555  0.17756517  0.43777125  1
  H+  H250  1  0.22409459  0.11704488  0.33393558  1
  H+  H251  1  0.14479889  0.62314623  0.50195901  1
  H+  H252  1  0.69974370  0.85630607  0.70455952  1
  H+  H253  1  0.87116256  0.65027572  0.34289077  1
  H+  H254  1  0.35206593  0.22091744  1.00327692  1
  H+  H255  1  0.24719132  0.12149944  0.00694032  1
  H+  H256  1  0.35204330  0.12686423  0.00627139  1
  H+  H257  1  0.92043455  0.86984831  0.85123205  1
  H+  H258  1  0.13942393  0.01769425  1.00602271  1
  H+  H259  1  0.89222340  0.78374657  0.00300734  1
  H+  H260  1  0.36794586  0.73571758  0.66739347  1
  H+  H261  1  0.37103134  0.14106118  0.16110750  1
  H+  H262  1  0.68059037  0.78013059  0.84964985  1
  H+  H263  1  0.36882893  0.74400894  0.82129965  1
  H+  H264  1  0.63029975  1.00452552  0.33061213  1
  H+  H265  1  0.67269810  0.58815609  0.22771111  1
  H+  H266  1  0.02976909  0.89371334  0.49643989  1
  H+  H267  1  0.33348607  0.91905763  0.06121062  1
  H+  H268  1  0.64347071  0.86835377  -0.00601428  1
  H+  H269  1  0.87960907  0.14688019  0.49622870  1
  H+  H270  1  0.11254652  0.03325846  0.17789359  1
  H+  H271  1  0.61209735  0.93656474  0.82036428  1
  H+  H272  1  0.78143346  0.16233447  0.08414160  1
  H+  H273  1  0.85942861  0.50486136  0.71043390  1
  H+  H274  1  0.86863818  0.73785598  0.34454221  1
  H+  H275  1  0.01857043  0.89742619  0.16148364  1
  H+  H276  1  0.57915055  0.84419153  0.64277827  1
  H+  H277  1  0.63966053  0.77792188  1.00118985  1
  H+  H278  1  0.11480119  0.72816228  0.34696127  1
  H+  H279  1  0.47297537  0.87508743  0.65769321  1
  H+  H280  1  0.27497778  0.13943862  0.67153608  1
  H+  H281  1  0.89670446  1.02053243  -0.00247527  1
  H+  H282  1  0.41482140  0.58821957  0.60026374  1
  H+  H283  1  0.11716921  0.72821753  0.49481783  1
  H+  H284  1  0.12324431  0.89058656  0.81990363  1
  H+  H285  1  0.03574720  0.39160492  0.00788716  1
  H+  H286  1  0.60876076  0.88417588  0.48317904  1
  H+  H287  1  0.88422481  0.53469462  0.32529049  1
  H+  H288  1  0.93513570  0.44217641  0.64579663  1
  H+  H289  1  0.24405380  0.36386937  0.33622224  1
  H+  H290  1  0.08319123  0.91861775  0.10539004  1
  H+  H291  1  0.12385354  0.36531897  0.50846917  1
  H+  H292  1  0.39174064  0.08180245  0.93960167  1
  H+  H293  1  0.57762460  0.94147914  0.72636677  1
  H+  H294  1  0.94250482  0.10199393  0.23201329  1
  H+  H295  1  0.33667213  0.92876551  0.40451836  1
  H+  H296  1  0.32865406  0.67483984  0.10430460  1
  H+  H297  1  0.08749102  0.42205814  0.43190927  1
  H+  H298  1  0.87027365  0.89413762  0.00759755  1
  H+  H299  1  0.84085795  0.93223302  0.10200464  1
  H+  H300  1  0.12351230  0.14545188  0.34663788  1
  H+  H301  1  0.82464103  0.13905746  0.77130514  1
  H+  H302  1  0.09672157  0.17336267  0.73846918  1
  H+  H303  1  0.40400937  0.32839064  0.60434173  1
  H+  H304  1  0.80666918  0.36553099  0.10247927  1
  H+  H305  1  0.16826837  0.59652894  0.93382567  1
  H+  H306  1  0.54239228  0.15483474  0.79315743  1
  H+  H307  1  0.78143099  0.89648874  1.00760726  1
  H+  H308  1  0.13839969  0.08888481  0.23635107  1
  H+  H309  1  0.64953071  0.02519489  0.49724666  1
  H+  H310  1  0.62280457  0.17706476  0.71727334  1
  H+  H311  1  0.63290124  0.82076106  0.55444380  1
  H+  H312  1  0.07474928  0.65439600  0.72726321  1
  H+  H313  1  0.57436367  0.39992807  0.40629158  1
  H+  H314  1  0.66236320  0.32903245  0.93764516  1
  H+  H315  1  0.06658430  0.39741778  0.10361810  1
  H+  H316  1  0.09229221  0.42357789  0.76370866  1
  H+  H317  1  0.13997168  0.86660631  0.50668673  1
  H+  H318  1  0.58061550  0.91995798  0.42620608  1
  H+  H319  1  0.13008150  0.49019255  0.66732681  1
  H+  H320  1  0.93355027  0.64933657  0.91809672  1
  H+  H321  1  0.68482271  0.08572126  0.58882052  1
  H+  H322  1  0.92263816  0.34960395  0.56664582  1
  H+  H323  1  0.63981109  0.60101154  0.32027400  1
  H+  H324  1  0.42087535  0.84250499  0.22906764  1
  H+  H325  1  0.16789094  0.83157023  0.56507699  1
  H+  H326  1  0.16760477  0.33791799  0.93565586  1
  H+  H327  1  0.82371112  0.92717255  0.41581224  1
  H+  H328  1  0.37706581  0.53528508  0.50464334  1
  H+  H329  1  0.81934050  0.65294050  0.07465497  1
  H+  H330  1  0.41311975  0.07922413  0.22964678  1
  H+  H331  1  0.58872362  0.41629518  0.77572888  1
  H+  H332  1  0.62576327  0.35083503  0.33487882  1
  H+  H333  1  0.93697612  0.69315024  0.69501584  1
  H+  H334  1  0.66967652  0.82979294  0.22798238  1
  H+  H335  1  0.58831137  0.92035258  0.06123290  1
  H+  H336  1  0.92247296  0.56417908  0.56732181  1
  H+  H337  1  0.51582360  0.38761939  0.65917876  1
  H+  H338  1  0.39562262  0.55421417  0.95718594  1
  H+  H339  1  0.57323668  0.41111279  0.09774899  1
  H+  H340  1  0.40896621  0.32851146  0.93759903  1
  H+  H341  1  0.49264071  0.35895026  0.51391551  1
  H+  H342  1  0.05622304  0.77586540  0.21709161  1
  H+  H343  1  0.32006656  0.91925144  0.77416182  1
  H+  H344  1  0.93335813  0.08616422  0.93481527  1
  H+  H345  1  0.92521889  0.83982432  0.56204857  1
  H+  H346  1  0.08937528  0.92439961  0.43791844  1
  H+  H347  1  0.08593566  0.66680316  0.43608536  1
  H+  H348  1  0.70798626  0.82325802  0.91436418  1
  H+  H349  1  0.17161398  0.08951225  0.56639933  1
  H+  H350  1  0.65816955  0.09259508  0.93056252  1
  H+  H351  1  0.83837274  0.67106442  0.43733703  1
  H+  H352  1  0.34177104  0.68150401  0.39426120  1
  H+  H353  1  0.38750671  0.78818804  0.32730784  1
  H+  H354  1  0.67114824  0.59243377  0.56265979  1
  H+  H355  1  0.16213977  0.34174510  0.59739819  1
  H+  H356  1  0.92443089  0.83463090  0.94033372  1
  H+  H357  1  0.41132622  0.59582451  0.26300141  1
  H+  H358  1  0.87326840  0.92850842  0.77978200  1
  H+  H359  1  0.83122193  0.42346438  0.43349409  1
  H+  H360  1  0.33480584  0.17162996  0.10665634  1
  H+  H361  1  0.85493812  0.18152629  0.39954754  1
  H+  H362  1  0.92546444  0.30654450  0.25003421  1
  H+  H363  1  0.31767485  0.39612016  0.10986270  1
  H+  H364  1  0.32179930  0.16651252  0.73550194  1
  H+  H365  1  0.14049872  0.63614912  0.17812348  1
  H+  H366  1  0.68529943  0.34149440  0.56836358  1
  H+  H367  1  0.57464401  0.15745379  0.09394675  1
  H+  H368  1  0.32812429  0.40845622  0.40257658  1
  H+  H369  1  0.83567184  0.67062633  0.76804349  1
  H+  H370  1  0.41488982  0.33270492  0.27017582  1
  H+  H371  1  0.60900554  0.63352154  0.15855174  1
  H+  H372  1  0.66154799  0.58841842  0.89848564  1
  H+  H373  1  0.11742184  0.48690460  0.00982700  1
  H+  H374  1  0.02575450  0.89388152  0.34428282  1
  H+  H375  1  0.27029116  0.88532819  0.67373375  1
  H+  H376  1  0.78667394  0.97113890  0.37353321  1
  H+  H377  1  0.44505635  0.63994877  0.88711780  1
  H+  H378  1  0.59042880  0.16282458  0.41007421  1
  H+  H379  1  0.25548001  0.36112073  0.16579844  1
  H+  H380  1  0.42003037  0.83922297  0.56710023  1
  H+  H381  1  0.62403922  0.98284431  0.15702924  1
  H+  H382  1  0.85193843  0.36247647  0.00985869  1
  H+  H383  1  0.22961104  0.37442610  0.84249697  1
  O2-  O384  1  0.09151555  0.21180187  0.13711707  1
  O2-  O385  1  0.09002685  0.17720281  0.48366457  1
  O2-  O386  1  0.10349636  0.17614147  0.81313536  1
  O2-  O387  1  0.05537529  0.37530314  0.14578022  1
  O2-  O388  1  0.08690282  0.42546829  0.47740094  1
  O2-  O389  1  0.08513809  0.41947440  0.80848615  1
  O2-  O390  1  0.09543047  0.69378023  0.13678350  1
  O2-  O391  1  0.08890782  0.66662330  0.48197847  1
  O2-  O392  1  0.07905954  0.66125702  0.80572626  1
  O2-  O393  1  0.08038241  0.92396252  0.15023164  1
  O2-  O394  1  0.09144258  0.92453185  0.48373583  1
  O2-  O395  1  0.11281730  0.93055732  0.79545264  1
  O2-  O396  1  0.34793804  0.17935330  0.15025306  1
  O2-  O397  1  0.33608575  0.15805455  0.48722524  1
  O2-  O398  1  0.29768859  0.15822236  0.81101089  1
  O2-  O399  1  0.31686191  0.39910501  0.15520475  1
  O2-  O400  1  0.31700621  0.42710837  0.48681419  1
  O2-  O401  1  0.33574710  0.43287470  0.81501836  1
  O2-  O402  1  0.33210977  0.67493000  0.14956255  1
  O2-  O403  1  0.33644142  0.67769394  0.48709460  1
  O2-  O404  1  0.34259328  0.68279080  0.80695002  1
  O2-  O405  1  0.32986310  0.90956959  0.13526453  1
  O2-  O406  1  0.33473360  0.92447063  0.48753028  1
  O2-  O407  1  0.31923557  0.92030005  0.81933345  1
  O2-  O408  1  0.58225919  0.16318919  0.13973509  1
  O2-  O409  1  0.60305975  0.17449261  0.47892743  1
  O2-  O410  1  0.55102758  0.15892483  0.83693322  1
  O2-  O411  1  0.57778724  0.40929007  0.14311858  1
  O2-  O412  1  0.58896977  0.41389515  0.49698016  1
  O2-  O413  1  0.58936628  0.41976697  0.81992499  1
  O2-  O414  1  0.57605977  0.66135367  0.14349923  1
  O2-  O415  1  0.57203336  0.65813969  0.47776723  1
  O2-  O416  1  0.58481483  0.65919348  0.80329942  1
  O2-  O417  1  0.59296945  0.92185339  0.14403865  1
  O2-  O418  1  0.57964280  0.91745416  0.47104071  1
  O2-  O419  1  0.58163990  0.96433902  0.80397405  1
  O2-  O420  1  0.77205020  0.13066217  0.15308212  1
  O2-  O421  1  0.84970036  0.17606342  0.47825546  1
  O2-  O422  1  0.82952704  0.14611368  0.81640194  1
  O2-  O423  1  0.80318621  0.37477133  0.14788988  1
  O2-  O424  1  0.83858647  0.42163473  0.47858526  1
  O2-  O425  1  0.85385271  0.32843312  0.76814269  1
  O2-  O426  1  0.83199754  0.68359558  0.14332773  1
  O2-  O427  1  0.83547894  0.67042664  0.48312564  1
  O2-  O428  1  0.82659868  0.66386894  0.81241208  1
  O2-  O429  1  0.84021691  0.93336311  0.14715150  1
  O2-  O430  1  0.83042290  0.91820921  0.48758014  1
  O2-  O431  1  0.87464416  0.93166938  0.82490360  1
  O2-  O432  1  0.11673289  0.08573382  0.19501802  1
  O2-  O433  1  0.17326337  0.09161571  0.52071093  1
  O2-  O434  1  0.20865250  0.10104719  0.83083853  1
  O2-  O435  1  0.13538526  0.29266512  0.17042117  1
  O2-  O436  1  0.15486569  0.33679748  0.52699385  1
  O2-  O437  1  0.16894459  0.33895585  0.85638358  1
  O2-  O438  1  0.16723972  0.60675446  0.19924452  1
  O2-  O439  1  0.17860867  0.59418408  0.51591229  1
  O2-  O440  1  0.16942885  0.58892128  0.85079667  1
  O2-  O441  1  0.11689329  0.82229639  0.21326918  1
  O2-  O442  1  0.17039518  0.83507643  0.51940767  1
  O2-  O443  1  0.15419359  0.81636674  0.85747891  1
  O2-  O444  1  0.41293134  0.07673852  0.18458238  1
  O2-  O445  1  0.40233288  0.07561255  0.53381657  1
  O2-  O446  1  0.38192683  0.08361212  0.86335383  1
  O2-  O447  1  0.42186798  0.33642581  0.19216847  1
  O2-  O448  1  0.42747794  0.32731809  0.52168622  1
  O2-  O449  1  0.41856376  0.34510627  0.86509629  1
  O2-  O450  1  0.40376259  0.57708024  0.18355094  1
  O2-  O451  1  0.41215826  0.59575354  0.51973947  1
  O2-  O452  1  0.43273148  0.61654296  0.84592337  1
  O2-  O453  1  0.42867838  0.84081922  0.18460792  1
  O2-  O454  1  0.41692270  0.83397047  0.52097205  1
  O2-  O455  1  0.41489702  0.84658290  0.85045637  1
  O2-  O456  1  0.68465298  0.10049358  0.17870914  1
  O2-  O457  1  0.68274920  0.08419491  0.51450101  1
  O2-  O458  1  0.66126273  0.11283846  0.85812992  1
  O2-  O459  1  0.64158883  0.31730792  0.17306106  1
  O2-  O460  1  0.68031060  0.34018913  0.52340588  1
  O2-  O461  1  0.67057594  0.32971556  0.86315122  1
  O2-  O462  1  0.66895130  0.58733036  0.18107040  1
  O2-  O463  1  0.66792203  0.58631143  0.51786624  1
  O2-  O464  1  0.66291923  0.58958410  0.85241831  1
  O2-  O465  1  0.66955908  0.83264874  0.18318220  1
  O2-  O466  1  0.65313201  0.82752038  0.51085339  1
  O2-  O467  1  0.72972611  0.80929622  0.87677722  1
  O2-  O468  1  0.94220629  0.10782954  0.18749701  1
  O2-  O469  1  0.92361943  0.08651066  0.52420036  1
  O2-  O470  1  0.93579880  0.08933330  0.86494394  1
  O2-  O471  1  0.88474004  0.28101125  0.18673665  1
  O2-  O472  1  0.92248068  0.34315410  0.52207585  1
  O2-  O473  1  0.90494232  0.32259739  0.81866965  1
  O2-  O474  1  0.95744637  0.67243540  0.19962987  1
  O2-  O475  1  0.91992054  0.58187133  0.52394447  1
  O2-  O476  1  0.92191539  0.59326563  0.84898845  1
  O2-  O477  1  0.91394857  0.84748226  0.19231259  1
  O2-  O478  1  0.92105251  0.84005254  0.51669831  1
  O2-  O479  1  0.93440926  0.82937139  0.87183990  1
  O2-  O480  1  0.16223493  0.09044330  0.32294564  1
  O2-  O481  1  0.17550827  0.08830954  0.64333799  1
  O2-  O482  1  0.16916317  0.07965135  0.99292799  1
  O2-  O483  1  0.17805595  0.33358649  0.31845781  1
  O2-  O484  1  0.16658959  0.34715932  0.64432058  1
  O2-  O485  1  0.16618171  0.33338070  0.98095551  1
  O2-  O486  1  0.16620194  0.58563125  0.31628602  1
  O2-  O487  1  0.17412484  0.58867291  0.64313602  1
  O2-  O488  1  0.16775100  0.59962937  0.97878676  1
  O2-  O489  1  0.16288573  0.83586484  0.32778586  1
  O2-  O490  1  0.17010829  0.82620911  0.64185849  1
  O2-  O491  1  0.10858878  0.77331409  0.98172198  1
  O2-  O492  1  0.41200275  0.09041802  0.31111325  1
  O2-  O493  1  0.41984053  0.09330346  0.65109469  1
  O2-  O494  1  0.39869786  0.08404176  0.98493460  1
  O2-  O495  1  0.41171622  0.33188295  0.31584543  1
  O2-  O496  1  0.40540444  0.33442623  0.64916056  1
  O2-  O497  1  0.40686364  0.32020499  0.98346406  1
  O2-  O498  1  0.41429554  0.60744735  0.30736525  1
  O2-  O499  1  0.41245668  0.58304244  0.64548926  1
  O2-  O500  1  0.40411992  0.57268290  0.99945757  1
  O2-  O501  1  0.41278122  0.84917478  0.31226429  1
  O2-  O502  1  0.41271891  0.83994875  0.64140544  1
  O2-  O503  1  0.42103011  0.83873143  0.97151656  1
  O2-  O504  1  0.69246783  0.10514841  0.30856745  1
  O2-  O505  1  0.68271984  0.08834474  0.63472430  1
  O2-  O506  1  0.65298698  0.08124196  0.97619663  1
  O2-  O507  1  0.66365746  0.32842285  0.31878988  1
  O2-  O508  1  0.69048983  0.35217353  0.64960713  1
  O2-  O509  1  0.65372128  0.32514147  0.98342783  1
  O2-  O510  1  0.68174380  0.59103770  0.29796610  1
  O2-  O511  1  0.66715899  0.59255033  0.64613467  1
  O2-  O512  1  0.65226816  0.57869836  0.97469723  1
  O2-  O513  1  0.67206332  0.81327108  0.31246362  1
  O2-  O514  1  0.57402897  0.79610186  0.61752304  1
  O2-  O515  1  0.67594066  0.83735379  0.98538644  1
  O2-  O516  1  0.93877746  0.09808493  0.31518542  1
  O2-  O517  1  0.93208090  0.08208060  0.64914534  1
  O2-  O518  1  0.93254324  0.08366709  0.98192948  1
  O2-  O519  1  0.94631541  0.32953603  0.29374555  1
  O2-  O520  1  0.93939143  0.38755901  0.65322825  1
  O2-  O521  1  0.93381583  0.30896094  0.98440205  1
  O2-  O522  1  0.92015971  0.59594301  0.31361027  1
  O2-  O523  1  0.92681429  0.52505414  0.63601509  1
  O2-  O524  1  0.94653193  0.68995568  0.95209592  1
  O2-  O525  1  0.91955554  0.84485518  0.31408037  1
  O2-  O526  1  0.93805236  0.83968388  0.63900158  1
  O2-  O527  1  0.92099600  0.84210070  0.98695541  1
  O2-  O528  1  0.08614580  0.16944250  0.02095367  1
  O2-  O529  1  0.09645694  0.18083228  0.36147598  1
  O2-  O530  1  0.09382251  0.17102216  0.69235983  1
  O2-  O531  1  0.09525681  0.42671547  0.02351617  1
  O2-  O532  1  0.10236576  0.42100744  0.35228365  1
  O2-  O533  1  0.09777069  0.42754749  0.68094374  1
  O2-  O534  1  0.13183551  0.71924965  0.01778643  1
  O2-  O535  1  0.08310453  0.66651019  0.36025213  1
  O2-  O536  1  0.07583998  0.65322814  0.68172186  1
  O2-  O537  1  0.08799502  0.91158025  0.02550286  1
  O2-  O538  1  0.08457285  0.92386007  0.36199739  1
  O2-  O539  1  0.10636379  0.92353695  0.67832714  1
  O2-  O540  1  0.32006094  0.15965486  0.02007217  1
  O2-  O541  1  0.32933281  0.16739529  0.35859486  1
  O2-  O542  1  0.33393648  0.17170780  0.69051163  1
  O2-  O543  1  0.32407741  0.39878859  0.03175848  1
  O2-  O544  1  0.32491355  0.40304052  0.35803786  1
  O2-  O545  1  0.32140810  0.41852147  0.68436619  1
  O2-  O546  1  0.33020899  0.67752983  0.02367248  1
  O2-  O547  1  0.33922946  0.68526656  0.35002988  1
  O2-  O548  1  0.34034894  0.67537229  0.68348900  1
  O2-  O549  1  0.33800209  0.92919183  0.01578741  1
  O2-  O550  1  0.33480534  0.93078125  0.35947692  1
  O2-  O551  1  0.32960712  0.91692026  0.69155703  1
  O2-  O552  1  0.56386517  0.15749068  0.02012911  1
  O2-  O553  1  0.57862614  0.14698013  0.36414604  1
  O2-  O554  1  0.60553099  0.18070474  0.67582265  1
  O2-  O555  1  0.57494329  0.41454465  0.01903047  1
  O2-  O556  1  0.57528228  0.39593163  0.36192312  1
  O2-  O557  1  0.57946628  0.41833500  0.65105707  1
  O2-  O558  1  0.57261092  0.66475560  0.02210746  1
  O2-  O559  1  0.57435258  0.64217130  0.35185781  1
  O2-  O560  1  0.57219008  0.65866171  0.69061516  1
  O2-  O561  1  0.58707850  0.91729668  0.01599036  1
  O2-  O562  1  0.59263216  0.94124690  0.34068170  1
  O2-  O563  1  0.57422156  0.92962547  0.68179831  1
  O2-  O564  1  0.79114347  0.18758252  0.04102004  1
  O2-  O565  1  0.85330381  0.17773156  0.35407125  1
  O2-  O566  1  0.83346762  0.14851518  0.69149009  1
  O2-  O567  1  0.79866011  0.33439354  0.03361148  1
  O2-  O568  1  0.81768208  0.42380178  0.35675753  1
  O2-  O569  1  0.84536275  0.50861435  0.66789292  1
  O2-  O570  1  0.80754301  0.62764919  0.03150934  1
  O2-  O571  1  0.83967783  0.67805275  0.36040669  1
  O2-  O572  1  0.87630975  0.67088949  0.68591429  1
  O2-  O573  1  0.84328079  0.92921206  0.02051932  1
  O2-  O574  1  0.81485035  0.93680662  0.37105106  1
  O2-  O575  1  0.87532774  0.92772317  0.69867907  1
