# generated using pymatgen
data_H2O
_symmetry_space_group_name_H-M   'P 1'
_cell_length_a   17.98352166
_cell_length_b   17.99234300
_cell_length_c   21.99273896
_cell_angle_alpha   90.03562672
_cell_angle_beta   89.95881280
_cell_angle_gamma   120.03705542
_symmetry_Int_Tables_number   1
_chemical_formula_structural   H2O
_chemical_formula_sum   'H384 O192'
_cell_volume   6160.41541238
_cell_formula_units_Z   192
loop_
 _symmetry_equiv_pos_site_id
 _symmetry_equiv_pos_as_xyz
  1  'x, y, z'
loop_
 _atom_type_symbol
 _atom_type_oxidation_number
  H+  1.0
  O2-  -2.0
loop_
 _atom_site_type_symbol
 _atom_site_label
 _atom_site_symmetry_multiplicity
 _atom_site_fract_x
 _atom_site_fract_y
 _atom_site_fract_z
 _atom_site_occupancy
  H+  H0  1  0.87811049  -0.00679462  0.49855701  1
  H+  H1  1  0.52417185  0.38641234  0.34749969  1
  H+  H2  1  0.93138254  0.59006513  -0.06027386  1
  H+  H3  1  0.63993171  0.02373246  0.17631710  1
  H+  H4  1  0.88896022  0.61738074  0.83952907  1
  H+  H5  1  0.08523938  0.44048401  0.72188515  1
  H+  H6  1  0.48445194  0.35763105  1.01212691  1
  H+  H7  1  0.37536450  0.40069703  0.67959321  1
  H+  H8  1  0.64517219  0.11612888  0.17578024  1
  H+  H9  1  0.02605573  0.88750473  0.17179703  1
  H+  H10  1  0.61571144  0.73201920  0.67511241  1
  H+  H11  1  0.72146415  0.10296429  0.65961422  1
  H+  H12  1  0.60745801  0.63254416  0.16691864  1
  H+  H13  1  0.58880485  0.92547247  0.10532512  1
  H+  H14  1  0.73986948  0.59449512  0.82274704  1
  H+  H15  1  0.03353175  0.15527726  0.34005784  1
  H+  H16  1  0.62421985  0.97888637  0.34572748  1
  H+  H17  1  0.51898434  0.64004721  0.82834913  1
  H+  H18  1  1.02283205  0.13480033  0.82244850  1
  H+  H19  1  0.61474073  0.13230408  0.67035313  1
  H+  H20  1  0.37592025  0.82411636  0.17065279  1
  H+  H21  1  0.39042588  0.01975401  0.66093095  1
  H+  H22  1  0.92725958  0.83757060  0.25288486  1
  H+  H23  1  0.38214321  0.27383060  0.34912022  1
  H+  H24  1  0.88475026  0.42012935  0.45982732  1
  H+  H25  1  0.98431838  0.38919720  0.66323282  1
  H+  H26  1  0.13968620  0.77581705  0.50328465  1
  H+  H27  1  0.67337254  0.08484637  0.27374714  1
  H+  H28  1  1.02036741  0.39525219  0.16622311  1
  H+  H29  1  0.53371436  0.89010486  0.34336710  1
  H+  H30  1  0.88989478  0.41102646  0.85072078  1
  H+  H31  1  0.35567350  0.27739078  0.85916534  1
  H+  H32  1  0.41196311  0.03122790  1.11352149  1
  H+  H33  1  0.03165154  -0.10542664  0.81986735  1
  H+  H34  1  0.75197795  0.62623947  0.50182425  1
  H+  H35  1  0.11934230  0.41039038  0.80934661  1
  H+  H36  1  0.10509482  0.30046987  0.54811400  1
  H+  H37  1  0.35999797  0.87563724  0.99711496  1
  H+  H38  1  0.88683011  0.87586825  0.49978165  1
  H+  H39  1  0.92438975  0.59260502  0.09510433  1
  H+  H40  1  0.38968262  0.34905376  0.14795881  1
  H+  H41  1  0.35842710  0.94598527  0.46090665  1
  H+  H42  1  0.11144280  0.97840941  0.16433887  1
  H+  H43  1  0.37706878  0.35711174  0.33435085  1
  H+  H44  1  0.56076509  0.16484505  -0.02337311  1
  H+  H45  1  0.86863703  0.60520826  0.65317935  1
  H+  H46  1  0.91338680  0.12940987  0.50474293  1
  H+  H47  1  0.13092776  0.65529082  0.16400315  1
  H+  H48  1  0.87710315  0.38444348  0.66453502  1
  H+  H49  1  0.36404281  0.11852962  0.03829221  1
  H+  H50  1  0.05419677  0.15471059  0.49257317  1
  H+  H51  1  0.53494918  0.88589739  1.00462134  1
  H+  H52  1  0.62207468  0.60514212  0.83992722  1
  H+  H53  1  0.27006590  0.86682559  0.48306998  1
  H+  H54  1  0.24010572  0.11069088  0.51086536  1
  H+  H55  1  0.63098164  0.51785079  0.33717537  1
  H+  H56  1  0.64685995  0.78318126  0.50765739  1
  H+  H57  1  0.87534921  0.62239595  0.33299417  1
  H+  H58  1  0.14156274  0.12800058  0.32595572  1
  H+  H59  1  0.14578330  0.87604345  0.18206979  1
  H+  H60  1  0.85588314  0.72937793  0.35015882  1
  H+  H61  1  0.87922152  0.61913859  0.50398792  1
  H+  H62  1  0.62762709  0.61053304  0.66322239  1
  H+  H63  1  1.01492931  0.40557273  0.50808788  1
  H+  H64  1  0.52554111  0.88671043  0.67295593  1
  H+  H65  1  0.87086290  0.47561469  0.15308270  1
  H+  H66  1  0.12117469  0.73438269  0.34466815  1
  H+  H67  1  0.65085085  0.27730083  0.49935468  1
  H+  H68  1  0.26833121  0.63526093  0.00864796  1
  H+  H69  1  0.76928740  0.13142266  0.18148453  1
  H+  H70  1  0.39590913  0.26659878  1.01643099  1
  H+  H71  1  0.76255292  0.63863341  0.66745603  1
  H+  H72  1  0.86132567  0.63287191  -0.02017657  1
  H+  H73  1  0.62889213  0.51815840  -0.00008391  1
  H+  H74  1  0.89671374  0.78584657  0.83621928  1
  H+  H75  1  0.48015019  0.10914914  0.66936763  1
  H+  H76  1  0.63271097  0.11812699  0.00016908  1
  H+  H77  1  0.61257136  0.72478669  0.82800420  1
  H+  H78  1  0.03846420  0.89722818  0.50389640  1
  H+  H79  1  0.65052402  0.11478998  0.50148886  1
  H+  H80  1  0.63118294  0.52196301  0.66386916  1
  H+  H81  1  0.71611531  0.60225728  0.19267124  1
  H+  H82  1  0.89506444  0.77173160  0.19876022  1
  H+  H83  1  0.64040331  0.02910933  1.00353269  1
  H+  H84  1  0.94146846  0.07114815  0.97048083  1
  H+  H85  1  0.82485636  0.65121551  -0.07866187  1
  H+  H86  1  0.14771965  0.27193757  0.67623266  1
  H+  H87  1  0.27873346  0.12414061  0.02125528  1
  H+  H88  1  0.88232188  0.26532330  0.51132386  1
  H+  H89  1  0.62962538  0.76662120  0.33339169  1
  H+  H90  1  0.15558246  0.23036224  0.48082781  1
  H+  H91  1  0.11656082  0.13428720  0.67377005  1
  H+  H92  1  0.19933206  0.35890966  0.52411320  1
  H+  H93  1  0.13835678  0.52716538  0.99158839  1
  H+  H94  1  0.14512054  0.12749391  0.18001831  1
  H+  H95  1  0.97637968  0.86420570  0.34253805  1
  H+  H96  1  0.35902426  0.47070902  0.34894167  1
  H+  H97  1  0.32472430  0.39310471  -0.05082382  1
  H+  H98  1  0.49443627  0.21027025  0.55720939  1
  H+  H99  1  1.13068583  0.73370667  0.65794203  1
  H+  H100  1  0.83857386  0.71873571  0.50186364  1
  H+  H101  1  0.12890563  0.53865056  0.53780650  1
  H+  H102  1  0.87985148  0.77227747  0.97525277  1
  H+  H103  1  0.68066675  0.83611583  0.89540584  1
  H+  H104  1  0.85184031  0.12522571  0.67161451  1
  H+  H105  1  0.35857411  -0.04713041  0.82633613  1
  H+  H106  1  0.08116451  0.67008582  0.39966738  1
  H+  H107  1  0.38885925  0.60932614  0.51225454  1
  H+  H108  1  0.38017303  0.61168425  0.33158390  1
  H+  H109  1  0.13580535  0.61542525  -0.00363040  1
  H+  H110  1  0.22026124  0.38168293  0.18271348  1
  H+  H111  1  0.74514498  0.37192654  0.84955078  1
  H+  H112  1  0.39275471  0.63071240  0.65608458  1
  H+  H113  1  0.87093924  0.88033134  0.18497437  1
  H+  H114  1  0.34451889  0.08000499  0.34426110  1
  H+  H115  1  0.26694650  0.39646260  0.83081498  1
  H+  H116  1  0.01902801  0.40182259  0.35071500  1
  H+  H117  1  0.78112493  0.38722741  0.16429064  1
  H+  H118  1  0.88354689  0.10454649  0.19137621  1
  H+  H119  1  0.89521591  0.29221178  0.97353442  1
  H+  H120  1  0.63567112  0.26878037  0.65681727  1
  H+  H121  1  0.26735633  0.38784668  0.34308276  1
  H+  H122  1  0.10176803  0.98250054  0.34567626  1
  H+  H123  1  0.39816938  0.04749246  0.26685393  1
  H+  H124  1  0.60787286  0.37657198  0.34108174  1
  H+  H125  1  0.59049385  0.16827927  0.09684174  1
  H+  H126  1  0.31356391  0.33549026  0.49703639  1
  H+  H127  1  0.85386874  0.33425673  0.52474888  1
  H+  H128  1  0.08883620  0.91928050  0.75926607  1
  H+  H129  1  0.92545757  0.82806919  0.46273596  1
  H+  H130  1  0.27655653  0.64444511  0.81667753  1
  H+  H131  1  0.84634126  0.12737250  0.82041529  1
  H+  H132  1  0.14396367  0.10133263  -0.01293267  1
  H+  H133  1  0.19074279  0.46363928  0.04519561  1
  H+  H134  1  0.22245323  0.70584380  0.87489061  1
  H+  H135  1  0.37643609  -0.01348089  0.32155014  1
  H+  H136  1  0.72940460  0.86547090  0.65766527  1
  H+  H137  1  0.88512727  0.77034442  0.65396324  1
  H+  H138  1  0.10948296  0.64089144  0.81394626  1
  H+  H139  1  0.62141313  0.51444931  0.50987504  1
  H+  H140  1  0.81204113  0.14585645  0.73034982  1
  H+  H141  1  0.60552733  0.46146374  0.17374033  1
  H+  H142  1  0.64445379  0.02299377  0.50350617  1
  H+  H143  1  0.14434753  0.62966705  0.63642909  1
  H+  H144  1  0.75506198  0.39466633  0.32382638  1
  H+  H145  1  0.21866224  0.10476491  0.32956611  1
  H+  H146  1  0.10542004  0.41202359  0.51366889  1
  H+  H147  1  0.13274362  0.86111883  0.98802214  1
  H+  H148  1  0.88579595  1.02347861  0.81696492  1
  H+  H149  1  0.76894285  0.13467176  -0.01319432  1
  H+  H150  1  0.08444025  0.19217239  -0.00697849  1
  H+  H151  1  0.37990463  0.26455497  0.50713025  1
  H+  H152  1  0.41681396  0.92390962  0.18047145  1
  H+  H153  1  0.10118485  0.42515868  0.07575999  1
  H+  H154  1  0.38499472  0.62029835  0.83646550  1
  H+  H155  1  0.38203389  0.14584785  0.50216613  1
  H+  H156  1  0.88447640  0.53444041  0.49396643  1
  H+  H157  1  0.52789584  0.90403854  0.16282292  1
  H+  H158  1  0.34860639  0.41498012  0.13985370  1
  H+  H159  1  0.20277736  0.32731937  -0.00917800  1
  H+  H160  1  0.78010028  0.14996946  0.34524069  1
  H+  H161  1  0.02659450  0.88377722  0.66609654  1
  H+  H162  1  0.89003914  0.27504019  0.18650816  1
  H+  H163  1  0.86366847  0.85073726  0.98291053  1
  H+  H164  1  0.27022837  0.14587133  0.82416274  1
  H+  H165  1  0.62252698  0.38790920  1.01556739  1
  H+  H166  1  0.38440060  0.77482588  0.65093227  1
  H+  H167  1  0.64295756  0.11522301  0.33195658  1
  H+  H168  1  0.49421335  0.32228262  0.19378154  1
  H+  H169  1  0.53137023  0.12642307  0.15418177  1
  H+  H170  1  0.14981470  0.87006299  0.50221853  1
  H+  H171  1  0.48889278  0.86977428  0.50655764  1
  H+  H172  1  0.86454807  0.88925785  0.81603045  1
  H+  H173  1  0.11734098  0.24348046  0.18359539  1
  H+  H174  1  0.13437925  0.77364799  0.98792218  1
  H+  H175  1  0.01734429  0.88624913  0.00875808  1
  H+  H176  1  0.11302055  0.13606010  0.82850734  1
  H+  H177  1  0.48663039  0.38925080  0.65845742  1
  H+  H178  1  0.77005803  0.87543352  0.34657106  1
  H+  H179  1  0.88359101  0.86060128  0.33970163  1
  H+  H180  1  0.75819279  0.86442942  0.18685177  1
  H+  H181  1  0.58824721  0.67152143  0.10662421  1
  H+  H182  1  0.27173661  0.64240080  0.34124348  1
  H+  H183  1  0.86830347  0.48777668  0.84886473  1
  H+  H184  1  0.60610026  0.96132217  0.83358701  1
  H+  H185  1  0.38325116  0.00061644  1.02800635  1
  H+  H186  1  0.87635537  0.39249008  1.00096661  1
  H+  H187  1  0.38476785  0.85101619  0.83320306  1
  H+  H188  1  0.11461785  0.97499118  0.66791768  1
  H+  H189  1  0.86562604  0.63420408  0.17231082  1
  H+  H190  1  0.78382243  0.90551669  0.50232145  1
  H+  H191  1  0.77318891  0.88401190  0.81578509  1
  H+  H192  1  0.13430163  0.27600871  0.83391086  1
  H+  H193  1  0.85379605  0.63830977  0.24084424  1
  H+  H194  1  0.71585713  0.61134006  0.33540733  1
  H+  H195  1  0.64299447  0.24111463  0.82804501  1
  H+  H196  1  0.86204940  0.08723324  -0.03323353  1
  H+  H197  1  0.94556661  0.37415252  0.92972538  1
  H+  H198  1  0.39344998  0.77284413  0.99095780  1
  H+  H199  1  0.38556820  0.54773523  0.16653521  1
  H+  H200  1  0.14399861  1.01461566  -0.00497180  1
  H+  H201  1  0.63734879  0.86019680  0.33145474  1
  H+  H202  1  0.46077157  0.35780273  0.50454927  1
  H+  H203  1  0.39869400  0.78045949  0.32950339  1
  H+  H204  1  0.63953703  0.85910038  0.83860766  1
  H+  H205  1  0.67065905  0.83953562  0.56816266  1
  H+  H206  1  0.80976487  0.94168141  -0.01743804  1
  H+  H207  1  0.61390641  0.38752827  0.67026483  1
  H+  H208  1  0.13418511  0.74593492  0.16368298  1
  H+  H209  1  0.42155670  0.83980309  0.57170313  1
  H+  H210  1  0.47599712  0.85340016  0.83480410  1
  H+  H211  1  0.26473805  0.63554579  0.16382860  1
  H+  H212  1  0.98220712  0.11588230  0.66001366  1
  H+  H213  1  0.12873104  0.98499488  0.50247561  1
  H+  H214  1  0.35309812  0.39537169  0.84315006  1
  H+  H215  1  0.76993586  0.38165109  0.66675267  1
  H+  H216  1  0.78591175  0.13573476  0.49664758  1
  H+  H217  1  0.14202915  0.86635064  0.65328523  1
  H+  H218  1  0.27482015  0.64053756  0.65412667  1
  H+  H219  1  0.71470721  0.60568869  0.98357586  1
  H+  H220  1  0.57131045  0.28820273  0.28442834  1
  H+  H221  1  0.26849479  0.38015977  0.68870681  1
  H+  H222  1  1.02916778  0.64053405  1.01081987  1
  H+  H223  1  0.10591579  0.72491834  0.80822568  1
  H+  H224  1  0.60300020  0.63004630  0.34680878  1
  H+  H225  1  0.13909320  0.53066040  0.17762052  1
  H+  H226  1  0.51513308  0.63284715  0.34610976  1
  H+  H227  1  0.36629672  0.64824631  0.16107628  1
  H+  H228  1  0.36765436  0.16878956  0.82086643  1
  H+  H229  1  0.67497539  0.82546547  0.24577370  1
  H+  H230  1  0.61288207  0.63878779  1.01052963  1
  H+  H231  1  0.88030040  0.37860965  0.32595086  1
  H+  H232  1  0.61414630  0.88543998  0.49677256  1
  H+  H233  1  0.64782462  0.27489895  0.17426575  1
  H+  H234  1  0.35928078  0.13136944  0.67407613  1
  H+  H235  1  0.64866901  0.27759670  1.00215783  1
  H+  H236  1  0.13652027  0.86165574  0.82978111  1
  H+  H237  1  0.25968372  0.61495665  0.50905104  1
  H+  H238  1  0.47079130  0.09121468  0.85701375  1
  H+  H239  1  0.58502071  0.91198106  0.76885373  1
  H+  H240  1  0.48712905  0.63225212  0.66232592  1
  H+  H241  1  0.90382732  0.14059265  0.33895624  1
  H+  H242  1  0.44456948  0.11659232  0.58277595  1
  H+  H243  1  0.66309169  0.78432376  0.99668471  1
  H+  H244  1  0.38450416  0.86514382  0.65397230  1
  H+  H245  1  0.36751659  0.72575643  0.81329472  1
  H+  H246  1  0.38787930  0.85652393  0.50085352  1
  H+  H247  1  0.68559566  0.19261646  0.79885607  1
  H+  H248  1  0.84271897  0.48723754  0.32254939  1
  H+  H249  1  0.85504428  0.47746618  0.66424259  1
  H+  H250  1  0.48902727  0.62888870  0.51224454  1
  H+  H251  1  0.39016511  0.52858397  0.98850320  1
  H+  H252  1  0.92301842  0.09322837  0.28499081  1
  H+  H253  1  0.10813322  0.48933700  0.65699208  1
  H+  H254  1  0.13546011  0.53347196  0.33122820  1
  H+  H255  1  0.25675136  0.02661141  0.37707169  1
  H+  H256  1  0.24279078  0.90132241  0.18646039  1
  H+  H257  1  0.14363696  0.02350218  0.83456157  1
  H+  H258  1  0.75225184  0.11068928  0.82998125  1
  H+  H259  1  0.54701501  0.15243085  0.49647725  1
  H+  H260  1  0.10805944  0.64466854  0.50841091  1
  H+  H261  1  0.27111417  0.87782987  0.99547452  1
  H+  H262  1  0.53166216  0.65114065  0.00997232  1
  H+  H263  1  0.40143729  0.37538686  0.17707060  1
  H+  H264  1  0.88813267  0.36308916  0.17762263  1
  H+  H265  1  0.60473607  0.22321300  0.33589430  1
  H+  H266  1  0.62718979  0.89315251  0.00850661  1
  H+  H267  1  0.15257517  0.11399295  0.50444603  1
  H+  H268  1  0.38363035  0.53176439  0.84384430  1
  H+  H269  1  0.86530404  -0.03144046  0.18408794  1
  H+  H270  1  0.61128630  0.63890231  0.49801011  1
  H+  H271  1  0.62292497  0.38196163  0.16888131  1
  H+  H272  1  0.35784114  0.63291887  1.01077557  1
  H+  H273  1  0.04722304  0.43335537  0.82198560  1
  H+  H274  1  0.13610389  0.62242962  0.32780529  1
  H+  H275  1  0.10910997  0.39686652  0.17184069  1
  H+  H276  1  0.58600382  0.41346590  0.73277804  1
  H+  H277  1  0.57852888  0.41113736  0.43706464  1
  H+  H278  1  0.60158218  0.46105910  0.82674279  1
  H+  H279  1  0.22638599  0.10798054  0.66211088  1
  H+  H280  1  0.34039098  0.06218902  0.17768556  1
  H+  H281  1  0.92062987  0.84505091  0.89482214  1
  H+  H282  1  0.97452479  0.10997950  0.19051420  1
  H+  H283  1  0.09662923  0.67942199  0.06693892  1
  H+  H284  1  0.13527530  0.28615768  0.33303202  1
  H+  H285  1  0.58074223  0.67069013  0.73480330  1
  H+  H286  1  0.33158138  0.90775825  0.72659643  1
  H+  H287  1  0.60587183  0.38250056  0.49721775  1
  H+  H288  1  0.41193485  0.58554228  0.27228345  1
  H+  H289  1  0.91891641  0.82596045  0.59328135  1
  H+  H290  1  0.08613905  0.16317516  0.73370347  1
  H+  H291  1  0.85320081  0.17416508  0.02751426  1
  H+  H292  1  0.10057382  0.17847484  0.39498623  1
  H+  H293  1  0.62237540  0.09186667  0.85233983  1
  H+  H294  1  0.31082853  0.44293033  0.08737794  1
  H+  H295  1  0.47868520  0.63170976  0.17270626  1
  H+  H296  1  0.41656815  0.59512455  0.93450667  1
  H+  H297  1  0.86528128  0.88564517  0.66060615  1
  H+  H298  1  0.58289800  0.67053771  0.43869094  1
  H+  H299  1  0.17508722  0.07685011  0.89702123  1
  H+  H300  1  0.66757889  0.32778462  0.23710104  1
  H+  H301  1  0.16986388  0.35383838  0.63409859  1
  H+  H302  1  0.26569796  0.87001286  0.81967975  1
  H+  H303  1  0.39275368  0.05823225  0.90161345  1
  H+  H304  1  0.78446824  0.60578545  0.07897369  1
  H+  H305  1  0.32570351  0.66616760  0.71917402  1
  H+  H306  1  0.99074419  0.62504961  0.14843942  1
  H+  H307  1  0.16782007  0.08104928  0.60282315  1
  H+  H308  1  0.96188237  0.62251821  0.31763351  1
  H+  H309  1  0.84295571  0.41539179  0.06333243  1
  H+  H310  1  0.89471319  0.02599720  0.65251745  1
  H+  H311  1  0.59538066  0.17003700  0.73076468  1
  H+  H312  1  0.91245940  0.33714232  0.60860270  1
  H+  H313  1  0.82037844  0.65785058  0.72587136  1
  H+  H314  1  0.13207445  0.37514321  0.33857216  1
  H+  H315  1  0.15077741  0.32881916  0.89404579  1
  H+  H316  1  0.65051018  0.76909000  0.18131705  1
  H+  H317  1  0.90126639  0.57694364  0.59506288  1
  H+  H318  1  0.90356121  0.06903906  0.88033802  1
  H+  H319  1  0.61944871  0.38289385  0.82484089  1
  H+  H320  1  0.16991475  0.09131745  0.23851311  1
  H+  H321  1  0.12319015  0.33954861  0.99936367  1
  H+  H322  1  0.08658473  0.92844138  0.40692247  1
  H+  H323  1  0.94097867  0.09894597  0.56437725  1
  H+  H324  1  0.26694018  0.54949865  0.46691376  1
  H+  H325  1  0.77425446  0.64145445  0.08033487  1
  H+  H326  1  0.41777914  0.35527384  0.60270599  1
  H+  H327  1  0.64781956  0.57288029  0.24421158  1
  H+  H328  1  0.08804924  0.19181393  0.12329222  1
  H+  H329  1  0.15879914  0.82662280  0.88996391  1
  H+  H330  1  0.36282096  0.37681144  0.00561014  1
  H+  H331  1  0.43121439  0.60260101  0.59050284  1
  H+  H332  1  0.77497059  0.54310897  0.78718120  1
  H+  H333  1  0.59039295  0.41363228  0.07628087  1
  H+  H334  1  0.38140487  0.21192295  0.18409110  1
  H+  H335  1  0.33053656  0.15946899  0.11218340  1
  H+  H336  1  0.73161160  0.37184472  0.50013546  1
  H+  H337  1  1.01985625  0.64382222  0.49709739  1
  H+  H338  1  0.84464071  0.17617657  0.43750417  1
  H+  H339  1  0.16653029  0.35201356  0.24653272  1
  H+  H340  1  0.29429517  0.86159301  0.37528256  1
  H+  H341  1  0.82479108  0.43084349  0.41324685  1
  H+  H342  1  0.63965617  0.86585492  0.66191981  1
  H+  H343  1  0.17655052  0.84103116  0.59314280  1
  H+  H344  1  0.61306076  0.97621687  0.67255834  1
  H+  H345  1  0.42684658  0.84812699  0.27536974  1
  H+  H346  1  0.58414466  0.91373071  0.43573219  1
  H+  H347  1  0.65101476  0.57461666  0.56997114  1
  H+  H348  1  0.33147414  0.17660423  0.72412953  1
  H+  H349  1  0.64553682  0.57143858  0.90092419  1
  H+  H350  1  0.81826572  0.66468107  0.40760400  1
  H+  H351  1  0.32624883  0.66063842  0.40153311  1
  H+  H352  1  0.27520891  0.88634492  0.66542078  1
  H+  H353  1  0.09432562  0.66350911  0.71148591  1
  H+  H354  1  0.66339858  0.07687241  0.59901391  1
  H+  H355  1  0.86429834  0.24449615  0.34683188  1
  H+  H356  1  0.65241998  0.06636374  0.91356226  1
  H+  H357  1  0.17947450  0.61351382  0.90145584  1
  H+  H358  1  0.73720409  0.36736715  0.99772975  1
  H+  H359  1  0.28291850  0.36556181  0.43978900  1
  H+  H360  1  0.59271319  0.16789911  0.43045029  1
  H+  H361  1  0.47766853  0.09273211  1.03420215  1
  H+  H362  1  0.07826997  0.43388482  0.41033781  1
  H+  H363  1  0.39741175  0.32699258  0.92177423  1
  H+  H364  1  0.83621942  0.91530940  0.72040547  1
  H+  H365  1  0.89332744  0.52245042  0.99582713  1
  H+  H366  1  0.43006179  0.29415528  0.25235454  1
  H+  H367  1  0.42211081  0.82643487  0.92906194  1
  H+  H368  1  0.17407258  0.59212780  0.23727397  1
  H+  H369  1  0.26446821  0.13605238  0.17451566  1
  H+  H370  1  0.93572616  0.33423176  0.84803223  1
  H+  H371  1  0.66734279  0.32989354  0.59754502  1
  H+  H372  1  0.83352816  0.15964608  0.12637164  1
  H+  H373  1  0.32439512  0.66490098  0.09592422  1
  H+  H374  1  0.83272652  0.91692844  0.40346292  1
  H+  H375  1  0.33891057  0.42073133  0.74806156  1
  H+  H376  1  0.91954728  0.34700509  0.27408699  1
  H+  H377  1  0.67312648  0.33434572  0.90160726  1
  H+  H378  1  0.04034348  0.11226351  0.03859652  1
  H+  H379  1  0.52538945  0.12530696  0.34021904  1
  H+  H380  1  0.98310535  0.62782217  0.83581110  1
  H+  H381  1  0.33309063  0.13729570  0.43867650  1
  H+  H382  1  0.19614990  0.85089537  0.27840310  1
  H+  H383  1  0.07606707  0.91087313  0.06856785  1
  O2-  O384  1  0.08982947  0.18298385  0.16684741  1
  O2-  O385  1  0.11041869  0.17044545  0.47264949  1
  O2-  O386  1  0.08542750  0.16733246  0.81124856  1
  O2-  O387  1  0.08221519  0.42801738  0.15253375  1
  O2-  O388  1  0.07610745  0.44229582  0.49651433  1
  O2-  O389  1  0.09943074  0.44921459  0.79527797  1
  O2-  O390  1  0.10385132  0.68684375  0.14631630  1
  O2-  O391  1  0.08177507  0.67181505  0.48427388  1
  O2-  O392  1  0.07617931  0.66417277  0.79374301  1
  O2-  O393  1  0.08386137  0.91767956  0.15137179  1
  O2-  O394  1  0.09694087  0.92355560  0.48688179  1
  O2-  O395  1  0.09186436  0.92164588  0.80502147  1
  O2-  O396  1  0.32803669  0.15667933  0.15955301  1
  O2-  O397  1  0.33976812  0.15803345  0.48144423  1
  O2-  O398  1  0.32936226  0.18981086  0.80919860  1
  O2-  O399  1  0.31782637  0.44652137  0.13169076  1
  O2-  O400  1  0.26259433  0.33631336  0.47950345  1
  O2-  O401  1  0.33021239  0.42826501  0.82054201  1
  O2-  O402  1  0.32614644  0.66908428  0.14371830  1
  O2-  O403  1  0.29992697  0.60907287  0.48049358  1
  O2-  O404  1  0.33349578  0.66554188  0.79680702  1
  O2-  O405  1  0.42253922  1.02297891  0.15900560  1
  O2-  O406  1  0.32722853  0.88338233  0.46226628  1
  O2-  O407  1  0.32665000  0.89690444  0.80485130  1
  O2-  O408  1  0.59120310  0.16749623  0.14219016  1
  O2-  O409  1  0.60312034  0.17299701  0.47582417  1
  O2-  O410  1  0.62853952  0.18391377  0.80809060  1
  O2-  O411  1  0.58154541  0.40213208  0.15728024  1
  O2-  O412  1  0.57309925  0.41003091  0.48269895  1
  O2-  O413  1  0.58454430  0.40587520  0.80643389  1
  O2-  O414  1  0.58384340  0.66938675  0.15210105  1
  O2-  O415  1  0.58659680  0.67516164  0.48426748  1
  O2-  O416  1  0.57879466  0.66470891  0.81201707  1
  O2-  O417  1  0.58864644  0.93041094  0.15016602  1
  O2-  O418  1  0.58065796  0.91312177  0.48188092  1
  O2-  O419  1  0.58049039  0.90312973  0.81390996  1
  O2-  O420  1  0.83393458  0.16256656  0.17052971  1
  O2-  O421  1  0.84707309  0.17223226  0.48318002  1
  O2-  O422  1  0.80648834  0.14771160  0.80811375  1
  O2-  O423  1  0.84055405  0.41257930  0.14680921  1
  O2-  O424  1  0.83746749  0.43203724  0.45830659  1
  O2-  O425  1  0.84182634  0.42635039  0.84009738  1
  O2-  O426  1  0.83853867  0.65493584  0.20209438  1
  O2-  O427  1  0.81328030  0.65949546  0.48637448  1
  O2-  O428  1  0.79314866  0.60116704  0.80156774  1
  O2-  O429  1  0.83601330  0.90699391  0.17073659  1
  O2-  O430  1  0.84366226  0.93143936  0.48616053  1
  O2-  O431  1  0.83209655  0.91474988  0.79745871  1
  O2-  O432  1  0.17441008  0.09505882  0.19205441  1
  O2-  O433  1  0.17870224  0.08255411  0.52460913  1
  O2-  O434  1  0.17197846  0.08288989  0.85230786  1
  O2-  O435  1  0.16233983  0.34701100  0.20038641  1
  O2-  O436  1  0.15199889  0.35992729  0.54790235  1
  O2-  O437  1  0.16221861  0.33594292  0.84999623  1
  O2-  O438  1  0.17706624  0.59204856  0.19120885  1
  O2-  O439  1  0.16942655  0.60018820  0.55010375  1
  O2-  O440  1  0.19530539  0.64589680  0.86229632  1
  O2-  O441  1  0.18437397  0.85441603  0.19636209  1
  O2-  O442  1  0.17911479  0.83754361  0.51504284  1
  O2-  O443  1  0.16179176  0.82629887  0.84448767  1
  O2-  O444  1  0.34641796  0.01299065  0.19193791  1
  O2-  O445  1  0.46488905  0.15074676  0.54322575  1
  O2-  O446  1  0.42237416  0.03956267  0.87384344  1
  O2-  O447  1  0.44759044  0.27186454  0.21687448  1
  O2-  O448  1  0.40090186  0.32466534  0.52047805  1
  O2-  O449  1  0.36533006  0.32659832  0.88513491  1
  O2-  O450  1  0.41658971  0.60578456  0.18533068  1
  O2-  O451  1  0.43060553  0.59619334  0.53230760  1
  O2-  O452  1  0.41527698  0.59346728  0.85734386  1
  O2-  O453  1  0.42133371  0.87296073  0.19236717  1
  O2-  O454  1  0.42605930  0.83849280  0.52314803  1
  O2-  O455  1  0.41487573  0.82127938  0.84973299  1
  O2-  O456  1  0.67200309  0.08476591  0.19439286  1
  O2-  O457  1  0.67839230  0.08319996  0.51852349  1
  O2-  O458  1  0.64533049  0.05596047  0.86794886  1
  O2-  O459  1  0.67851785  0.33429857  0.19092110  1
  O2-  O460  1  0.67348203  0.33613733  0.51734037  1
  O2-  O461  1  0.67921282  0.33607014  0.85673685  1
  O2-  O462  1  0.65298841  0.57345232  0.19859868  1
  O2-  O463  1  0.65168813  0.57554630  0.52426536  1
  O2-  O464  1  0.64942909  0.57222502  0.85562823  1
  O2-  O465  1  0.68571566  0.82768702  0.19984817  1
  O2-  O466  1  0.67453132  0.84378941  0.52254548  1
  O2-  O467  1  0.67343487  0.83075073  0.85058866  1
  O2-  O468  1  0.91457537  0.07417512  0.20440153  1
  O2-  O469  1  0.94681623  0.10197265  0.51863257  1
  O2-  O470  1  0.91490695  0.08170670  0.83596874  1
  O2-  O471  1  0.92152948  0.33746893  0.19631161  1
  O2-  O472  1  0.90323028  0.32587863  0.52819598  1
  O2-  O473  1  0.95961780  0.39199592  0.86473012  1
  O2-  O474  1  0.92795083  0.59036560  0.13930910  1
  O2-  O475  1  0.91371033  0.59127402  0.51441971  1
  O2-  O476  1  0.93235773  0.61108308  0.86304039  1
  O2-  O477  1  0.92671703  0.83473730  0.20666340  1
  O2-  O478  1  0.91457247  0.83819170  0.50463977  1
  O2-  O479  1  0.92493312  0.84578259  0.84892771  1
  O2-  O480  1  0.16325922  0.08940907  0.30997598  1
  O2-  O481  1  0.16396085  0.07769350  0.64805135  1
  O2-  O482  1  0.18032916  0.07511559  0.98016918  1
  O2-  O483  1  0.16397059  0.34859419  0.31998066  1
  O2-  O484  1  0.18203794  0.33636771  0.67348149  1
  O2-  O485  1  0.14113660  0.30052678  0.98065439  1
  O2-  O486  1  0.16703863  0.59217112  0.31297453  1
  O2-  O487  1  0.17391926  0.59447029  0.61731493  1
  O2-  O488  1  0.16832137  0.58815483  0.97896908  1
  O2-  O489  1  0.19989609  0.84724798  0.32375467  1
  O2-  O490  1  0.17590701  0.83935413  0.63863481  1
  O2-  O491  1  0.16146536  0.83193094  0.96903597  1
  O2-  O492  1  0.40796591  0.04867304  0.31126566  1
  O2-  O493  1  0.42109209  0.08250632  0.65114332  1
  O2-  O494  1  0.41425601  0.06093010  1.04661292  1
  O2-  O495  1  0.40806328  0.32501034  0.32358551  1
  O2-  O496  1  0.42924193  0.37834041  0.64450825  1
  O2-  O497  1  0.42172368  0.32625309  1.00129517  1
  O2-  O498  1  0.41002961  0.58039946  0.31704853  1
  O2-  O499  1  0.42780779  0.60382733  0.64222943  1
  O2-  O500  1  0.41603766  0.59067886  0.98033928  1
  O2-  O501  1  0.43522032  0.84169336  0.31892605  1
  O2-  O502  1  0.41642182  0.83631345  0.63674499  1
  O2-  O503  1  0.42582078  0.83163340  0.97443783  1
  O2-  O504  1  0.67605542  0.08661132  0.31915986  1
  O2-  O505  1  0.65875993  0.07507770  0.64418594  1
  O2-  O506  1  0.66746252  0.08753458  0.98530459  1
  O2-  O507  1  0.62703297  0.31182932  0.30473255  1
  O2-  O508  1  0.66489067  0.32987588  0.64278982  1
  O2-  O509  1  0.67453311  0.33740553  0.98646239  1
  O2-  O510  1  0.65475158  0.57795506  0.32142940  1
  O2-  O511  1  0.65865140  0.58196854  0.64658741  1
  O2-  O512  1  0.65110814  0.57588794  0.98046193  1
  O2-  O513  1  0.66401471  0.82605955  0.31644125  1
  O2-  O514  1  0.66710703  0.83337057  0.64547230  1
  O2-  O515  1  0.69215198  0.84299449  0.97756705  1
  O2-  O516  1  0.93759879  0.11277048  0.32760299  1
  O2-  O517  1  0.92445356  0.08755676  0.64007618  1
  O2-  O518  1  0.88162759  0.04528293  0.95584033  1
  O2-  O519  1  0.91601909  0.35125818  0.31939548  1
  O2-  O520  1  0.91793827  0.35268257  0.65225904  1
  O2-  O521  1  0.92926151  0.35486748  0.97606114  1
  O2-  O522  1  0.90068001  0.59538696  0.30617735  1
  O2-  O523  1  0.89477405  0.57090787  0.63980803  1
  O2-  O524  1  0.92438091  0.58617410  0.98505563  1
  O2-  O525  1  0.91563794  0.82952769  0.32660077  1
  O2-  O526  1  0.91945482  0.83049426  0.63776420  1
  O2-  O527  1  0.90786119  0.83593363  0.97065883  1
  O2-  O528  1  0.05650734  0.12783156  -0.00376893  1
  O2-  O529  1  0.09846416  0.18465386  0.35006083  1
  O2-  O530  1  0.08713175  0.16599606  0.68812684  1
  O2-  O531  1  0.12979047  0.43231429  0.03520532  1
  O2-  O532  1  0.07998004  0.43029503  0.36538027  1
  O2-  O533  1  0.07489150  0.43260485  0.67623772  1
  O2-  O534  1  0.09170091  0.67269519  0.02173774  1
  O2-  O535  1  0.08273981  0.67280230  0.35453834  1
  O2-  O536  1  0.10690578  0.67151224  0.66722882  1
  O2-  O537  1  0.07745466  0.91218992  0.02320915  1
  O2-  O538  1  0.07732328  0.92389848  0.36231890  1
  O2-  O539  1  0.08646570  0.91328666  0.68215617  1
  O2-  O540  1  0.33481826  0.15365523  0.04359985  1
  O2-  O541  1  0.29924274  0.08620744  0.36749873  1
  O2-  O542  1  0.32537967  0.16028335  0.68087186  1
  O2-  O543  1  0.32706517  0.40328791  -0.00667251  1
  O2-  O544  1  0.32620562  0.40892980  0.36034187  1
  O2-  O545  1  0.33485962  0.41875204  0.70189347  1
  O2-  O546  1  0.32707417  0.66202120  0.02813086  1
  O2-  O547  1  0.33183889  0.66764796  0.35695935  1
  O2-  O548  1  0.33288315  0.67154558  0.67368359  1
  O2-  O549  1  0.32801796  0.90184742  0.01533553  1
  O2-  O550  1  0.29154076  0.87305109  0.33146099  1
  O2-  O551  1  0.33604403  0.91330007  0.68122931  1
  O2-  O552  1  0.58096728  0.15781274  0.01626373  1
  O2-  O553  1  0.58456883  0.16316781  0.35474007  1
  O2-  O554  1  0.58608823  0.16470728  0.68593585  1
  O2-  O555  1  0.58993200  0.41619051  0.03093597  1
  O2-  O556  1  0.58478135  0.41370384  0.36073647  1
  O2-  O557  1  0.58701221  0.41997423  0.68681009  1
  O2-  O558  1  0.59090010  0.67667315  0.02614519  1
  O2-  O559  1  0.57548396  0.66342861  0.36153416  1
  O2-  O560  1  0.58088905  0.67070170  0.68904533  1
  O2-  O561  1  0.59322402  0.91904868  0.02293140  1
  O2-  O562  1  0.59400964  0.91829700  0.36081485  1
  O2-  O563  1  0.58478267  0.91560295  0.68920421  1
  O2-  O564  1  0.83420261  0.16018938  -0.01434363  1
  O2-  O565  1  0.83973308  0.18457668  0.36210029  1
  O2-  O566  1  0.81269072  0.14567176  0.68489963  1
  O2-  O567  1  0.84338622  0.42191755  0.01852998  1
  O2-  O568  1  0.81477501  0.42673948  0.33862433  1
  O2-  O569  1  0.83132334  0.41600695  0.67972782  1
  O2-  O570  1  0.82812387  0.66079542  -0.03481910  1
  O2-  O571  1  0.82092578  0.66681225  0.36226249  1
  O2-  O572  1  0.82403358  0.66909908  0.68170490  1
  O2-  O573  1  0.78180425  0.88181270  -0.00024370  1
  O2-  O574  1  0.83097620  0.90437779  0.35961479  1
  O2-  O575  1  0.83566880  0.91679485  0.67481702  1
