# generated using pymatgen
data_H2O
_symmetry_space_group_name_H-M   'P 1'
_cell_length_a   17.98743040
_cell_length_b   17.99195053
_cell_length_c   21.99309332
_cell_angle_alpha   89.99616269
_cell_angle_beta   90.00484094
_cell_angle_gamma   120.00407413
_symmetry_Int_Tables_number   1
_chemical_formula_structural   H2O
_chemical_formula_sum   'H384 O192'
_cell_volume   6163.77093961
_cell_formula_units_Z   192
loop_
 _symmetry_equiv_pos_site_id
 _symmetry_equiv_pos_as_xyz
  1  'x, y, z'
loop_
 _atom_type_symbol
 _atom_type_oxidation_number
  H+  1.0
  O2-  -2.0
loop_
 _atom_site_type_symbol
 _atom_site_label
 _atom_site_symmetry_multiplicity
 _atom_site_fract_x
 _atom_site_fract_y
 _atom_site_fract_z
 _atom_site_occupancy
  H+  H0  1  0.35639273  0.47017443  1.00220837  1
  H+  H1  1  0.91168394  0.66344212  0.34045325  1
  H+  H2  1  0.65065245  0.52311832  0.65712681  1
  H+  H3  1  0.63596359  0.27228308  0.32673786  1
  H+  H4  1  0.35338973  0.48396648  0.82048953  1
  H+  H5  1  0.07661974  0.68883701  0.09271443  1
  H+  H6  1  0.98703211  0.62176706  0.49726082  1
  H+  H7  1  0.13401755  0.27646109  0.83840785  1
  H+  H8  1  0.38596913  0.90010172  0.67277543  1
  H+  H9  1  0.87687479  0.48918258  0.49274359  1
  H+  H10  1  0.36922174  0.72142128  0.34144519  1
  H+  H11  1  0.13811114  0.12161027  -0.00928488  1
  H+  H12  1  0.39657269  0.86654954  0.50632906  1
  H+  H13  1  0.61319371  0.35090825  0.51470066  1
  H+  H14  1  0.82582041  0.56168667  0.28344352  1
  H+  H15  1  0.52569308  0.14586778  0.68200539  1
  H+  H16  1  0.58293443  0.97733796  -0.01080697  1
  H+  H17  1  0.14905688  0.13731183  0.51058061  1
  H+  H18  1  0.64134533  0.27058128  0.66677760  1
  H+  H19  1  0.36534607  0.22236384  0.48568513  1
  H+  H20  1  0.13265308  0.74768861  0.67284289  1
  H+  H21  1  0.54123998  0.14470047  0.82345710  1
  H+  H22  1  0.91581840  0.24601154  0.70252292  1
  H+  H23  1  0.74780305  0.59314432  0.34676586  1
  H+  H24  1  0.30869108  0.66145723  0.90589820  1
  H+  H25  1  0.02028223  0.13709034  0.67533850  1
  H+  H26  1  0.63586577  0.38792265  0.67652410  1
  H+  H27  1  0.88711672  0.86871387  0.65744271  1
  H+  H28  1  0.99903456  0.65401334  0.65055878  1
  H+  H29  1  0.62696365  0.36985359  0.82982214  1
  H+  H30  1  0.64219699  0.41043639  -0.01649979  1
  H+  H31  1  0.14316223  0.85624572  0.32818491  1
  H+  H32  1  0.13519747  0.02193516  0.32629670  1
  H+  H33  1  0.22569707  0.11064784  0.33090210  1
  H+  H34  1  0.39928030  0.86726060  0.84570897  1
  H+  H35  1  0.12686530  0.36170572  0.83752155  1
  H+  H36  1  0.96675010  0.10660755  0.17118394  1
  H+  H37  1  0.13514118  0.61216095  0.50234434  1
  H+  H38  1  0.61466823  0.09337477  0.99205726  1
  H+  H39  1  0.15935490  0.33451833  0.93208726  1
  H+  H40  1  0.38610396  0.27410993  0.16593411  1
  H+  H41  1  0.35791003  0.38405259  0.15880342  1
  H+  H42  1  0.12627527  0.26863982  0.65459833  1
  H+  H43  1  0.59335006  0.70430278  0.34709660  1
  H+  H44  1  0.88331980  0.66215371  1.00992938  1
  H+  H45  1  0.47888631  0.86413121  0.32551935  1
  H+  H46  1  0.58255813  0.45890439  0.33555313  1
  H+  H47  1  0.22981459  0.61740643  0.17700946  1
  H+  H48  1  0.02581355  0.87956823  0.48583327  1
  H+  H49  1  0.56649802  0.96040335  0.65417249  1
  H+  H50  1  0.38376066  0.60896754  0.32975078  1
  H+  H51  1  0.13357482  0.36370056  0.49814450  1
  H+  H52  1  0.62221857  0.64020586  0.48690965  1
  H+  H53  1  0.37710670  0.75604679  0.01171322  1
  H+  H54  1  0.12290716  0.51411376  0.82756673  1
  H+  H55  1  0.13901331  0.77303984  0.83124542  1
  H+  H56  1  0.29419029  0.00450854  0.89135868  1
  H+  H57  1  0.59780086  0.64054199  0.85623547  1
  H+  H58  1  0.27790793  0.87348605  0.81899081  1
  H+  H59  1  0.14402568  0.76392776  0.33239875  1
  H+  H60  1  0.61830549  0.62459692  0.01450424  1
  H+  H61  1  0.61183039  -0.01914314  0.16988687  1
  H+  H62  1  0.91681833  0.75462648  0.34337058  1
  H+  H63  1  0.40845832  0.07985873  0.94333262  1
  H+  H64  1  0.18872487  0.37020128  0.65694926  1
  H+  H65  1  0.77430362  0.37869006  0.82634005  1
  H+  H66  1  0.81435676  0.44165784  0.00480311  1
  H+  H67  1  0.61564163  0.26327095  0.51347851  1
  H+  H68  1  0.72137327  0.24754080  0.94184218  1
  H+  H69  1  -0.02088296  0.10968410  0.50462280  1
  H+  H70  1  0.64430935  0.25980697  0.83010694  1
  H+  H71  1  0.52678327  0.88536867  0.48661753  1
  H+  H72  1  0.61119021  0.13234167  0.48802414  1
  H+  H73  1  0.13928415  0.37943288  0.17142943  1
  H+  H74  1  0.61017971  0.78062567  1.03972644  1
  H+  H75  1  0.60452471  0.62810631  0.88752578  1
  H+  H76  1  0.11548299  0.72401041  0.48811715  1
  H+  H77  1  0.10751878  0.63390344  0.82028333  1
  H+  H78  1  0.34563881  0.37710428  0.99945609  1
  H+  H79  1  0.72948953  0.11397827  0.33203903  1
  H+  H80  1  0.88372620  0.36055416  0.32453528  1
  H+  H81  1  0.83447712  0.92201688  0.72605963  1
  H+  H82  1  0.29848355  0.89523595  1.00005034  1
  H+  H83  1  0.85747004  0.47273296  0.33113472  1
  H+  H84  1  0.75352189  0.33501526  0.99231858  1
  H+  H85  1  0.89580260  0.78208602  0.84106604  1
  H+  H86  1  0.39361081  1.02814067  0.00418977  1
  H+  H87  1  0.51718255  0.64182888  0.16710934  1
  H+  H88  1  0.38292143  0.01972351  0.33782037  1
  H+  H89  1  0.42188011  0.33619914  0.75071054  1
  H+  H90  1  0.38650021  0.52758498  0.17724877  1
  H+  H91  1  0.88758113  0.78018918  0.66209352  1
  H+  H92  1  0.09334870  0.74264886  0.15298798  1
  H+  H93  1  0.84281730  0.88691482  0.00818684  1
  H+  H94  1  1.02403629  0.39090798  1.00794189  1
  H+  H95  1  0.62467869  0.20692519  0.00005017  1
  H+  H96  1  0.10647559  -0.01220934  1.01323690  1
  H+  H97  1  0.88702624  0.52082051  0.83678268  1
  H+  H98  1  0.39495159  0.67468176  0.66767924  1
  H+  H99  1  0.61004973  0.89189067  0.16992937  1
  H+  H100  1  0.63840889  0.77074173  0.49542701  1
  H+  H101  1  0.35757548  0.96346965  0.82924040  1
  H+  H102  1  0.49405960  0.34962010  0.82838685  1
  H+  H103  1  0.37952129  0.27318780  0.97693562  1
  H+  H104  1  0.02341861  0.38138520  0.33579217  1
  H+  H105  1  0.51773448  0.39131997  0.48863560  1
  H+  H106  1  0.26516175  0.13254508  0.82663231  1
  H+  H107  1  -0.02905628  0.88268125  0.00052412  1
  H+  H108  1  0.61404366  0.13728675  0.33880650  1
  H+  H109  1  0.36276224  0.88873692  0.16308530  1
  H+  H110  1  0.87571970  1.01982139  -0.00453097  1
  H+  H111  1  0.37944088  0.61498680  0.85283037  1
  H+  H112  1  0.85292921  0.22135697  0.00658842  1
  H+  H113  1  0.47485747  0.58484272  0.99451484  1
  H+  H114  1  0.45980465  0.36666131  0.97449460  1
  H+  H115  1  1.02562934  0.88974160  0.67185211  1
  H+  H116  1  0.08726201  0.91611942  0.39432727  1
  H+  H117  1  0.26419731  0.39520087  0.82116906  1
  H+  H118  1  0.76403903  0.13049372  0.00482659  1
  H+  H119  1  0.21790453  0.36186111  -0.00765648  1
  H+  H120  1  0.63235211  0.35930513  0.32640964  1
  H+  H121  1  0.63577734  0.01735273  0.49824622  1
  H+  H122  1  0.60042319  0.38626668  0.96659456  1
  H+  H123  1  0.86681362  0.72751385  0.49346029  1
  H+  H124  1  0.19260940  0.58038319  0.65605202  1
  H+  H125  1  0.52045708  0.12951863  0.48979361  1
  H+  H126  1  0.89695645  0.62162795  0.49976591  1
  H+  H127  1  0.79114129  0.63402159  0.83006612  1
  H+  H128  1  0.94171625  0.50416809  0.66227757  1
  H+  H129  1  0.88143794  0.26940802  0.84832268  1
  H+  H130  1  0.33631134  0.17849236  0.05840212  1
  H+  H131  1  1.02419068  0.38418346  0.15866014  1
  H+  H132  1  0.52638874  0.89160406  0.82055269  1
  H+  H133  1  0.66586448  0.83587835  0.55271668  1
  H+  H134  1  0.54716720  0.38766605  0.68855482  1
  H+  H135  1  0.22154583  0.11194076  0.66497507  1
  H+  H136  1  0.34534122  0.08543929  0.84922848  1
  H+  H137  1  0.11896991  0.98046370  0.82562617  1
  H+  H138  1  0.13146162  0.64716310  -0.00147616  1
  H+  H139  1  0.96180455  0.51847606  0.69302391  1
  H+  H140  1  0.88386624  0.36028020  0.84688523  1
  H+  H141  1  0.28539604  0.66958004  1.00852880  1
  H+  H142  1  0.63402505  0.02872074  0.83325628  1
  H+  H143  1  0.57762733  0.42448481  0.22193637  1
  H+  H144  1  0.47550852  0.36469050  0.17930554  1
  H+  H145  1  0.36414024  0.21172421  0.82133249  1
  H+  H146  1  0.05181227  0.66257949  -0.00475541  1
  H+  H147  1  0.88380575  0.02766685  0.65945768  1
  H+  H148  1  0.38721936  0.10933799  0.50242565  1
  H+  H149  1  0.91854971  0.83487777  0.56543934  1
  H+  H150  1  0.36637583  0.14384107  0.00300595  1
  H+  H151  1  1.02579849  0.14158560  0.82827936  1
  H+  H152  1  0.62281215  -0.01875323  0.33719340  1
  H+  H153  1  0.11558525  0.13989819  0.33644905  1
  H+  H154  1  0.91268296  0.32751614  0.26632023  1
  H+  H155  1  0.14356592  0.52787667  -0.01237605  1
  H+  H156  1  0.89126593  0.61341262  0.83538232  1
  H+  H157  1  0.59105434  0.16744950  0.74173832  1
  H+  H158  1  0.26819439  0.63580302  0.49323243  1
  H+  H159  1  0.76925396  0.89090971  0.66943097  1
  H+  H160  1  0.10794022  0.47825467  0.33440674  1
  H+  H161  1  0.77528724  0.88542007  0.48745751  1
  H+  H162  1  0.86611060  0.97392755  0.49120556  1
  H+  H163  1  0.08482556  0.41602110  0.09861795  1
  H+  H164  1  0.77204596  0.38351499  0.33808986  1
  H+  H165  1  0.52425682  0.13193051  0.00903066  1
  H+  H166  1  0.77198885  0.33677074  0.67515212  1
  H+  H167  1  0.88776612  0.11699317  0.84327790  1
  H+  H168  1  0.10909224  0.23048324  0.48893919  1
  H+  H169  1  0.36604697  -0.02853212  0.49329520  1
  H+  H170  1  0.22598156  0.86555086  0.17541510  1
  H+  H171  1  0.36314118  0.21947250  0.68586865  1
  H+  H172  1  0.63592249  0.12001290  0.83607062  1
  H+  H173  1  0.59361396  0.74205715  0.77986243  1
  H+  H174  1  0.13556518  0.37240822  0.32165189  1
  H+  H175  1  0.14558223  0.86568945  0.83104245  1
  H+  H176  1  0.75381731  0.65711862  -0.00566230  1
  H+  H177  1  0.11418829  0.88025138  0.48531827  1
  H+  H178  1  0.35566524  0.21725612  0.33736027  1
  H+  H179  1  1.02460931  0.38877335  0.48691334  1
  H+  H180  1  0.74188167  0.52482678  0.89702474  1
  H+  H181  1  1.10322456  0.96563011  0.17552840  1
  H+  H182  1  0.64187359  0.60637608  0.64242983  1
  H+  H183  1  0.02124128  0.63775360  0.82361222  1
  H+  H184  1  0.13771663  0.52595684  0.50369368  1
  H+  H185  1  0.88856324  0.10607488  0.50895170  1
  H+  H186  1  0.17143200  0.64777086  0.68449086  1
  H+  H187  1  0.22207298  0.19885608  0.20898367  1
  H+  H188  1  0.92586511  0.37717444  0.67210143  1
  H+  H189  1  0.96446425  0.85806414  0.17145077  1
  H+  H190  1  0.61823095  0.85539371  0.64717715  1
  H+  H191  1  0.27249822  0.87948126  0.34356245  1
  H+  H192  1  0.23586192  0.38086077  0.17311848  1
  H+  H193  1  0.47146418  0.60442670  0.33383857  1
  H+  H194  1  0.87839650  0.74873848  1.01204073  1
  H+  H195  1  0.73520715  0.61140667  0.49416221  1
  H+  H196  1  0.38832291  0.77928343  0.17690387  1
  H+  H197  1  0.11190091  0.38963775  1.00433840  1
  H+  H198  1  0.12941487  0.60912933  0.33194017  1
  H+  H199  1  0.46095038  0.40530361  0.07880637  1
  H+  H200  1  0.48509188  0.59894948  0.50606112  1
  H+  H201  1  0.76903514  0.38133597  0.15998324  1
  H+  H202  1  0.86857137  0.14968897  0.68119394  1
  H+  H203  1  0.92465266  0.55554075  0.99563351  1
  H+  H204  1  0.87601836  0.89749404  0.82140099  1
  H+  H205  1  0.85805329  0.21691043  0.50476485  1
  H+  H206  1  0.14257972  0.52910119  0.17314819  1
  H+  H207  1  0.88561814  0.37235176  0.49602979  1
  H+  H208  1  0.58028140  0.65725556  0.58387101  1
  H+  H209  1  0.17149421  0.78908068  0.98509638  1
  H+  H210  1  0.09182303  0.68363897  0.73021090  1
  H+  H211  1  0.39503109  0.02776597  0.66076905  1
  H+  H212  1  0.58439073  0.16771932  0.39753405  1
  H+  H213  1  0.32687630  0.41398779  0.09875632  1
  H+  H214  1  0.73100700  0.87052229  0.79631353  1
  H+  H215  1  0.85972932  0.13452874  0.16119448  1
  H+  H216  1  0.36349085  0.88307212  0.34309502  1
  H+  H217  1  0.39399265  0.51071585  0.50657926  1
  H+  H218  1  0.61478763  0.22946243  0.16009507  1
  H+  H219  1  0.58406912  0.58757703  0.33314567  1
  H+  H220  1  0.11086725  0.88191212  0.16973034  1
  H+  H221  1  0.22827378  0.12217235  -0.00974318  1
  H+  H222  1  0.68070682  0.58000062  0.55550177  1
  H+  H223  1  0.10300944  0.13777615  0.15965578  1
  H+  H224  1  0.62669674  0.61589446  0.17696886  1
  H+  H225  1  0.11231776  0.98087981  0.67145968  1
  H+  H226  1  0.36730199  0.64474182  0.16325370  1
  H+  H227  1  0.85390544  0.97547861  0.16405591  1
  H+  H228  1  0.35918404  0.12811498  0.34066930  1
  H+  H229  1  0.90706499  0.50943904  0.17236127  1
  H+  H230  1  0.36379337  0.73381891  0.85879770  1
  H+  H231  1  0.22793675  0.37299536  0.32108493  1
  H+  H232  1  0.98471089  0.86963299  0.84066771  1
  H+  H233  1  0.66467777  0.49653852  0.85198087  1
  H+  H234  1  0.88037225  0.11028341  0.99373309  1
  H+  H235  1  0.23920408  0.87996008  0.65933299  1
  H+  H236  1  0.64356937  0.06541130  0.92750088  1
  H+  H237  1  0.90225954  0.31491769  0.45246148  1
  H+  H238  1  0.21135823  0.60477185  0.83643456  1
  H+  H239  1  0.62997391  0.36377214  0.17800477  1
  H+  H240  1  0.23582132  0.13159250  0.51093794  1
  H+  H241  1  0.10519374  0.22619883  0.00304550  1
  H+  H242  1  0.88967668  0.86850662  0.32271452  1
  H+  H243  1  0.63119853  0.77480429  0.63897210  1
  H+  H244  1  0.36093853  0.47991273  0.33398154  1
  H+  H245  1  0.88846201  0.27261345  0.17056574  1
  H+  H246  1  0.88852529  0.86162584  0.50459009  1
  H+  H247  1  0.69545353  0.86614447  1.02196205  1
  H+  H248  1  0.86160336  0.98113069  0.33910378  1
  H+  H249  1  1.01449804  0.38126441  0.83305733  1
  H+  H250  1  0.36906399  0.13933165  0.14693039  1
  H+  H251  1  0.10967157  0.13697984  0.67545867  1
  H+  H252  1  0.31470911  0.41481898  0.66457970  1
  H+  H253  1  0.91762906  0.08394978  0.90047992  1
  H+  H254  1  0.47702410  0.86981973  0.17777103  1
  H+  H255  1  0.73680177  0.87709275  0.32880575  1
  H+  H256  1  0.01831847  0.13449072  0.00226712  1
  H+  H257  1  0.61576524  0.88336471  0.48387755  1
  H+  H258  1  0.87500327  -0.01375864  0.82179610  1
  H+  H259  1  0.47517605  0.11583115  0.16155321  1
  H+  H260  1  0.37608742  0.54959048  0.66094575  1
  H+  H261  1  0.47071019  0.10980126  0.33364536  1
  H+  H262  1  0.75971785  0.63186637  0.32728987  1
  H+  H263  1  0.76971612  0.13561185  0.83340532  1
  H+  H264  1  0.13588978  0.11719185  0.83810509  1
  H+  H265  1  0.03168264  0.89274338  0.33300043  1
  H+  H266  1  0.38492987  0.02731837  0.16096208  1
  H+  H267  1  0.11487277  0.22907497  0.33283740  1
  H+  H268  1  0.41492686  0.58836593  0.59541986  1
  H+  H269  1  0.54835145  0.54533746  0.05169273  1
  H+  H270  1  0.46295118  0.35060355  0.32546393  1
  H+  H271  1  0.35967363  0.72078140  0.49340704  1
  H+  H272  1  0.87860255  0.66020232  0.66972676  1
  H+  H273  1  0.77048718  0.12697338  0.50127605  1
  H+  H274  1  0.86346617  0.22736253  0.34479781  1
  H+  H275  1  0.23132925  0.86040199  0.50517845  1
  H+  H276  1  0.72803543  0.11803799  0.17719692  1
  H+  H277  1  0.88211847  0.35741770  -0.00073117  1
  H+  H278  1  0.56630481  0.87458681  0.01256984  1
  H+  H279  1  0.85491707  0.88623117  0.16112363  1
  H+  H280  1  0.14828400  0.87833835  0.66024293  1
  H+  H281  1  0.37223671  0.36029526  0.49265359  1
  H+  H282  1  0.26482370  0.38247150  0.48571799  1
  H+  H283  1  1.04563750  0.65151151  0.34170079  1
  H+  H284  1  0.64695221  0.87948903  0.79150265  1
  H+  H285  1  0.59702416  0.10170976  0.65469587  1
  H+  H286  1  0.72450406  0.86365066  0.17850111  1
  H+  H287  1  0.97733863  0.11529385  0.32744420  1
  H+  H288  1  0.81914393  0.91790065  0.06922185  1
  H+  H289  1  0.91168022  0.08292781  0.23349052  1
  H+  H290  1  0.91484347  0.32953904  0.94077926  1
  H+  H291  1  0.83587614  0.16774842  0.40574743  1
  H+  H292  1  0.82773247  0.16231908  0.10166894  1
  H+  H293  1  0.57579037  0.65966295  0.42839285  1
  H+  H294  1  0.56219772  0.92040419  0.75363154  1
  H+  H295  1  0.05190717  0.39078891  0.76688059  1
  H+  H296  1  0.59052477  0.91698344  0.39588377  1
  H+  H297  1  0.80784899  0.27713198  0.69994123  1
  H+  H298  1  0.66562121  0.33152235  0.23177574  1
  H+  H299  1  0.43827730  0.84563082  0.56392718  1
  H+  H300  1  0.17953392  0.11104114  0.24375083  1
  H+  H301  1  0.09312805  0.67123628  0.42332614  1
  H+  H302  1  0.08427461  0.41658670  0.42768697  1
  H+  H303  1  0.33579952  0.90932872  0.43499235  1
  H+  H304  1  0.67073992  0.84034336  0.26547035  1
  H+  H305  1  0.84204225  0.67300730  0.76679521  1
  H+  H306  1  0.40464871  0.32525509  0.26527163  1
  H+  H307  1  0.44633723  0.85608711  0.90580242  1
  H+  H308  1  0.92915603  0.59450232  0.92972061  1
  H+  H309  1  0.52252202  0.63722334  0.64075167  1
  H+  H310  1  0.57065877  0.40282427  0.39558936  1
  H+  H311  1  0.67929191  0.31194534  0.89373599  1
  H+  H312  1  0.08835940  0.92160734  0.76570600  1
  H+  H313  1  0.66973204  0.81031285  0.91335084  1
  H+  H314  1  0.86304210  0.68155636  0.43122917  1
  H+  H315  1  0.83149513  0.91788323  0.39766527  1
  H+  H316  1  0.33736530  0.66190574  0.40054619  1
  H+  H317  1  0.82110369  0.39926468  0.09797171  1
  H+  H318  1  0.88864133  0.11630567  0.33157824  1
  H+  H319  1  0.83562118  0.39426071  0.76997970  1
  H+  H320  1  0.46428866  0.62112962  0.82691952  1
  H+  H321  1  0.33569058  0.91535013  0.10119804  1
  H+  H322  1  0.56414285  0.65072938  0.75216516  1
  H+  H323  1  0.07471445  0.92706035  0.07209700  1
  H+  H324  1  0.08206793  0.16909384  0.43078000  1
  H+  H325  1  0.32454714  0.41363941  0.42536785  1
  H+  H326  1  0.84203466  0.42885050  0.43413536  1
  H+  H327  1  0.88658541  0.36026104  0.17021662  1
  H+  H328  1  0.98497418  0.60826531  0.17046079  1
  H+  H329  1  0.17019510  0.83208136  0.23717304  1
  H+  H330  1  0.91483604  0.83911274  0.26090627  1
  H+  H331  1  0.33157990  0.15795878  0.42966326  1
  H+  H332  1  0.31406577  0.68501655  0.68835864  1
  H+  H333  1  0.39338937  0.90582175  0.00856744  1
  H+  H334  1  0.06915807  0.15556696  0.09721661  1
  H+  H335  1  0.41958548  0.79068585  0.66666244  1
  H+  H336  1  0.53345395  0.03893128  0.60576183  1
  H+  H337  1  0.16863659  0.09637993  0.60407036  1
  H+  H338  1  0.62866530  0.52658954  0.17902623  1
  H+  H339  1  0.91629322  0.84756502  0.93880888  1
  H+  H340  1  0.67179499  0.08666853  0.27091927  1
  H+  H341  1  0.34059805  0.68106418  0.10495519  1
  H+  H342  1  0.87148479  0.77088435  0.17256441  1
  H+  H343  1  0.19683591  0.84139774  0.92332256  1
  H+  H344  1  0.16042839  0.33002829  0.55753377  1
  H+  H345  1  0.62303980  0.56746614  0.27117564  1
  H+  H346  1  0.15943560  0.57739630  0.92451070  1
  H+  H347  1  0.42268581  0.57114852  0.93180598  1
  H+  H348  1  0.41466788  0.58283222  0.23934542  1
  H+  H349  1  0.83693551  0.17138256  0.77683015  1
  H+  H350  1  0.15361262  0.57592178  0.27000933  1
  H+  H351  1  0.63951352  0.11937538  0.17866460  1
  H+  H352  1  0.64201397  0.82958027  0.90680043  1
  H+  H353  1  0.60953357  0.41519766  0.77196482  1
  H+  H354  1  0.78176745  0.64344544  0.67258375  1
  H+  H355  1  0.28287769  0.14630175  0.15407156  1
  H+  H356  1  0.57478083  0.65500516  0.10803477  1
  H+  H357  1  0.08340930  0.16984701  0.76769001  1
  H+  H358  1  0.91966512  0.08704265  0.60136655  1
  H+  H359  1  0.66494656  0.32646494  0.60615281  1
  H+  H360  1  0.32563473  0.14681097  0.73454519  1
  H+  H361  1  0.41342685  0.33369293  0.86812538  1
  H+  H362  1  0.91105868  0.56886864  0.25392122  1
  H+  H363  1  0.41661501  0.83513715  0.26815534  1
  H+  H364  1  0.61194976  0.47550705  0.48721925  1
  H+  H365  1  0.17165991  0.83637560  0.56352411  1
  H+  H366  1  0.64783033  0.07281386  0.55793151  1
  H+  H367  1  0.76307152  0.64272316  0.16428130  1
  H+  H368  1  0.16591876  0.08821233  0.89847271  1
  H+  H369  1  0.17316069  0.35271160  0.24086592  1
  H+  H370  1  0.55013361  0.43454809  0.10560712  1
  H+  H371  1  0.40731385  0.37000464  0.68822987  1
  H+  H372  1  0.38832312  0.11298371  0.65923579  1
  H+  H373  1  0.82870160  0.67372240  0.10767550  1
  H+  H374  1  0.39880048  0.32912637  0.55232053  1
  H+  H375  1  0.64012710  0.87940474  0.32863184  1
  H+  H376  1  0.41769428  0.08333813  0.56349835  1
  H+  H377  1  0.63333211  0.77470786  0.18010223  1
  H+  H378  1  0.69281577  0.60789147  0.93900417  1
  H+  H379  1  0.34871462  0.92006404  0.73241548  1
  H+  H380  1  0.30763123  0.44114935  0.73366362  1
  H+  H381  1  0.35534827  0.38623084  0.33350636  1
  H+  H382  1  0.93783090  0.62140019  0.59156448  1
  H+  H383  1  0.59041357  0.16602487  0.10231314  1
  O2-  O384  1  0.06139711  0.15221616  0.14209398  1
  O2-  O385  1  0.07964153  0.16835224  0.47593858  1
  O2-  O386  1  0.08658442  0.17102474  0.81350555  1
  O2-  O387  1  0.08536939  0.41295809  0.14423996  1
  O2-  O388  1  0.08542623  0.41633040  0.47332065  1
  O2-  O389  1  0.07047840  0.40858329  0.81060786  1
  O2-  O390  1  0.04791794  0.69466589  0.12904201  1
  O2-  O391  1  0.08438302  0.66505083  0.47126247  1
  O2-  O392  1  0.08145192  0.66983279  0.80834629  1
  O2-  O393  1  0.07682730  0.91007872  0.15540865  1
  O2-  O394  1  0.08384239  0.90859728  0.46758079  1
  O2-  O395  1  0.09057621  0.91969419  0.81128646  1
  O2-  O396  1  0.33957680  0.17390211  0.13402054  1
  O2-  O397  1  0.33652495  0.16037819  0.47539727  1
  O2-  O398  1  0.32485167  0.14970987  0.81135506  1
  O2-  O399  1  0.32824028  0.41597508  0.14443586  1
  O2-  O400  1  0.32588989  0.40970142  0.47081165  1
  O2-  O401  1  0.32053995  0.42690852  0.79985874  1
  O2-  O402  1  0.33842053  0.67704708  0.15035834  1
  O2-  O403  1  0.32806586  0.66256526  0.47652349  1
  O2-  O404  1  0.32342264  0.67008167  0.86276157  1
  O2-  O405  1  0.33054208  0.91635258  0.14633416  1
  O2-  O406  1  0.33824939  0.90999493  0.48108704  1
  O2-  O407  1  0.34111768  0.90762449  0.80924088  1
  O2-  O408  1  0.58816811  0.16767025  0.14756949  1
  O2-  O409  1  0.58081462  0.16282469  0.47418311  1
  O2-  O410  1  0.59935343  0.17004506  0.80749488  1
  O2-  O411  1  0.57393636  0.41530559  0.17802244  1
  O2-  O412  1  0.57759047  0.41387663  0.47446692  1
  O2-  O413  1  0.60000570  0.40607592  0.81691702  1
  O2-  O414  1  0.57801055  0.67316403  0.15158024  1
  O2-  O415  1  0.58841241  0.66872403  0.47758193  1
  O2-  O416  1  0.54310202  0.68234855  0.77532243  1
  O2-  O417  1  0.57862877  0.92043397  0.15566260  1
  O2-  O418  1  0.58715695  0.91610078  0.46940152  1
  O2-  O419  1  0.58024094  0.92753065  0.79667917  1
  O2-  O420  1  0.83074343  0.16674084  0.14681129  1
  O2-  O421  1  0.83247096  0.15746492  0.48868292  1
  O2-  O422  1  0.83219020  0.16728342  0.82264393  1
  O2-  O423  1  0.82826656  0.40476656  0.14311092  1
  O2-  O424  1  0.84565479  0.42780607  0.47901583  1
  O2-  O425  1  0.83660413  0.41220944  0.81290421  1
  O2-  O426  1  0.82485207  0.67602628  0.15245654  1
  O2-  O427  1  0.83994275  0.66931981  0.47423500  1
  O2-  O428  1  0.84851769  0.67337840  0.81245891  1
  O2-  O429  1  0.82171666  0.91512569  0.14806553  1
  O2-  O430  1  0.83625327  0.91492851  0.47272819  1
  O2-  O431  1  0.84768624  0.92781231  0.80321235  1
  O2-  O432  1  0.19229130  0.13728918  0.20109299  1
  O2-  O433  1  0.18756386  0.12576482  0.53612401  1
  O2-  O434  1  0.16703416  0.08704833  0.85266309  1
  O2-  O435  1  0.17551014  0.35523768  0.19139766  1
  O2-  O436  1  0.16377382  0.33209937  0.51161852  1
  O2-  O437  1  0.16130278  0.33653839  0.85439836  1
  O2-  O438  1  0.16982733  0.58614287  0.19211797  1
  O2-  O439  1  0.16592145  0.58451510  0.52105767  1
  O2-  O440  1  0.14894748  0.57386006  0.84473440  1
  O2-  O441  1  0.16624857  0.83816361  0.19186726  1
  O2-  O442  1  0.17014975  0.83229985  0.51848960  1
  O2-  O443  1  0.17652364  0.83473926  0.84322742  1
  O2-  O444  1  0.41243868  0.09036026  0.16757625  1
  O2-  O445  1  0.41777947  0.07925405  0.51828881  1
  O2-  O446  1  0.35118378  0.04092426  0.87397903  1
  O2-  O447  1  0.40849987  0.33261584  0.18414600  1
  O2-  O448  1  0.40571463  0.33168489  0.50839302  1
  O2-  O449  1  0.42939569  0.31981550  0.82849182  1
  O2-  O450  1  0.41606673  0.58699893  0.19301299  1
  O2-  O451  1  0.43448827  0.56044874  0.53146572  1
  O2-  O452  1  0.41266718  0.58429911  0.85250011  1
  O2-  O453  1  0.41571556  0.83964854  0.19267348  1
  O2-  O454  1  0.43206908  0.84024259  0.51915495  1
  O2-  O455  1  0.43323083  0.84102360  0.86121664  1
  O2-  O456  1  0.66928605  0.08908475  0.19548969  1
  O2-  O457  1  0.66422896  0.07782623  0.51427489  1
  O2-  O458  1  0.66194078  0.08447535  0.85548943  1
  O2-  O459  1  0.66344828  0.33296616  0.18639701  1
  O2-  O460  1  0.62629471  0.31264829  0.53927618  1
  O2-  O461  1  0.67488088  0.32215910  0.84888504  1
  O2-  O462  1  0.65989969  0.58868369  0.19174935  1
  O2-  O463  1  0.67494153  0.58093377  0.51059102  1
  O2-  O464  1  0.71081237  0.54777876  0.87495838  1
  O2-  O465  1  0.66555348  0.83409587  0.19784241  1
  O2-  O466  1  0.66868088  0.83393200  0.50743321  1
  O2-  O467  1  0.67204595  0.84353092  0.77984904  1
  O2-  O468  1  0.90622914  0.07906278  0.18836773  1
  O2-  O469  1  0.91944741  0.07553154  0.52184471  1
  O2-  O470  1  0.92111707  0.08818483  0.85511107  1
  O2-  O471  1  0.92006953  0.33312151  0.18577994  1
  O2-  O472  1  0.91026000  0.33083959  0.49529647  1
  O2-  O473  1  0.91316672  0.32999921  0.86423109  1
  O2-  O474  1  0.94910482  0.55773530  0.19753160  1
  O2-  O475  1  0.92792895  0.59310838  0.51681718  1
  O2-  O476  1  0.91750063  0.58041521  0.85358347  1
  O2-  O477  1  0.90434619  0.83446798  0.18574060  1
  O2-  O478  1  0.91760797  0.83074549  0.52011102  1
  O2-  O479  1  0.92414776  0.84261780  0.85545520  1
  O2-  O480  1  0.16542775  0.08495049  0.31406736  1
  O2-  O481  1  0.16159136  0.08475232  0.64974848  1
  O2-  O482  1  0.16780243  0.09078642  0.97514546  1
  O2-  O483  1  0.16749055  0.34316455  0.30343081  1
  O2-  O484  1  0.14915624  0.32263355  0.63074606  1
  O2-  O485  1  0.15688978  0.33238603  0.97777598  1
  O2-  O486  1  0.14186014  0.56421342  0.31428206  1
  O2-  O487  1  0.21005541  0.62258990  0.68859296  1
  O2-  O488  1  0.17309573  0.58620910  0.96885508  1
  O2-  O489  1  0.17489501  0.82783870  0.31367123  1
  O2-  O490  1  0.17907297  0.84872725  0.64467631  1
  O2-  O491  1  0.20660452  0.84785181  0.96777169  1
  O2-  O492  1  0.40864543  0.08036890  0.32407745  1
  O2-  O493  1  0.42347348  0.08775124  0.64422146  1
  O2-  O494  1  0.42007929  0.08910434  0.98763025  1
  O2-  O495  1  0.40179616  0.32325930  0.31063635  1
  O2-  O496  1  0.42797219  0.33396583  0.70569618  1
  O2-  O497  1  0.40220095  0.33145803  0.95763005  1
  O2-  O498  1  0.41188244  0.57540336  0.31291316  1
  O2-  O499  1  0.41781649  0.60411554  0.64013111  1
  O2-  O500  1  0.41687201  0.56196304  0.97648049  1
  O2-  O501  1  0.41774785  0.83426961  0.31401087  1
  O2-  O502  1  0.45370684  0.85958219  0.64635756  1
  O2-  O503  1  0.45295882  0.86464759  0.98169484  1
  O2-  O504  1  0.66912653  0.08205885  0.31675132  1
  O2-  O505  1  0.58825260  0.05380581  0.62477094  1
  O2-  O506  1  0.63786635  0.05601336  0.97353816  1
  O2-  O507  1  0.66713997  0.33321756  0.31193369  1
  O2-  O508  1  0.67872326  0.33066414  0.65133127  1
  O2-  O509  1  0.69546158  0.27884311  0.95972196  1
  O2-  O510  1  0.59455046  0.54333230  0.31039440  1
  O2-  O511  1  0.67952629  0.58097946  0.63768840  1
  O2-  O512  1  0.70026567  0.64642436  0.97306069  1
  O2-  O513  1  0.67338911  0.84671533  0.31298100  1
  O2-  O514  1  0.65899285  0.83791762  0.63227049  1
  O2-  O515  1  0.63185937  0.83876069  1.02488632  1
  O2-  O516  1  0.91565352  0.08395319  0.31434489  1
  O2-  O517  1  0.91657165  0.08918987  0.64664498  1
  O2-  O518  1  0.91060500  0.07987631  0.97934556  1
  O2-  O519  1  0.91124635  0.32619028  0.31180665  1
  O2-  O520  1  0.98806003  0.39586346  0.66491231  1
  O2-  O521  1  0.91469194  0.32805189  0.98647965  1
  O2-  O522  1  0.88125807  0.56890540  0.29498899  1
  O2-  O523  1  0.94179262  0.63975450  0.63498428  1
  O2-  O524  1  0.93917056  0.60859014  0.97437865  1
  O2-  O525  1  0.92428072  0.84447092  0.30623062  1
  O2-  O526  1  0.91969020  0.83979396  0.64473878  1
  O2-  O527  1  0.91029524  0.84756099  0.98371859  1
  O2-  O528  1  0.07891770  0.16534052  0.01719607  1
  O2-  O529  1  0.08367917  0.16991654  0.34936405  1
  O2-  O530  1  0.08050811  0.16811095  0.69138604  1
  O2-  O531  1  0.08552746  0.42327998  0.02091270  1
  O2-  O532  1  0.08427540  0.41334662  0.34914398  1
  O2-  O533  1  0.00427862  0.34380814  0.70282801  1
  O2-  O534  1  0.10973096  0.68547630  0.01296977  1
  O2-  O535  1  0.10415068  0.67857561  0.35715496  1
  O2-  O536  1  0.10261814  0.68604638  0.68558585  1
  O2-  O537  1  0.06663946  0.92891663  0.02785208  1
  O2-  O538  1  0.09176828  0.92218344  0.34819308  1
  O2-  O539  1  0.08609945  0.92047537  0.68733144  1
  O2-  O540  1  0.33625771  0.17663912  0.01252541  1
  O2-  O541  1  0.32565939  0.15773202  0.35411831  1
  O2-  O542  1  0.33024012  0.15617692  0.68934591  1
  O2-  O543  1  0.32132738  0.40929004  0.02010598  1
  O2-  O544  1  0.32498261  0.41673027  0.34766727  1
  O2-  O545  1  0.30066181  0.45191506  0.68801336  1
  O2-  O546  1  0.34236641  0.69674706  0.02751700  1
  O2-  O547  1  0.34476774  0.66160818  0.35533037  1
  O2-  O548  1  0.37903786  0.71464369  0.68870490  1
  O2-  O549  1  0.35510003  0.92856820  0.02274705  1
  O2-  O550  1  0.33285524  0.91159445  0.36073908  1
  O2-  O551  1  0.35067076  0.92520768  0.68693080  1
  O2-  O552  1  0.58427096  0.15120103  0.02295744  1
  O2-  O553  1  0.58445721  0.16884316  0.35188931  1
  O2-  O554  1  0.58688124  0.16894967  0.69348436  1
  O2-  O555  1  0.52142949  0.43827553  0.06764390  1
  O2-  O556  1  0.56653572  0.39846216  0.35028893  1
  O2-  O557  1  0.61002177  0.42242408  0.69368886  1
  O2-  O558  1  0.56488894  0.60541042  0.04039056  1
  O2-  O559  1  0.56058328  0.64798828  0.36583143  1
  O2-  O560  1  0.58464138  0.66204418  0.62830353  1
  O2-  O561  1  0.53862377  0.91214815  0.01063130  1
  O2-  O562  1  0.59485236  0.91864827  0.34972567  1
  O2-  O563  1  0.54309932  0.89973970  0.66977224  1
  O2-  O564  1  0.82307392  0.15995221  0.02083262  1
  O2-  O565  1  0.83476320  0.16666427  0.36045045  1
  O2-  O566  1  0.85823527  0.19165725  0.70353851  1
  O2-  O567  1  0.81179575  0.38956184  0.01971862  1
  O2-  O568  1  0.83415244  0.41465107  0.35001377  1
  O2-  O569  1  0.82083637  0.33689996  0.69761095  1
  O2-  O570  1  0.85035828  0.68767338  0.02685808  1
  O2-  O571  1  0.91895475  0.70978580  0.36824413  1
  O2-  O572  1  0.83976248  0.67866077  0.69095692  1
  O2-  O573  1  0.81247611  0.91693090  0.02397043  1
  O2-  O574  1  0.82747752  0.91907691  0.35170720  1
  O2-  O575  1  0.83092287  0.92060069  0.68054611  1
