# generated using pymatgen
data_H2O
_symmetry_space_group_name_H-M   'P 1'
_cell_length_a   17.99659326
_cell_length_b   17.99571588
_cell_length_c   22.00435354
_cell_angle_alpha   90.00364641
_cell_angle_beta   89.98715447
_cell_angle_gamma   120.00023392
_symmetry_Int_Tables_number   1
_chemical_formula_structural   H2O
_chemical_formula_sum   'H384 O192'
_cell_volume   6171.59814280
_cell_formula_units_Z   192
loop_
 _symmetry_equiv_pos_site_id
 _symmetry_equiv_pos_as_xyz
  1  'x, y, z'
loop_
 _atom_type_symbol
 _atom_type_oxidation_number
  H+  1.0
  O2-  -2.0
loop_
 _atom_site_type_symbol
 _atom_site_label
 _atom_site_symmetry_multiplicity
 _atom_site_fract_x
 _atom_site_fract_y
 _atom_site_fract_z
 _atom_site_occupancy
  H+  H0  1  0.87926567  0.34727254  0.16581772  1
  H+  H1  1  0.63934081  0.11506640  0.50322052  1
  H+  H2  1  0.62191543  0.35445729  0.51617967  1
  H+  H3  1  0.51554704  0.63139545  0.82276112  1
  H+  H4  1  0.99305916  0.37348419  0.82614780  1
  H+  H5  1  0.52150606  0.38904660  0.50180109  1
  H+  H6  1  0.86781142  0.20546100  0.34035707  1
  H+  H7  1  0.89888719  0.78313232  0.32790416  1
  H+  H8  1  0.51851961  0.87947293  0.50290301  1
  H+  H9  1  -0.00540318  0.62742355  -0.00702658  1
  H+  H10  1  0.64062995  0.64187357  0.35341098  1
  H+  H11  1  0.38508664  0.85578010  0.51377270  1
  H+  H12  1  0.65216820  0.78726074  0.33943513  1
  H+  H13  1  0.74997361  0.61835411  0.15499378  1
  H+  H14  1  0.52767443  0.40521653  0.15502799  1
  H+  H15  1  0.16265642  0.90858383  0.31602658  1
  H+  H16  1  0.61694419  0.88846672  0.67358523  1
  H+  H17  1  0.09958533  0.22750852  0.50328973  1
  H+  H18  1  0.87438252  -0.03375628  1.00697120  1
  H+  H19  1  0.37554501  0.01647622  0.65530909  1
  H+  H20  1  0.36075185  0.95318239  0.15903651  1
  H+  H21  1  0.88213102  0.64852371  1.00147964  1
  H+  H22  1  0.36122624  0.47635599  0.82412005  1
  H+  H23  1  0.34646684  0.21254883  0.67059998  1
  H+  H24  1  0.59983813  0.13119830  0.18140234  1
  H+  H25  1  0.35027175  0.37175792  0.49595481  1
  H+  H26  1  0.88099042  0.76487191  0.65926657  1
  H+  H27  1  0.87915629  0.09465522  0.97771472  1
  H+  H28  1  0.13826692  0.53212854  0.98223475  1
  H+  H29  1  0.63004229  0.88878990  0.17057684  1
  H+  H30  1  0.23605256  0.08795769  0.93766933  1
  H+  H31  1  0.39321252  0.86295609  0.32643514  1
  H+  H32  1  0.87599477  0.10611196  0.52266534  1
  H+  H33  1  0.75027849  0.34310778  0.32342116  1
  H+  H34  1  0.78795916  0.11558536  0.18505251  1
  H+  H35  1  0.66016079  0.11263781  0.67347645  1
  H+  H36  1  0.62570950  0.64206423  0.68016393  1
  H+  H37  1  0.88305919  0.72307117  0.15730969  1
  H+  H38  1  -0.00934079  0.59271738  0.34125714  1
  H+  H39  1  0.64094280  1.00532680  0.67236333  1
  H+  H40  1  0.32193408  0.50306190  0.13135079  1
  H+  H41  1  0.09334886  0.19868198  0.04002963  1
  H+  H42  1  0.85278839  0.87701505  0.84050907  1
  H+  H43  1  0.93274161  0.46733945  0.37055254  1
  H+  H44  1  0.62371827  0.48227499  0.14924578  1
  H+  H45  1  0.48195214  0.10835216  0.32667599  1
  H+  H46  1  0.76565422  0.38151145  0.65249871  1
  H+  H47  1  0.64787660  0.10944136  0.99491290  1
  H+  H48  1  0.89597219  -0.00365198  0.17161294  1
  H+  H49  1  0.86950398  0.52595407  0.63450489  1
  H+  H50  1  0.11371889  0.40357480  0.81349104  1
  H+  H51  1  0.33499995  0.44054004  0.08611953  1
  H+  H52  1  0.77062505  0.65060523  0.35210169  1
  H+  H53  1  0.63469507  0.65432446  0.15065474  1
  H+  H54  1  0.48352630  0.85609422  0.17604885  1
  H+  H55  1  0.42239382  0.82817797  0.57398942  1
  H+  H56  1  0.85348478  0.63763261  0.82684235  1
  H+  H57  1  0.12070576  0.73641543  1.00303421  1
  H+  H58  1  0.87384485  0.63803700  0.49306876  1
  H+  H59  1  0.73181008  0.88754928  0.33165286  1
  H+  H60  1  0.61850051  0.85622404  0.51465203  1
  H+  H61  1  0.60266526  0.96894869  0.82711931  1
  H+  H62  1  0.57158874  0.88706215  0.01268573  1
  H+  H63  1  0.63087306  0.42400270  0.33273752  1
  H+  H64  1  0.85735080  0.51813166  0.31435718  1
  H+  H65  1  0.10709960  0.96323591  0.50359630  1
  H+  H66  1  0.82437506  0.67096053  0.76871872  1
  H+  H67  1  0.78213757  0.14260901  -0.01114698  1
  H+  H68  1  0.20873531  0.09179666  0.52240507  1
  H+  H69  1  0.14083770  0.27900621  0.17088311  1
  H+  H70  1  0.60494818  0.36402362  0.00624196  1
  H+  H71  1  0.16782658  0.30222067  0.96360173  1
  H+  H72  1  0.32446538  0.63770406  0.47957230  1
  H+  H73  1  0.73613220  0.11274461  0.83687490  1
  H+  H74  1  0.93735517  0.33495032  0.90427732  1
  H+  H75  1  0.01441503  0.37975006  0.14777439  1
  H+  H76  1  0.61562667  0.88828541  0.34957686  1
  H+  H77  1  0.21415977  0.35258106  0.50693967  1
  H+  H78  1  0.32201842  0.40538709  0.43725388  1
  H+  H79  1  0.07350100  0.58061697  0.34233566  1
  H+  H80  1  1.02952526  0.65385469  0.83539475  1
  H+  H81  1  0.62439537  0.74394909  -0.00109250  1
  H+  H82  1  0.12727480  0.35773034  0.50525484  1
  H+  H83  1  0.11011972  0.16587063  -0.05330572  1
  H+  H84  1  0.87943432  0.63091625  0.15370630  1
  H+  H85  1  0.11664384  0.37840967  0.33255683  1
  H+  H86  1  0.36672180  0.48651827  0.67384451  1
  H+  H87  1  0.08022460  0.41790629  0.05482214  1
  H+  H88  1  0.88521054  0.02103272  0.61965270  1
  H+  H89  1  0.38767762  0.58612363  0.52497991  1
  H+  H90  1  0.12460020  0.39951540  0.99712775  1
  H+  H91  1  0.89212868  0.84745352  0.17166088  1
  H+  H92  1  0.44463839  0.97532025  0.70371499  1
  H+  H93  1  0.03886711  0.89385294  0.33912993  1
  H+  H94  1  0.87863086  0.13724246  0.82135108  1
  H+  H95  1  0.87422018  0.61946561  0.64716962  1
  H+  H96  1  0.77275734  0.12801377  0.34954170  1
  H+  H97  1  0.64009451  0.61906040  0.50966501  1
  H+  H98  1  0.48401317  0.42600896  0.36409590  1
  H+  H99  1  0.28610230  0.89975186  0.33550117  1
  H+  H100  1  0.72814717  0.61986967  0.50800417  1
  H+  H101  1  1.01150095  0.63188957  0.66195027  1
  H+  H102  1  0.87651431  0.34382192  0.64084864  1
  H+  H103  1  0.77232499  0.37947457  0.16085339  1
  H+  H104  1  0.10444411  0.48867686  0.81370482  1
  H+  H105  1  0.88512295  0.26077252  0.16618000  1
  H+  H106  1  0.93464080  0.83451236  0.26543231  1
  H+  H107  1  0.62568706  0.48050142  0.67545575  1
  H+  H108  1  0.35543734  0.22006821  -0.00844864  1
  H+  H109  1  0.10673494  0.47007048  0.49026093  1
  H+  H110  1  0.13811045  0.62092901  0.98293379  1
  H+  H111  1  0.20077585  0.61173367  0.50823004  1
  H+  H112  1  0.39726809  0.21790988  0.18802420  1
  H+  H113  1  0.64833688  0.11574020  0.83925758  1
  H+  H114  1  0.22269073  0.61468898  0.82328661  1
  H+  H115  1  0.02263130  0.94533215  0.74747181  1
  H+  H116  1  0.39234730  1.01862175  0.33251109  1
  H+  H117  1  0.09324720  0.16070349  0.74421150  1
  H+  H118  1  0.12953168  0.51531132  0.16314828  1
  H+  H119  1  0.59512772  0.42077479  0.73529768  1
  H+  H120  1  0.97259332  0.84109485  0.85436690  1
  H+  H121  1  0.27159078  0.65303935  -0.01570159  1
  H+  H122  1  0.39119875  0.84600687  0.17285370  1
  H+  H123  1  0.11478625  1.10122010  0.66952332  1
  H+  H124  1  0.48540112  0.18074902  -0.05473828  1
  H+  H125  1  0.88629400  0.53155122  0.84993975  1
  H+  H126  1  0.70900011  0.35061285  0.51202643  1
  H+  H127  1  0.35676760  0.72847760  0.33274768  1
  H+  H128  1  0.09892336  0.19227590  0.24662511  1
  H+  H129  1  0.25120594  0.38897751  0.98174574  1
  H+  H130  1  0.68407044  0.10970177  0.15284378  1
  H+  H131  1  0.64021749  0.01319955  0.17653507  1
  H+  H132  1  0.83627752  0.06655970  0.31958244  1
  H+  H133  1  0.26456438  0.86987531  0.49062460  1
  H+  H134  1  0.20130267  0.09828792  0.66843304  1
  H+  H135  1  0.59636971  0.21725129  0.49531243  1
  H+  H136  1  0.36502465  0.66339068  -0.01516826  1
  H+  H137  1  0.56341203  0.67221011  0.32340464  1
  H+  H138  1  0.60883761  0.12580598  0.34422822  1
  H+  H139  1  1.02745655  0.37463824  0.33394746  1
  H+  H140  1  0.36253096  0.39587109  0.67271480  1
  H+  H141  1  0.35185606  0.92974504  0.73545931  1
  H+  H142  1  0.37762945  0.08793802  0.17892390  1
  H+  H143  1  0.74137326  0.61787537  0.66597572  1
  H+  H144  1  0.75092193  0.10651876  0.66747473  1
  H+  H145  1  0.88763461  0.98606571  0.33851204  1
  H+  H146  1  0.72821341  0.86015040  0.65283152  1
  H+  H147  1  0.96317780  0.86009226  0.66347196  1
  H+  H148  1  0.34693455  0.73289062  0.49571289  1
  H+  H149  1  0.39343647  0.10659307  0.82865267  1
  H+  H150  1  0.12110983  0.75767887  0.65407809  1
  H+  H151  1  0.72199145  0.35300346  0.85218974  1
  H+  H152  1  0.41282159  0.53384422  0.19485580  1
  H+  H153  1  0.78641120  0.87832884  0.00009102  1
  H+  H154  1  0.45941220  0.61224295  0.36017995  1
  H+  H155  1  0.12306370  0.79118051  0.84131084  1
  H+  H156  1  0.71455439  0.60712274  0.84123748  1
  H+  H157  1  0.85325132  0.39032051  0.49972310  1
  H+  H158  1  0.08593998  0.41320527  0.42887369  1
  H+  H159  1  0.64451114  0.25927101  0.00120681  1
  H+  H160  1  0.45723271  0.87647149  0.96349587  1
  H+  H161  1  0.39452574  0.59775573  1.03735717  1
  H+  H162  1  0.52267738  0.88543268  0.66337388  1
  H+  H163  1  0.34317676  0.87253493  0.81165640  1
  H+  H164  1  0.89436359  0.51426471  0.16908293  1
  H+  H165  1  0.14502230  0.11397231  0.19340391  1
  H+  H166  1  0.88536420  0.85909080  0.99647658  1
  H+  H167  1  0.40800304  0.86411551  0.65522365  1
  H+  H168  1  0.35031725  0.12317796  0.49317855  1
  H+  H169  1  0.45964436  0.85763392  0.82518525  1
  H+  H170  1  0.09541197  0.37096542  0.66657180  1
  H+  H171  1  0.31256752  0.67551239  0.39262621  1
  H+  H172  1  0.21726249  0.83282026  0.65044816  1
  H+  H173  1  0.38305933  0.14028173  0.33817242  1
  H+  H174  1  0.64157389  0.02924928  0.51152641  1
  H+  H175  1  0.10215418  0.63968914  0.67686873  1
  H+  H176  1  1.02885161  0.10942256  0.83317146  1
  H+  H177  1  0.48382480  0.63854357  0.00331461  1
  H+  H178  1  0.63334866  0.26443799  0.84364790  1
  H+  H179  1  0.27123917  0.86785220  0.15406655  1
  H+  H180  1  0.84961022  0.40471045  0.40744604  1
  H+  H181  1  0.84326724  0.93090611  0.70698317  1
  H+  H182  1  0.37352307  0.26012158  0.51355308  1
  H+  H183  1  0.22333992  0.37222991  0.15511684  1
  H+  H184  1  0.47574499  0.36417868  0.83608281  1
  H+  H185  1  0.40893814  0.22221462  0.37866486  1
  H+  H186  1  0.13807177  0.76412398  0.35300876  1
  H+  H187  1  0.38043528  0.28025658  0.30655644  1
  H+  H188  1  0.64011924  0.76980083  0.66544426  1
  H+  H189  1  0.43609591  0.11487871  0.63912253  1
  H+  H190  1  0.61230397  0.47317835  0.83080027  1
  H+  H191  1  0.92912218  0.92502163  0.34278856  1
  H+  H192  1  0.37464489  0.61147731  0.83006267  1
  H+  H193  1  0.62925732  0.40618465  0.36385475  1
  H+  H194  1  0.53617634  0.13236921  0.01216996  1
  H+  H195  1  0.85509226  0.64346335  0.33833919  1
  H+  H196  1  0.63507791  0.35761478  0.66238620  1
  H+  H197  1  0.52557895  0.12693463  0.82380667  1
  H+  H198  1  0.37664862  0.39423864  -0.00289080  1
  H+  H199  1  0.77712346  0.87273825  0.16467711  1
  H+  H200  1  0.86394550  0.21765529  0.65816922  1
  H+  H201  1  0.61069996  0.92113890  0.10772336  1
  H+  H202  1  0.96676328  0.34558184  0.64916080  1
  H+  H203  1  0.87646494  0.76121591  0.84721899  1
  H+  H204  1  0.13321386  0.51018698  0.31864832  1
  H+  H205  1  0.37643944  0.31773796  0.14742802  1
  H+  H206  1  0.22394835  0.87157333  -0.00909797  1
  H+  H207  1  0.00999878  0.06522108  0.37656226  1
  H+  H208  1  0.54671202  0.64539791  0.17090114  1
  H+  H209  1  -0.01401549  0.85839852  0.16782104  1
  H+  H210  1  0.13110327  0.85049199  0.50398098  1
  H+  H211  1  0.39365064  0.19867036  0.11848122  1
  H+  H212  1  0.51064410  0.12373502  0.16936789  1
  H+  H213  1  0.84171604  0.87619117  0.48702314  1
  H+  H214  1  0.06405758  0.14701017  0.44653117  1
  H+  H215  1  0.10725382  0.59499478  0.51369179  1
  H+  H216  1  0.38511634  0.36279423  0.83453467  1
  H+  H217  1  0.37565425  0.64944766  0.66857701  1
  H+  H218  1  0.12025007  0.65842343  0.83282192  1
  H+  H219  1  0.00718445  0.13181540  0.51466427  1
  H+  H220  1  0.37221773  0.78357792  0.97329761  1
  H+  H221  1  0.11791197  0.88963684  0.00349623  1
  H+  H222  1  0.34672914  0.47248465  0.34961045  1
  H+  H223  1  0.11216612  0.22101192  0.68596746  1
  H+  H224  1  0.35185552  0.96104482  0.48840226  1
  H+  H225  1  0.33042674  0.11756658  0.66357223  1
  H+  H226  1  0.47279238  0.35122433  0.98802896  1
  H+  H227  1  0.61080273  0.38263963  0.83120153  1
  H+  H228  1  0.10491644  0.38336411  0.14595983  1
  H+  H229  1  0.11803632  0.97625307  0.15626774  1
  H+  H230  1  0.23214748  0.11578029  0.17641996  1
  H+  H231  1  0.12500949  0.13390326  0.95161868  1
  H+  H232  1  0.90337677  0.27349170  0.82992650  1
  H+  H233  1  0.64174608  0.50816096  -0.00697821  1
  H+  H234  1  0.22530512  0.38048545  0.82334671  1
  H+  H235  1  0.39022425  0.40858783  0.16031485  1
  H+  H236  1  -0.03406987  0.10326969  -0.00434840  1
  H+  H237  1  0.52407992  0.62970387  0.49099572  1
  H+  H238  1  0.37154890  0.22144577  0.82250681  1
  H+  H239  1  0.37704573  0.61796722  0.33973580  1
  H+  H240  1  0.83241626  0.89565464  0.10174721  1
  H+  H241  1  0.16420446  0.75451104  0.33104633  1
  H+  H242  1  0.99631371  0.36833812  0.97689054  1
  H+  H243  1  -0.02956369  0.37116203  0.49506652  1
  H+  H244  1  0.13697532  0.85975196  0.15945295  1
  H+  H245  1  0.22054164  0.36362430  0.66134497  1
  H+  H246  1  0.38443799  0.48921614  -0.00217025  1
  H+  H247  1  0.87051428  0.74238050  0.49485372  1
  H+  H248  1  0.35476336  0.72043798  0.81652234  1
  H+  H249  1  0.63385314  1.01587233  0.33793944  1
  H+  H250  1  0.76015683  0.39690774  0.00856572  1
  H+  H251  1  0.46297655  0.10152533  0.49820556  1
  H+  H252  1  0.61916635  0.76007896  0.51031627  1
  H+  H253  1  0.86242618  0.88213178  0.65443961  1
  H+  H254  1  0.89989503  0.54151292  0.99301357  1
  H+  H255  1  0.89655289  0.08610937  0.17241490  1
  H+  H256  1  0.36733951  0.64317593  0.15457927  1
  H+  H257  1  -0.03304960  0.62155263  0.49626261  1
  H+  H258  1  0.86877284  0.38242247  0.84158567  1
  H+  H259  1  0.21222135  0.60672987  0.31948568  1
  H+  H260  1  0.64497152  0.98500261  0.00630073  1
  H+  H261  1  0.60087270  0.62633498  0.82888847  1
  H+  H262  1  0.63369665  0.23278634  0.67293629  1
  H+  H263  1  0.88862857  1.01847999  0.83408615  1
  H+  H264  1  0.33411322  0.42086881  0.76308803  1
  H+  H265  1  -0.08951759  0.82115580  -0.07029301  1
  H+  H266  1  0.61808178  0.21797062  0.33835014  1
  H+  H267  1  0.63640812  0.36183242  0.17377513  1
  H+  H268  1  0.68144701  0.88069283  -0.02434905  1
  H+  H269  1  0.86881683  0.13109282  0.64947253  1
  H+  H270  1  0.09022479  0.97504844  0.69609225  1
  H+  H271  1  0.34739046  0.38590528  0.33889549  1
  H+  H272  1  0.55879939  0.13634940  0.66981461  1
  H+  H273  1  0.15876772  0.84501954  0.93273428  1
  H+  H274  1  0.77756779  0.12957990  0.49921275  1
  H+  H275  1  0.12193592  0.98800423  0.34772272  1
  H+  H276  1  0.90388786  0.27479532  -0.02833214  1
  H+  H277  1  0.34953644  0.89680060  0.99458035  1
  H+  H278  1  0.97487445  0.85927607  0.50604214  1
  H+  H279  1  0.24353956  0.12827062  0.33572753  1
  H+  H280  1  0.38701710  0.50063418  0.50885541  1
  H+  H281  1  0.11618114  0.72185825  0.15872188  1
  H+  H282  1  0.12093212  0.63458206  0.15522009  1
  H+  H283  1  0.98511504  0.60452697  0.16863000  1
  H+  H284  1  0.40864065  0.32739481  0.72040653  1
  H+  H285  1  0.90852938  0.69517663  0.70930719  1
  H+  H286  1  0.14904686  0.00668145  0.95722787  1
  H+  H287  1  0.21737353  0.35368383  0.31969125  1
  H+  H288  1  0.42562726  0.83184421  0.26809131  1
  H+  H289  1  0.03444433  0.13248000  0.08751010  1
  H+  H290  1  0.56107008  0.50655742  0.39188834  1
  H+  H291  1  0.41178775  0.06357306  0.23861218  1
  H+  H292  1  0.41455669  0.32917234  0.92736991  1
  H+  H293  1  0.64692602  0.56398972  0.31643385  1
  H+  H294  1  0.23757009  0.63943783  0.66529420  1
  H+  H295  1  0.68902787  0.59369319  0.21159969  1
  H+  H296  1  0.16395023  0.57232020  0.22359396  1
  H+  H297  1  0.58597862  0.67563626  0.43274601  1
  H+  H298  1  0.68078562  0.59145837  0.60737872  1
  H+  H299  1  0.18409493  0.09349759  0.27730489  1
  H+  H300  1  0.57533648  0.91426912  0.76665049  1
  H+  H301  1  0.14369567  0.05698526  0.57846366  1
  H+  H302  1  0.91359766  0.82876703  0.56549599  1
  H+  H303  1  0.06422289  0.41160158  0.71745430  1
  H+  H304  1  0.85023444  0.67157900  0.06358400  1
  H+  H305  1  0.63059975  0.27016176  0.17484861  1
  H+  H306  1  0.58588410  0.15171413  0.07613051  1
  H+  H307  1  0.11069042  0.12541055  0.36760632  1
  H+  H308  1  0.33226456  0.90701091  0.40037006  1
  H+  H309  1  0.08957628  0.92453537  0.09261980  1
  H+  H310  1  0.88447556  0.76128426  -0.00277530  1
  H+  H311  1  0.16638745  0.58854974  0.88420067  1
  H+  H312  1  0.90491217  0.57836668  0.25810292  1
  H+  H313  1  0.29057767  0.13843752  0.03241422  1
  H+  H314  1  0.30784284  0.15354729  0.44317283  1
  H+  H315  1  0.24121234  0.96605446  0.27370499  1
  H+  H316  1  0.58203641  0.91102712  0.44521379  1
  H+  H317  1  0.40220116  0.34875049  0.25309120  1
  H+  H318  1  0.08449507  0.91285523  0.43938953  1
  H+  H319  1  0.17615862  0.37221926  0.88377721  1
  H+  H320  1  0.89890550  0.34341031  0.32869147  1
  H+  H321  1  0.67619368  0.08448543  0.93059347  1
  H+  H322  1  0.85498075  0.92772867  0.42854619  1
  H+  H323  1  0.57324630  0.16135761  0.43393209  1
  H+  H324  1  0.67749541  0.84024491  0.24344788  1
  H+  H325  1  0.12680240  0.05277044  0.86357730  1
  H+  H326  1  0.39346157  0.06440804  0.55298345  1
  H+  H327  1  0.48710848  0.36890927  0.67682187  1
  H+  H328  1  0.66019717  0.57206923  0.90245773  1
  H+  H329  1  0.33438065  0.15811239  0.76549511  1
  H+  H330  1  0.09476558  0.67436163  0.06232548  1
  H+  H331  1  0.78040563  0.48033591  0.04267836  1
  H+  H332  1  0.34960085  0.96360184  0.81756413  1
  H+  H333  1  0.72924253  0.59853047  0.99300132  1
  H+  H334  1  0.40322961  0.58711144  0.89226937  1
  H+  H335  1  0.85070024  0.16616552  0.76146627  1
  H+  H336  1  0.40435007  0.12327467  0.98312141  1
  H+  H337  1  0.84231261  0.14709642  0.44413047  1
  H+  H338  1  0.66571752  0.07514659  0.27830904  1
  H+  H339  1  0.86225087  0.03105931  0.26075277  1
  H+  H340  1  0.58886184  0.66746628  0.73917648  1
  H+  H341  1  0.57712269  0.40115874  0.06285513  1
  H+  H342  1  0.38676259  0.74428978  0.66720698  1
  H+  H343  1  0.92189761  0.07525827  0.89287883  1
  H+  H344  1  0.59221849  0.69832052  0.06444930  1
  H+  H345  1  0.40201113  0.32165123  0.57086803  1
  H+  H346  1  0.52480283  0.88461892  0.34821019  1
  H+  H347  1  0.91114317  0.32945021  0.55273917  1
  H+  H348  1  0.09951173  0.71740740  0.48682216  1
  H+  H349  1  0.65025057  0.81934830  0.57836295  1
  H+  H350  1  0.33410134  0.66602047  0.75601923  1
  H+  H351  1  0.61173695  0.47496450  0.50788040  1
  H+  H352  1  0.90235216  0.59432055  0.55730471  1
  H+  H353  1  0.44255339  0.58353506  0.25715275  1
  H+  H354  1  0.85753833  0.18443168  0.03845917  1
  H+  H355  1  0.83943412  0.47205351  0.49370933  1
  H+  H356  1  0.16671938  0.59092971  0.61501623  1
  H+  H357  1  0.64662020  0.77883136  0.18335946  1
  H+  H358  1  0.83889711  0.68208340  0.43076873  1
  H+  H359  1  0.68795423  0.32661714  0.26762258  1
  H+  H360  1  0.17354268  0.84743669  0.22133076  1
  H+  H361  1  0.83530580  0.42295174  0.79414718  1
  H+  H362  1  0.42055430  0.07230513  0.88672473  1
  H+  H363  1  0.15844539  0.32381495  0.60432609  1
  H+  H364  1  0.03158938  0.89350710  0.00183594  1
  H+  H365  1  0.84615089  0.42570260  0.69670398  1
  H+  H366  1  0.08646229  0.88674384  0.78844978  1
  H+  H367  1  0.92234259  0.60225877  0.90031686  1
  H+  H368  1  0.82757731  0.41538624  0.10082876  1
  H+  H369  1  0.65391312  0.32165253  0.59923307  1
  H+  H370  1  0.91750313  0.31460581  0.26402179  1
  H+  H371  1  0.02809003  0.12543971  0.20102806  1
  H+  H372  1  0.17033005  0.34361798  0.25644858  1
  H+  H373  1  0.16002256  0.81436801  0.56068569  1
  H+  H374  1  0.32305692  0.91017995  0.06039309  1
  H+  H375  1  0.49096408  0.61731069  0.66835187  1
  H+  H376  1  0.26629237  0.59063321  0.15056379  1
  H+  H377  1  0.39281363  0.82795325  0.88023055  1
  H+  H378  1  0.66154721  0.31382226  0.93833123  1
  H+  H379  1  0.59513473  0.16717742  0.76991814  1
  H+  H380  1  0.72430396  0.86011726  0.91715177  1
  H+  H381  1  0.81136581  0.11093977  0.11885639  1
  H+  H382  1  0.43589772  0.57929176  0.60780477  1
  H+  H383  1  0.05845996  0.63964697  0.43472673  1
  O2-  O384  1  0.09113636  0.16844944  0.20540225  1
  O2-  O385  1  0.06611562  0.16303282  0.49384815  1
  O2-  O386  1  0.09086787  0.12820509  0.82549288  1
  O2-  O387  1  0.07375194  0.41280176  0.13068946  1
  O2-  O388  1  0.08136939  0.41031662  0.47416049  1
  O2-  O389  1  0.07416894  0.42638067  0.80057748  1
  O2-  O390  1  0.08725047  0.66226839  0.14176072  1
  O2-  O391  1  0.06010248  0.65404906  0.47866231  1
  O2-  O392  1  0.09165279  0.69267687  0.83959378  1
  O2-  O393  1  0.08755672  0.91801095  0.13827688  1
  O2-  O394  1  0.07776006  0.90355064  0.48392694  1
  O2-  O395  1  0.07154128  0.86421290  0.83069283  1
  O2-  O396  1  0.35896088  0.18225043  0.15555010  1
  O2-  O397  1  0.31925955  0.15642882  0.48681573  1
  O2-  O398  1  0.35166794  0.16215740  0.80860440  1
  O2-  O399  1  0.32626508  0.44907085  0.13014711  1
  O2-  O400  1  0.32227676  0.40513698  0.48287379  1
  O2-  O401  1  0.33415598  0.41609268  0.80847873  1
  O2-  O402  1  0.32011960  0.59430170  0.13407804  1
  O2-  O403  1  0.30432908  0.67802483  0.47291247  1
  O2-  O404  1  0.32700417  0.65937080  0.80176320  1
  O2-  O405  1  0.33241095  0.89520621  0.14071385  1
  O2-  O406  1  0.32578067  0.89968743  0.47587853  1
  O2-  O407  1  0.31882914  0.90803953  0.79554481  1
  O2-  O408  1  0.57317830  0.15835985  0.15796995  1
  O2-  O409  1  0.56704996  0.15721669  0.47909100  1
  O2-  O410  1  0.58905143  0.16307012  0.81483678  1
  O2-  O411  1  0.58576099  0.41954785  0.14135858  1
  O2-  O412  1  0.58387762  0.41300703  0.49839738  1
  O2-  O413  1  0.58299158  0.41305395  0.81292456  1
  O2-  O414  1  0.60018693  0.68307145  0.14734136  1
  O2-  O415  1  0.58420649  0.67045961  0.47868230  1
  O2-  O416  1  0.57605783  0.65883181  0.80955458  1
  O2-  O417  1  0.60144796  0.91993702  0.15223080  1
  O2-  O418  1  0.58077573  0.90879697  0.49071079  1
  O2-  O419  1  0.56305884  0.91158546  0.81077153  1
  O2-  O420  1  0.83793649  0.13923615  0.15710627  1
  O2-  O421  1  0.83855541  0.14703055  0.48898812  1
  O2-  O422  1  0.85101482  0.17064898  0.80641021  1
  O2-  O423  1  0.83254201  0.40665089  0.14504367  1
  O2-  O424  1  0.81302568  0.41075410  0.48362230  1
  O2-  O425  1  0.83417365  0.41193136  0.83749253  1
  O2-  O426  1  0.85175150  0.66407041  0.13831783  1
  O2-  O427  1  0.83839888  0.67877771  0.47699837  1
  O2-  O428  1  0.82242959  0.66853156  0.81437513  1
  O2-  O429  1  0.83622939  0.89581048  0.14699202  1
  O2-  O430  1  0.81167683  0.89591440  0.46014951  1
  O2-  O431  1  0.83058559  0.91181841  0.82079856  1
  O2-  O432  1  0.17620837  0.08082442  0.19604062  1
  O2-  O433  1  0.14816075  0.05426477  0.53331699  1
  O2-  O434  1  0.08698542  0.04469831  0.82870786  1
  O2-  O435  1  0.16429203  0.34169269  0.17245362  1
  O2-  O436  1  0.15375575  0.32404536  0.52208019  1
  O2-  O437  1  0.16738325  0.36388030  0.83961609  1
  O2-  O438  1  0.16856659  0.57488568  0.17812888  1
  O2-  O439  1  0.14392785  0.57054976  0.52548848  1
  O2-  O440  1  0.16222986  0.58806871  0.83903691  1
  O2-  O441  1  0.16516190  0.82930265  0.17794756  1
  O2-  O442  1  0.16010591  0.81677723  0.51430981  1
  O2-  O443  1  0.14299379  0.85398669  0.85173037  1
  O2-  O444  1  0.40983650  0.06017075  0.19258330  1
  O2-  O445  1  0.39953452  0.06861235  0.50790516  1
  O2-  O446  1  0.42059446  0.07110303  0.84193489  1
  O2-  O447  1  0.41292523  0.36975242  0.17075771  1
  O2-  O448  1  0.40231229  0.32168649  0.52654683  1
  O2-  O449  1  0.41464808  0.33166252  0.84996980  1
  O2-  O450  1  0.46304784  0.57743179  0.21651138  1
  O2-  O451  1  0.42434526  0.56085248  0.52617933  1
  O2-  O452  1  0.40370276  0.58037867  0.84829437  1
  O2-  O453  1  0.42499081  0.82292624  0.19274094  1
  O2-  O454  1  0.41348068  0.82284693  0.52617647  1
  O2-  O455  1  0.39638610  0.82292594  0.83528116  1
  O2-  O456  1  0.66967337  0.07653966  0.19050488  1
  O2-  O457  1  0.67468241  0.09151379  0.51904383  1
  O2-  O458  1  0.67815711  0.08565478  0.85555007  1
  O2-  O459  1  0.66728430  0.33149781  0.18640649  1
  O2-  O460  1  0.64902716  0.31845135  0.52842442  1
  O2-  O461  1  0.66006244  0.32282655  0.86296211  1
  O2-  O462  1  0.68734419  0.59088458  0.16735050  1
  O2-  O463  1  0.67067239  0.59068206  0.52719680  1
  O2-  O464  1  0.65496108  0.57140217  0.85673250  1
  O2-  O465  1  0.67957684  0.84004792  0.19755221  1
  O2-  O466  1  0.64331642  0.81877572  0.53115189  1
  O2-  O467  1  0.75022943  0.88792464  0.85044843  1
  O2-  O468  1  0.92517818  0.05602915  0.18942711  1
  O2-  O469  1  0.91189717  0.07743450  0.54064169  1
  O2-  O470  1  0.92425281  0.07977378  0.84776323  1
  O2-  O471  1  0.91350468  0.32066505  0.18032009  1
  O2-  O472  1  0.91194663  0.35083159  0.51105797  1
  O2-  O473  1  0.93040528  0.33404630  0.84666542  1
  O2-  O474  1  0.92350910  0.57545563  0.18259517  1
  O2-  O475  1  0.90355027  0.59604130  0.50945135  1
  O2-  O476  1  0.91194042  0.59388055  0.85552941  1
  O2-  O477  1  0.92746150  0.82198803  0.18582165  1
  O2-  O478  1  0.91324931  0.82783921  0.51978699  1
  O2-  O479  1  0.91178085  0.82011165  0.86697849  1
  O2-  O480  1  0.18334278  0.09675433  0.32242012  1
  O2-  O481  1  0.14026175  0.06457036  0.65580009  1
  O2-  O482  1  0.18068731  0.04313682  0.92215307  1
  O2-  O483  1  0.16019298  0.32433514  0.29922093  1
  O2-  O484  1  0.15964274  0.32604907  0.64943905  1
  O2-  O485  1  0.19019736  0.36384323  0.96681293  1
  O2-  O486  1  0.15326416  0.56988892  0.30299120  1
  O2-  O487  1  0.17490095  0.60975355  0.65760379  1
  O2-  O488  1  0.16698048  0.59079851  0.96481444  1
  O2-  O489  1  0.20835570  0.90765412  0.28918806  1
  O2-  O490  1  0.16080130  0.81522641  0.63382020  1
  O2-  O491  1  0.16098620  0.83781769  0.97742644  1
  O2-  O492  1  0.41951648  0.07746320  0.31308350  1
  O2-  O493  1  0.37918149  0.06700812  0.63033677  1
  O2-  O494  1  0.45588697  0.12470677  0.96507363  1
  O2-  O495  1  0.39878836  0.34050251  0.29760209  1
  O2-  O496  1  0.42200726  0.33601412  0.67700375  1
  O2-  O497  1  0.41215810  0.32608455  0.97320032  1
  O2-  O498  1  0.40914444  0.58580576  0.33337482  1
  O2-  O499  1  0.43053860  0.58698509  0.65179355  1
  O2-  O500  1  0.41856273  0.59838268  0.99729857  1
  O2-  O501  1  0.42331746  0.83147670  0.31405372  1
  O2-  O502  1  0.44075396  0.83743486  0.64054581  1
  O2-  O503  1  0.39587500  0.84493024  0.95595376  1
  O2-  O504  1  0.66415202  0.07726168  0.32280803  1
  O2-  O505  1  0.68318221  0.07464414  0.66135752  1
  O2-  O506  1  0.68166960  0.08465052  0.97657247  1
  O2-  O507  1  0.69003020  0.31509715  0.31135119  1
  O2-  O508  1  0.66231701  0.32498225  0.64568446  1
  O2-  O509  1  0.66549862  0.31770636  0.98404661  1
  O2-  O510  1  0.66831323  0.59956167  0.35256175  1
  O2-  O511  1  0.68059125  0.58702145  0.65270817  1
  O2-  O512  1  0.67031386  0.56749209  0.97715157  1
  O2-  O513  1  0.67274849  0.84691912  0.31956711  1
  O2-  O514  1  0.66464560  0.82784218  0.64510512  1
  O2-  O515  1  0.70584772  0.84507148  0.96227883  1
  O2-  O516  1  0.82935317  0.01368048  0.29907962  1
  O2-  O517  1  0.91186278  0.08247430  0.60729968  1
  O2-  O518  1  0.91316824  0.06565482  0.97209896  1
  O2-  O519  1  0.92238522  0.30971411  0.30858148  1
  O2-  O520  1  0.90517043  0.31052887  0.63206480  1
  O2-  O521  1  0.93680883  0.33566202  0.95648468  1
  O2-  O522  1  0.89422903  0.57836391  0.30296513  1
  O2-  O523  1  0.89987804  0.58754109  0.62324657  1
  O2-  O524  1  0.93333154  0.60085416  0.97737431  1
  O2-  O525  1  0.93868369  0.84100473  0.31048442  1
  O2-  O526  1  0.90794803  0.82723889  0.64138857  1
  O2-  O527  1  0.91368681  0.82459823  0.97909435  1
  O2-  O528  1  0.03462024  0.16971087  0.05520406  1
  O2-  O529  1  0.05988528  0.12496577  0.38464005  1
  O2-  O530  1  0.08206939  0.16077889  0.70028989  1
  O2-  O531  1  0.08522687  0.42105464  0.00902129  1
  O2-  O532  1  0.08779296  0.41007485  0.34865456  1
  O2-  O533  1  0.05843397  0.39665414  0.67388770  1
  O2-  O534  1  0.09280489  0.67491055  0.01690668  1
  O2-  O535  1  0.02618520  0.57816690  0.36773196  1
  O2-  O536  1  0.06482830  0.66526266  0.68505773  1
  O2-  O537  1  0.09107787  0.92546160  0.01665255  1
  O2-  O538  1  0.09819105  0.92609101  0.35705866  1
  O2-  O539  1  0.05021183  0.92266061  0.72097060  1
  O2-  O540  1  0.33043559  0.15652184  -0.00156739  1
  O2-  O541  1  0.36261150  0.18057676  0.35282246  1
  O2-  O542  1  0.31084213  0.15335009  0.68535464  1
  O2-  O543  1  0.34883354  0.42790490  0.01074998  1
  O2-  O544  1  0.31429925  0.40996970  0.35876339  1
  O2-  O545  1  0.33037366  0.42424611  0.68584946  1
  O2-  O546  1  0.33283191  0.69234297  -0.00394617  1
  O2-  O547  1  0.31993318  0.66807651  0.34861667  1
  O2-  O548  1  0.34882697  0.68253163  0.68302764  1
  O2-  O549  1  0.31848562  0.92114125  0.01668253  1
  O2-  O550  1  0.34215903  0.91696979  0.35511468  1
  O2-  O551  1  0.38436723  0.94922005  0.69236112  1
  O2-  O552  1  0.59373184  0.15338425  0.03130878  1
  O2-  O553  1  0.57864332  0.15847902  0.35429733  1
  O2-  O554  1  0.61305853  0.17271236  0.69029231  1
  O2-  O555  1  0.57464593  0.39572676  0.01768361  1
  O2-  O556  1  0.49976494  0.46587854  0.39820249  1
  O2-  O557  1  0.59309363  0.41916573  0.68964824  1
  O2-  O558  1  0.57818610  0.69448633  0.02073548  1
  O2-  O559  1  0.60200181  0.69183460  0.35825373  1
  O2-  O560  1  0.59329762  0.67100849  0.69253147  1
  O2-  O561  1  0.62968097  0.92833561  0.02559330  1
  O2-  O562  1  0.58375960  0.91676968  0.36610837  1
  O2-  O563  1  0.58824799  0.92169594  0.68442712  1
  O2-  O564  1  0.84727520  0.17386516  -0.00498499  1
  O2-  O565  1  0.83386832  0.14714124  0.35854938  1
  O2-  O566  1  0.84145269  0.15695257  0.67511729  1
  O2-  O567  1  0.80822924  0.44831274  0.02963157  1
  O2-  O568  1  0.87549960  0.41482327  0.36594460  1
  O2-  O569  1  0.83074806  0.41589549  0.65399323  1
  O2-  O570  1  0.84707428  0.67398844  0.01791724  1
  O2-  O571  1  0.83569413  0.68079680  0.35749104  1
  O2-  O572  1  0.85419916  0.67820389  0.68876781  1
  O2-  O573  1  0.84493564  0.90580626  0.02252881  1
  O2-  O574  1  0.92676361  0.97288783  0.36343345  1
  O2-  O575  1  0.83581477  0.91969062  0.66326022  1
