# generated using pymatgen
data_H2O
_symmetry_space_group_name_H-M   'P 1'
_cell_length_a   17.99384679
_cell_length_b   17.99397861
_cell_length_c   22.01529606
_cell_angle_alpha   89.99629038
_cell_angle_beta   90.02465203
_cell_angle_gamma   119.99190732
_symmetry_Int_Tables_number   1
_chemical_formula_structural   H2O
_chemical_formula_sum   'H384 O192'
_cell_volume   6173.64628325
_cell_formula_units_Z   192
loop_
 _symmetry_equiv_pos_site_id
 _symmetry_equiv_pos_as_xyz
  1  'x, y, z'
loop_
 _atom_type_symbol
 _atom_type_oxidation_number
  H+  1.0
  O2-  -2.0
loop_
 _atom_site_type_symbol
 _atom_site_label
 _atom_site_symmetry_multiplicity
 _atom_site_fract_x
 _atom_site_fract_y
 _atom_site_fract_z
 _atom_site_occupancy
  H+  H0  1  0.83746433  0.16718704  0.50775271  1
  H+  H1  1  0.47798518  0.35785129  0.99659353  1
  H+  H2  1  0.03084031  0.89008549  0.66736277  1
  H+  H3  1  0.11203292  -0.03038590  0.82681225  1
  H+  H4  1  0.85888847  0.93812685  0.82042857  1
  H+  H5  1  0.63141106  0.86429760  0.33206404  1
  H+  H6  1  0.86079717  0.61461639  0.65520110  1
  H+  H7  1  0.62894475  0.35835215  -0.00148209  1
  H+  H8  1  0.88937191  0.78533345  0.50365089  1
  H+  H9  1  0.90621195  0.56235674  0.25591386  1
  H+  H10  1  0.37454767  0.26177122  0.32933320  1
  H+  H11  1  0.77376387  0.64821064  0.49382459  1
  H+  H12  1  0.38587375  0.52882939  0.49326544  1
  H+  H13  1  0.31655607  0.65923624  0.06683643  1
  H+  H14  1  0.11858533  0.13370613  0.16871860  1
  H+  H15  1  0.39748868  -0.00854428  0.47007996  1
  H+  H16  1  0.12178791  0.63574501  0.65674212  1
  H+  H17  1  0.01568021  0.15642158  0.34668191  1
  H+  H18  1  0.89233978  0.85981378  0.65514648  1
  H+  H19  1  0.49629367  0.38773953  0.48510878  1
  H+  H20  1  0.35198965  0.72053553  0.66620088  1
  H+  H21  1  0.62917399  0.40222993  0.67691652  1
  H+  H22  1  0.63421332  0.10958886  0.33866410  1
  H+  H23  1  0.38725472  0.62667256  0.33402153  1
  H+  H24  1  0.89257132  0.74858824  0.20346059  1
  H+  H25  1  0.51696313  0.38551971  0.34308683  1
  H+  H26  1  0.12563973  0.54831093  0.35841879  1
  H+  H27  1  0.78250837  0.10298493  0.18152177  1
  H+  H28  1  0.81174417  0.60164297  0.78900734  1
  H+  H29  1  0.09725029  0.63810835  0.10924673  1
  H+  H30  1  0.97749561  0.10236364  0.64500992  1
  H+  H31  1  0.61533781  0.48707926  0.83315919  1
  H+  H32  1  0.11493831  0.13982336  0.66464785  1
  H+  H33  1  0.11212795  0.37790613  0.81627667  1
  H+  H34  1  0.61462174  0.89685382  0.16368164  1
  H+  H35  1  0.64403544  0.75124054  0.17799340  1
  H+  H36  1  0.97455553  0.36731060  0.64802583  1
  H+  H37  1  0.85543908  0.36584828  0.16660707  1
  H+  H38  1  0.35953334  0.38581689  0.82719371  1
  H+  H39  1  0.13084999  0.52602245  0.64541038  1
  H+  H40  1  0.90049795  0.06158922  0.86098883  1
  H+  H41  1  0.03293130  0.05991185  0.45551552  1
  H+  H42  1  0.61421702  0.88348700  0.51231421  1
  H+  H43  1  0.35381587  0.96325219  0.68823390  1
  H+  H44  1  0.86256454  0.34628760  0.99373520  1
  H+  H45  1  0.12536015  0.07834898  0.39970027  1
  H+  H46  1  0.48373164  0.14106660  0.48730215  1
  H+  H47  1  0.60936812  -0.04164913  0.82203614  1
  H+  H48  1  0.34850351  0.62962920  0.66123896  1
  H+  H49  1  0.98547612  0.10652188  0.17822029  1
  H+  H50  1  0.38519135  0.52141791  -0.00098047  1
  H+  H51  1  0.52466284  0.88802221  0.33746316  1
  H+  H52  1  0.77851496  0.13507862  1.03377820  1
  H+  H53  1  0.87611532  0.88776586  0.50469956  1
  H+  H54  1  0.14273245  0.99574623  0.51527400  1
  H+  H55  1  0.27250519  0.86841422  0.83375387  1
  H+  H56  1  0.05944431  0.71934074  0.34802918  1
  H+  H57  1  0.36015746  -0.03733386  0.98642091  1
  H+  H58  1  0.69312417  0.11870678  0.86745967  1
  H+  H59  1  0.87812497  0.12560494  0.17670930  1
  H+  H60  1  0.38473921  0.03653753  0.16228156  1
  H+  H61  1  0.89594376  0.77138058  0.65148435  1
  H+  H62  1  0.22571427  0.60255911  0.19399469  1
  H+  H63  1  0.92263953  0.05081136  0.58631187  1
  H+  H64  1  0.12876761  0.13356244  0.82127773  1
  H+  H65  1  0.47230147  0.85053024  0.99486197  1
  H+  H66  1  0.10460689  0.57661981  0.15708274  1
  H+  H67  1  0.42883146  0.36171078  0.53806806  1
  H+  H68  1  0.70789489  0.84663971  0.84792698  1
  H+  H69  1  -0.02095359  0.56837997  0.16464336  1
  H+  H70  1  0.18004415  0.33546091  0.09845358  1
  H+  H71  1  0.02625784  0.38361575  0.81798544  1
  H+  H72  1  0.33176147  0.01594165  0.60327785  1
  H+  H73  1  0.14732107  0.11015262  0.49622712  1
  H+  H74  1  0.38342768  0.24289322  0.48188077  1
  H+  H75  1  0.22579294  0.85580843  0.68169759  1
  H+  H76  1  1.00754896  0.62637893  0.98356713  1
  H+  H77  1  0.74673510  0.38982791  0.84790051  1
  H+  H78  1  0.60354033  0.43380193  0.73794707  1
  H+  H79  1  0.16627961  0.34785198  0.56497132  1
  H+  H80  1  0.35866304  0.64448642  0.16667314  1
  H+  H81  1  0.86601823  0.14060077  0.34276767  1
  H+  H82  1  0.36311293  0.09664948  0.64948233  1
  H+  H83  1  0.35870575  0.47400391  0.83099919  1
  H+  H84  1  0.20967700  0.90004629  0.24055078  1
  H+  H85  1  0.50545543  0.12876907  0.63769087  1
  H+  H86  1  0.88293386  0.26271323  0.18950947  1
  H+  H87  1  0.96843359  0.85511103  0.99280793  1
  H+  H88  1  0.84500432  0.45840656  0.01382155  1
  H+  H89  1  0.64081833  0.11260398  1.00283277  1
  H+  H90  1  0.41895785  0.33434639  0.89980610  1
  H+  H91  1  0.08488933  0.44719354  0.01739527  1
  H+  H92  1  0.29141773  0.91513448  0.15518649  1
  H+  H93  1  0.36052422  0.87608922  0.99789182  1
  H+  H94  1  0.37470811  0.65168326  0.49284189  1
  H+  H95  1  0.87660086  0.83631761  0.83311917  1
  H+  H96  1  0.34837486  0.12583111  1.03208405  1
  H+  H97  1  0.11987731  0.25356361  -0.00729446  1
  H+  H98  1  0.65745904  0.54229311  0.66269846  1
  H+  H99  1  0.13902295  0.35575559  0.15489739  1
  H+  H100  1  0.47871891  0.84463545  0.83839186  1
  H+  H101  1  0.52234698  0.13148667  0.33389383  1
  H+  H102  1  0.73394515  0.36369826  0.66208633  1
  H+  H103  1  0.03392769  0.91330550  0.16619768  1
  H+  H104  1  0.89922743  0.28270017  1.00317233  1
  H+  H105  1  0.57132934  0.66794535  0.09952968  1
  H+  H106  1  0.14445335  0.03277407  0.65678015  1
  H+  H107  1  0.22140031  0.61375703  0.64545170  1
  H+  H108  1  0.46879696  0.12807290  0.16179127  1
  H+  H109  1  0.58536414  0.13210804  0.15408879  1
  H+  H110  1  0.61118615  0.86907330  0.83038844  1
  H+  H111  1  0.36156441  0.14695041  0.16188045  1
  H+  H112  1  0.26435287  0.12691452  0.35087017  1
  H+  H113  1  0.61018750  0.38553164  0.16148768  1
  H+  H114  1  0.72415672  0.77386148  0.21897931  1
  H+  H115  1  0.32939962  0.65603964  0.75840033  1
  H+  H116  1  0.38700848  0.87515709  0.32403527  1
  H+  H117  1  0.86695649  0.39058091  0.67496617  1
  H+  H118  1  0.61471802  0.97343982  0.34555301  1
  H+  H119  1  0.48582580  0.37443269  0.68847567  1
  H+  H120  1  0.90953627  0.35386483  0.54976105  1
  H+  H121  1  0.08483523  0.91866944  0.72931310  1
  H+  H122  1  0.12495760  0.73504446  0.66909608  1
  H+  H123  1  0.88848446  0.49674288  0.83078361  1
  H+  H124  1  0.64457351  0.53544265  0.50464940  1
  H+  H125  1  0.60683575  0.22048806  -0.00165518  1
  H+  H126  1  0.13785591  0.51123753  0.82856428  1
  H+  H127  1  0.85356970  0.71941072  -0.00007753  1
  H+  H128  1  0.16111645  0.90655775  0.18125857  1
  H+  H129  1  0.61189317  0.73210334  0.84239885  1
  H+  H130  1  0.12504459  -0.01176530  0.15256409  1
  H+  H131  1  0.08934207  0.36214329  0.01653183  1
  H+  H132  1  0.91828258  0.63436469  0.85390372  1
  H+  H133  1  0.80343032  0.52446956  0.61834529  1
  H+  H134  1  0.84731463  0.73986247  0.20576162  1
  H+  H135  1  0.36948529  0.23019867  0.68895454  1
  H+  H136  1  0.38720113  0.87414637  0.16767013  1
  H+  H137  1  0.85685364  0.96628952  0.66555452  1
  H+  H138  1  0.24550660  0.13302675  0.51112546  1
  H+  H139  1  0.52285309  0.64281546  0.34993935  1
  H+  H140  1  0.72092722  0.61736699  0.32934511  1
  H+  H141  1  0.13324517  0.74991100  0.17154225  1
  H+  H142  1  0.36602894  0.74491047  0.33613177  1
  H+  H143  1  0.75790029  0.36926868  0.01361109  1
  H+  H144  1  0.14622867  0.31707754  0.93628332  1
  H+  H145  1  0.57644765  0.76325119  0.61244436  1
  H+  H146  1  0.22864396  0.36922166  0.66199876  1
  H+  H147  1  0.63429064  0.11084193  0.64400971  1
  H+  H148  1  0.72612921  0.86795407  0.52334400  1
  H+  H149  1  0.88128397  0.49739369  0.16844299  1
  H+  H150  1  0.01634627  0.11978537  0.01780612  1
  H+  H151  1  0.91420975  0.63051321  0.13835771  1
  H+  H152  1  0.61220099  0.96705229  0.01167773  1
  H+  H153  1  0.93492985  0.31151673  0.33745218  1
  H+  H154  1  0.27821104  0.14554937  0.67554054  1
  H+  H155  1  0.60937781  0.87598125  0.00674404  1
  H+  H156  1  0.96971874  0.35103872  0.18663683  1
  H+  H157  1  0.10982322  0.95195489  0.35182970  1
  H+  H158  1  0.78131688  0.14665332  0.34297909  1
  H+  H159  1  0.11683887  0.28492491  0.35248236  1
  H+  H160  1  0.33223709  -0.09636882  0.75001371  1
  H+  H161  1  0.63857101  0.62273202  0.84801370  1
  H+  H162  1  0.12521206  0.62460268  0.81197446  1
  H+  H163  1  0.61631681  0.21637342  0.33025486  1
  H+  H164  1  0.68976402  0.35690500  0.55962869  1
  H+  H165  1  0.66982311  0.67326163  0.69086039  1
  H+  H166  1  0.61007528  0.25989755  0.47767169  1
  H+  H167  1  0.71450201  0.60989549  0.00107651  1
  H+  H168  1  0.17683939  0.09792831  0.59929828  1
  H+  H169  1  0.39648598  0.37436974  0.68826373  1
  H+  H170  1  0.88953942  0.63640019  0.50827096  1
  H+  H171  1  0.78121450  0.13751336  0.61783061  1
  H+  H172  1  0.60242530  0.47683997  0.33838620  1
  H+  H173  1  0.11388462  0.45660887  0.17638879  1
  H+  H174  1  0.20882073  0.60369279  -0.01384035  1
  H+  H175  1  0.36336080  0.23893136  0.16808224  1
  H+  H176  1  0.88876173  0.04312735  0.48020286  1
  H+  H177  1  0.13706363  0.85828138  0.67024334  1
  H+  H178  1  0.61162238  0.73226730  0.34916423  1
  H+  H179  1  0.13358422  0.73847498  0.20437513  1
  H+  H180  1  0.92845916  0.34446317  0.89653803  1
  H+  H181  1  0.27189902  0.62470256  0.81824106  1
  H+  H182  1  0.22152638  0.35759741  0.83923182  1
  H+  H183  1  0.00223192  0.64760484  0.50497073  1
  H+  H184  1  0.92425531  0.38234711  0.36891605  1
  H+  H185  1  0.63525036  0.62284583  0.33775872  1
  H+  H186  1  0.12858280  0.09778255  0.99579513  1
  H+  H187  1  0.40412869  0.87667426  0.49907199  1
  H+  H188  1  0.74766481  0.59979724  0.18263143  1
  H+  H189  1  1.00907450  0.38749119  0.48019710  1
  H+  H190  1  0.09454110  0.63817060  0.48679644  1
  H+  H191  1  0.62364849  0.40305369  0.83364897  1
  H+  H192  1  0.52032370  0.88967176  0.66966400  1
  H+  H193  1  0.36621721  0.39790788  0.47003451  1
  H+  H194  1  0.81272462  0.22838469  0.92993784  1
  H+  H195  1  0.39552742  0.78203101  0.50705374  1
  H+  H196  1  0.13910539  0.27946443  0.65793730  1
  H+  H197  1  0.10470855  0.96202577  0.00529324  1
  H+  H198  1  0.85817722  0.59427271  -0.00624707  1
  H+  H199  1  0.70218525  0.10727621  0.49189996  1
  H+  H200  1  0.61169495  -0.02116829  0.50020785  1
  H+  H201  1  0.37534427  0.39202149  1.01714624  1
  H+  H202  1  0.88705618  0.75448336  0.83966914  1
  H+  H203  1  0.21499254  0.37316177  0.50196910  1
  H+  H204  1  0.60133958  0.72363091  1.00466068  1
  H+  H205  1  0.73978935  0.38553493  0.49537621  1
  H+  H206  1  0.09959063  0.39059634  0.49421047  1
  H+  H207  1  0.47743127  0.61483749  0.50446243  1
  H+  H208  1  0.58724362  0.58755765  0.18255855  1
  H+  H209  1  0.62725569  0.15786126  0.81253295  1
  H+  H210  1  0.64059535  0.28187682  0.64734430  1
  H+  H211  1  0.09423004  0.71676344  -0.02397929  1
  H+  H212  1  0.23341709  0.10843153  0.84173747  1
  H+  H213  1  0.02270976  0.87997846  0.82529775  1
  H+  H214  1  0.86877423  0.13616745  0.61741475  1
  H+  H215  1  0.38890740  0.53614025  0.18481825  1
  H+  H216  1  0.27796093  0.65739306  0.34184828  1
  H+  H217  1  0.38967960  0.75535064  0.83793327  1
  H+  H218  1  0.25266896  0.38500626  0.32375376  1
  H+  H219  1  0.91194603  0.90995674  0.17961889  1
  H+  H220  1  0.86746887  0.29461200  0.49270814  1
  H+  H221  1  0.23046858  0.88293528  0.58604258  1
  H+  H222  1  0.40583808  0.13052449  0.82524047  1
  H+  H223  1  0.32210982  0.41976674  0.27208218  1
  H+  H224  1  0.58801970  0.46322370  0.16750924  1
  H+  H225  1  0.72906719  0.34900885  0.32113037  1
  H+  H226  1  0.35322694  0.72999919  0.16395800  1
  H+  H227  1  0.13643061  0.26636708  0.83461371  1
  H+  H228  1  0.90032012  0.37812587  0.83964201  1
  H+  H229  1  0.37224010  0.35031128  0.32426102  1
  H+  H230  1  1.01975719  0.87729532  0.33015260  1
  H+  H231  1  0.35947657  0.86269372  0.83319550  1
  H+  H232  1  0.28189566  0.39057658  0.16382537  1
  H+  H233  1  0.51555694  0.88051724  0.50895606  1
  H+  H234  1  0.63965999  0.77826105  0.51485420  1
  H+  H235  1  0.10641136  0.52152711  0.48631696  1
  H+  H236  1  0.38166587  0.53495650  0.32933986  1
  H+  H237  1  0.11072386  0.39557060  0.40442525  1
  H+  H238  1  0.71093199  0.85221892  0.98962932  1
  H+  H239  1  0.37681493  0.14900657  0.48419452  1
  H+  H240  1  0.13700969  0.85282037  0.83379696  1
  H+  H241  1  0.62939202  0.27461405  0.16450153  1
  H+  H242  1  0.88212963  0.11333329  0.01642686  1
  H+  H243  1  0.12387849  0.84210149  1.01378440  1
  H+  H244  1  0.89255449  1.01969516  0.17256268  1
  H+  H245  1  0.47258401  0.86858494  0.17219032  1
  H+  H246  1  0.51217718  0.63433326  1.00692770  1
  H+  H247  1  0.88231318  0.51227967  0.31899258  1
  H+  H248  1  0.38777655  0.11256703  0.32400887  1
  H+  H249  1  0.62463862  0.60956556  1.00042396  1
  H+  H250  1  0.52308092  0.12734978  -0.01142754  1
  H+  H251  1  0.74974346  0.62991230  0.65631974  1
  H+  H252  1  0.73465929  0.61009200  0.15270023  1
  H+  H253  1  0.35156318  0.71653941  0.00720729  1
  H+  H254  1  0.11792003  0.22154818  0.15424504  1
  H+  H255  1  0.61747806  0.64466768  0.50145248  1
  H+  H256  1  0.76339478  0.62097355  0.84110984  1
  H+  H257  1  1.03698744  0.12132631  0.82202422  1
  H+  H258  1  0.88185231  0.01946708  0.33324229  1
  H+  H259  1  0.88892935  0.27922015  0.63058206  1
  H+  H260  1  0.82672818  0.22096686  0.86279356  1
  H+  H261  1  0.66102140  0.30072891  0.84043610  1
  H+  H262  1  0.23865495  0.12493996  0.17741957  1
  H+  H263  1  0.46250992  0.63605967  0.64314199  1
  H+  H264  1  0.37428193  0.60475684  0.99616296  1
  H+  H265  1  0.33191252  0.42699010  0.73510265  1
  H+  H266  1  0.76581734  0.88384801  0.35020864  1
  H+  H267  1  0.36343729  0.48566824  0.67423869  1
  H+  H268  1  0.38460968  0.60568319  0.83697102  1
  H+  H269  1  1.04035288  0.63300680  0.81201551  1
  H+  H270  1  0.63741126  0.69704846  0.75164780  1
  H+  H271  1  0.88241744  0.14244257  0.82424135  1
  H+  H272  1  0.60778583  0.47326446  0.01049399  1
  H+  H273  1  0.36464706  0.22824947  0.82843428  1
  H+  H274  1  0.20633876  0.92986021  0.53738366  1
  H+  H275  1  0.77699609  0.87965755  0.15827617  1
  H+  H276  1  0.37225296  0.39343950  0.17791299  1
  H+  H277  1  0.52820711  0.63573261  0.83178627  1
  H+  H278  1  0.68938789  0.12833997  0.18504735  1
  H+  H279  1  0.12334905  0.60493912  0.96765233  1
  H+  H280  1  0.86735271  0.63094432  0.33404861  1
  H+  H281  1  0.88613715  0.77525275  0.32514287  1
  H+  H282  1  0.11378903  0.39254026  0.66205108  1
  H+  H283  1  0.50240409  0.15065098  0.81798531  1
  H+  H284  1  0.72351280  0.35682732  0.16868066  1
  H+  H285  1  0.92814554  0.17923946  0.82492960  1
  H+  H286  1  0.37743826  0.85592636  0.66528262  1
  H+  H287  1  0.47537871  0.35872012  0.17864079  1
  H+  H288  1  0.07316851  0.91047095  0.06753825  1
  H+  H289  1  0.21837660  0.10167858  0.99846757  1
  H+  H290  1  0.88267364  0.55260296  0.93931138  1
  H+  H291  1  0.21090183  0.84002031  1.00769730  1
  H+  H292  1  0.08221902  0.42018139  0.72016337  1
  H+  H293  1  0.33777915  0.17037083  0.39913713  1
  H+  H294  1  0.83707548  0.67417047  0.43515854  1
  H+  H295  1  0.87778660  0.86023487  0.33442482  1
  H+  H296  1  0.59253166  0.06054399  0.87976263  1
  H+  H297  1  0.57570955  0.19521351  0.41917148  1
  H+  H298  1  0.06114564  0.90240401  0.51474291  1
  H+  H299  1  0.41753271  0.81716920  0.93323903  1
  H+  H300  1  0.94222411  0.01810493  0.89943925  1
  H+  H301  1  0.67375275  0.32357931  0.25979151  1
  H+  H302  1  0.40934907  0.83551292  0.60199723  1
  H+  H303  1  0.90926306  0.59347694  0.56676747  1
  H+  H304  1  0.14561439  0.58496279  0.54246411  1
  H+  H305  1  0.63343689  0.02191330  0.65198331  1
  H+  H306  1  0.08154181  0.16365671  0.72341906  1
  H+  H307  1  0.15315297  0.55881893  0.24892111  1
  H+  H308  1  0.61851018  0.56208052  0.24311974  1
  H+  H309  1  0.82803901  0.17522277  0.43401965  1
  H+  H310  1  0.65692487  0.07592291  0.28021290  1
  H+  H311  1  0.09410068  0.65992269  0.72459346  1
  H+  H312  1  0.97363772  0.72325872  0.11013845  1
  H+  H313  1  0.92171724  0.84015085  0.56598000  1
  H+  H314  1  0.41716578  0.09030441  0.26259181  1
  H+  H315  1  0.31724770  0.42247577  0.42099492  1
  H+  H316  1  0.66717417  0.33856534  0.93838809  1
  H+  H317  1  0.32253893  0.17343901  0.07849201  1
  H+  H318  1  0.06634237  0.80469963  0.37225486  1
  H+  H319  1  0.34520150  0.68687743  0.43722630  1
  H+  H320  1  0.85646281  0.68671534  0.71836403  1
  H+  H321  1  0.82905784  0.91365072  0.09477013  1
  H+  H322  1  0.77163281  0.87353785  0.66817385  1
  H+  H323  1  0.39194210  0.09909075  0.95430564  1
  H+  H324  1  0.17758507  0.07540057  0.23408333  1
  H+  H325  1  0.05303641  0.47274940  0.32270026  1
  H+  H326  1  0.92421482  0.11608611  0.95381582  1
  H+  H327  1  0.41710182  0.32940599  0.24063742  1
  H+  H328  1  0.47771984  0.36675797  0.84036641  1
  H+  H329  1  0.65099246  0.82512370  0.92638742  1
  H+  H330  1  0.58304363  0.91525866  0.72581353  1
  H+  H331  1  0.34032998  0.92477056  0.09098040  1
  H+  H332  1  0.91465901  0.07480410  0.27218058  1
  H+  H333  1  0.54512281  0.14799437  0.70142256  1
  H+  H334  1  0.93299253  0.70661343  0.37144711  1
  H+  H335  1  0.57023028  0.16355943  0.08900909  1
  H+  H336  1  0.07257677  0.40123470  0.11521824  1
  H+  H337  1  0.12661357  0.08602269  0.32808281  1
  H+  H338  1  0.59576605  0.72885775  0.67319465  1
  H+  H339  1  0.82851983  0.91332563  0.40823280  1
  H+  H340  1  0.66211066  0.58552713  0.90773068  1
  H+  H341  1  0.81894666  0.88356069  0.76141201  1
  H+  H342  1  0.82561135  0.39317078  0.10427554  1
  H+  H343  1  0.67563958  0.59292656  0.56669787  1
  H+  H344  1  0.65193386  0.22446741  0.75788695  1
  H+  H345  1  0.85662554  0.88012021  1.00115818  1
  H+  H346  1  0.85401659  0.96828800  0.00393805  1
  H+  H347  1  0.81968602  0.18218860  0.73927219  1
  H+  H348  1  0.08213207  0.14950154  0.07300160  1
  H+  H349  1  0.65150199  0.07558436  0.55444598  1
  H+  H350  1  0.85028351  0.66508718  0.05751524  1
  H+  H351  1  0.41347918  0.84576393  0.26373239  1
  H+  H352  1  0.38267241  0.27038488  0.59483727  1
  H+  H353  1  0.84058290  0.16088450  0.09124571  1
  H+  H354  1  0.40035340  0.57694081  0.59183491  1
  H+  H355  1  0.08264595  0.16411256  0.39911321  1
  H+  H356  1  0.93926458  0.88273064  0.24148218  1
  H+  H357  1  0.62202341  1.02774812  0.17456328  1
  H+  H358  1  0.36017258  0.43019977  0.07818768  1
  H+  H359  1  0.85599333  0.47460540  0.67452617  1
  H+  H360  1  0.38723072  0.27095930  0.99618216  1
  H+  H361  1  0.62464742  0.40502518  0.48735992  1
  H+  H362  1  0.58604040  0.91678262  0.09956220  1
  H+  H363  1  0.70240779  0.09876185  0.95871460  1
  H+  H364  1  0.58764503  0.67520441  0.44267667  1
  H+  H365  1  0.16434015  0.57020836  0.88907377  1
  H+  H366  1  0.41966318  0.60102699  0.24062060  1
  H+  H367  1  0.42201514  0.08966820  0.54500116  1
  H+  H368  1  0.66735238  0.82767083  0.27775591  1
  H+  H369  1  0.16946737  0.07732805  0.89922531  1
  H+  H370  1  0.40998485  0.57850451  0.90005393  1
  H+  H371  1  0.31231410  0.90680548  0.46837534  1
  H+  H372  1  0.33690176  0.25473639  0.58598833  1
  H+  H373  1  0.91181650  0.82411032  0.93137820  1
  H+  H374  1  0.14078672  0.76705548  0.82795987  1
  H+  H375  1  0.99559130  0.63650050  0.89565232  1
  H+  H376  1  0.78106345  0.13819542  0.74271020  1
  H+  H377  1  0.33215230  0.16567750  0.77017580  1
  H+  H378  1  0.43759639  0.08161640  0.90138036  1
  H+  H379  1  0.06901789  0.70419811  0.44557381  1
  H+  H380  1  0.57886639  0.41299893  0.06991140  1
  H+  H381  1  0.84867248  0.43449952  0.77232627  1
  H+  H382  1  0.59233364  0.43067534  0.42583804  1
  H+  H383  1  0.51361229  0.64672531  0.16131524  1
  O2-  O384  1  0.08404237  0.15750098  0.15018424  1
  O2-  O385  1  0.09073213  0.10546839  0.44590920  1
  O2-  O386  1  0.09462568  0.16009748  0.80577008  1
  O2-  O387  1  0.07988232  0.39687333  0.16018079  1
  O2-  O388  1  0.07157105  0.41649249  0.46896345  1
  O2-  O389  1  0.08515651  0.41097926  0.79986286  1
  O2-  O390  1  0.06506548  0.58108868  0.12690959  1
  O2-  O391  1  0.07008198  0.68061356  0.48671543  1
  O2-  O392  1  0.09798226  0.65696843  0.79325194  1
  O2-  O393  1  0.08827602  0.92622245  0.14298483  1
  O2-  O394  1  0.12312682  0.93379703  0.50772225  1
  O2-  O395  1  0.08198638  0.91107159  0.80853878  1
  O2-  O396  1  0.32990478  0.17864547  0.15004107  1
  O2-  O397  1  0.34610614  0.18112397  0.47255346  1
  O2-  O398  1  0.33558085  0.16651830  0.81578835  1
  O2-  O399  1  0.34482225  0.42937695  0.16999201  1
  O2-  O400  1  0.33047832  0.42559038  0.46425466  1
  O2-  O401  1  0.32664964  0.41402677  0.81393864  1
  O2-  O402  1  0.32203302  0.66820476  0.15227135  1
  O2-  O403  1  0.35047760  0.68898029  0.48180899  1
  O2-  O404  1  0.33271038  0.65465602  0.80371045  1
  O2-  O405  1  0.34867601  0.93284873  0.13580486  1
  O2-  O406  1  0.37243389  0.93053828  0.45671285  1
  O2-  O407  1  0.33284218  0.89611397  0.81830971  1
  O2-  O408  1  0.56786171  0.17032124  0.13394115  1
  O2-  O409  1  0.55933100  0.21322271  0.45755665  1
  O2-  O410  1  0.61919381  0.20567912  0.79552673  1
  O2-  O411  1  0.57275491  0.40793685  0.14576740  1
  O2-  O412  1  0.59518057  0.43596092  0.47251232  1
  O2-  O413  1  0.58948702  0.42745254  0.81616138  1
  O2-  O414  1  0.57328130  0.66924691  0.14531522  1
  O2-  O415  1  0.58664665  0.67549221  0.48812113  1
  O2-  O416  1  0.59101723  0.66999612  0.82484147  1
  O2-  O417  1  0.58699473  0.92622473  0.14540008  1
  O2-  O418  1  0.58071222  0.91057662  0.49500301  1
  O2-  O419  1  0.58057020  0.89854951  0.80859296  1
  O2-  O420  1  0.83738833  0.14889635  0.16683195  1
  O2-  O421  1  0.80730026  0.17945283  0.47569522  1
  O2-  O422  1  0.78773518  0.18559269  0.89565449  1
  O2-  O423  1  0.82386800  0.39492844  0.14956763  1
  O2-  O424  1  0.82212520  0.44342434  0.43207234  1
  O2-  O425  1  0.85026322  0.43667047  0.81799676  1
  O2-  O426  1  0.91427771  0.67766663  0.11346547  1
  O2-  O427  1  0.83537323  0.68087750  0.47997796  1
  O2-  O428  1  0.82322047  0.63775981  0.82478079  1
  O2-  O429  1  0.83289162  0.92172260  0.13993018  1
  O2-  O430  1  0.84021896  0.92009975  0.49142962  1
  O2-  O431  1  0.82057094  0.87897965  0.80644243  1
  O2-  O432  1  0.17637610  0.08813534  0.19120403  1
  O2-  O433  1  0.18645566  0.10298636  0.52827843  1
  O2-  O434  1  0.17122365  0.07765480  0.85389361  1
  O2-  O435  1  0.17598504  0.32934073  0.14270074  1
  O2-  O436  1  0.15775110  0.34771601  0.52049190  1
  O2-  O437  1  0.15941346  0.32541268  0.85107998  1
  O2-  O438  1  0.16548379  0.55954521  0.20467424  1
  O2-  O439  1  0.13108975  0.58305589  0.49912401  1
  O2-  O440  1  0.16759328  0.57234654  0.84336531  1
  O2-  O441  1  0.21532792  0.91185593  0.19713332  1
  O2-  O442  1  0.25726157  0.93034809  0.55672355  1
  O2-  O443  1  0.16568551  0.82211912  0.84977426  1
  O2-  O444  1  0.40914215  0.09608773  0.17865607  1
  O2-  O445  1  0.42361426  0.09318292  0.50051515  1
  O2-  O446  1  0.44571511  0.10773963  0.83291445  1
  O2-  O447  1  0.41503303  0.33209853  0.19476059  1
  O2-  O448  1  0.43173796  0.35761481  0.49408875  1
  O2-  O449  1  0.41706882  0.33417482  0.85448412  1
  O2-  O450  1  0.41618399  0.59847697  0.19528117  1
  O2-  O451  1  0.41478715  0.58584470  0.51382733  1
  O2-  O452  1  0.41379371  0.57587286  0.85487556  1
  O2-  O453  1  0.41259478  0.84071729  0.18670541  1
  O2-  O454  1  0.42600452  0.84366810  0.52367116  1
  O2-  O455  1  0.41970820  0.81358119  0.85687131  1
  O2-  O456  1  0.63252479  0.08151747  0.19570301  1
  O2-  O457  1  0.64437371  0.06741196  0.50948822  1
  O2-  O458  1  0.63553752  0.08160562  0.84762550  1
  O2-  O459  1  0.66220021  0.33301952  0.18233753  1
  O2-  O460  1  0.68306208  0.35796480  0.51494480  1
  O2-  O461  1  0.68548690  0.35699734  0.86139794  1
  O2-  O462  1  0.58390333  0.53894138  0.20581566  1
  O2-  O463  1  0.67373615  0.59553207  0.52107604  1
  O2-  O464  1  0.66748987  0.58882164  0.86237918  1
  O2-  O465  1  0.69273105  0.80035916  0.20213554  1
  O2-  O466  1  0.66468069  0.83645103  0.53411054  1
  O2-  O467  1  0.64901293  0.82219833  0.86324736  1
  O2-  O468  1  0.92433324  0.07708468  0.19294693  1
  O2-  O469  1  0.90503629  0.00981754  0.50670816  1
  O2-  O470  1  0.93633203  0.03504716  0.85844394  1
  O2-  O471  1  0.90802976  0.32445788  0.19722133  1
  O2-  O472  1  0.90843728  0.35440592  0.50488641  1
  O2-  O473  1  0.92706200  0.34330749  0.85151586  1
  O2-  O474  1  0.92223191  0.55885361  0.17985893  1
  O2-  O475  1  0.92311796  0.60887254  0.52267627  1
  O2-  O476  1  0.95312527  0.60676909  0.86141025  1
  O2-  O477  1  0.96145365  0.91709301  0.20374270  1
  O2-  O478  1  0.92059056  0.84540108  0.51989773  1
  O2-  O479  1  0.91380732  0.81518225  0.85213930  1
  O2-  O480  1  0.15116239  0.06515140  0.35847938  1
  O2-  O481  1  0.17340139  0.09454322  0.64562867  1
  O2-  O482  1  0.16079754  0.07000928  0.97921006  1
  O2-  O483  1  0.14961669  0.34947368  0.33569156  1
  O2-  O484  1  0.16869332  0.34092946  0.64563650  1
  O2-  O485  1  0.13838076  0.31328967  0.98093903  1
  O2-  O486  1  0.10104896  0.53277266  0.31789055  1
  O2-  O487  1  0.16022280  0.58668793  0.63009979  1
  O2-  O488  1  0.15213123  0.57006541  0.96590216  1
  O2-  O489  1  0.21814803  0.79793590  0.33662981  1
  O2-  O490  1  0.16789269  0.82586395  0.66071928  1
  O2-  O491  1  0.14850599  0.80352431  1.01425976  1
  O2-  O492  1  0.42136948  0.08733331  0.30715158  1
  O2-  O493  1  0.38149141  0.05915290  0.62857466  1
  O2-  O494  1  0.42699280  0.07254253  0.94760794  1
  O2-  O495  1  0.40728962  0.32353897  0.31470451  1
  O2-  O496  1  0.42346904  0.33856509  0.69555415  1
  O2-  O497  1  0.41796292  0.33012046  0.98007022  1
  O2-  O498  1  0.41859966  0.59674938  0.32027724  1
  O2-  O499  1  0.40355740  0.58372179  0.63696345  1
  O2-  O500  1  0.40924147  0.58007120  0.98020296  1
  O2-  O501  1  0.41577995  0.84465383  0.30935782  1
  O2-  O502  1  0.40713104  0.82708235  0.64691877  1
  O2-  O503  1  0.41272189  0.82042924  0.97867234  1
  O2-  O504  1  0.66793642  0.08109109  0.32421656  1
  O2-  O505  1  0.66478735  0.08064057  0.63178868  1
  O2-  O506  1  0.67583802  0.08322189  0.99889897  1
  O2-  O507  1  0.67275727  0.31079481  0.30377414  1
  O2-  O508  1  0.67765994  0.34417698  0.64101739  1
  O2-  O509  1  0.65782340  0.32644061  0.98291364  1
  O2-  O510  1  0.66045912  0.58982469  0.31814452  1
  O2-  O511  1  0.68658684  0.60036637  0.64384218  1
  O2-  O512  1  0.65414014  0.57807245  0.98574413  1
  O2-  O513  1  0.66429761  0.83213330  0.32231554  1
  O2-  O514  1  0.54858205  0.72941972  0.64852275  1
  O2-  O515  1  0.65037212  0.82477435  0.97646048  1
  O2-  O516  1  0.91000841  0.07899717  0.31690702  1
  O2-  O517  1  0.91777290  0.06631956  0.62861403  1
  O2-  O518  1  0.91080027  0.08547336  0.99233713  1
  O2-  O519  1  0.96595894  0.37288671  0.34695980  1
  O2-  O520  1  0.91355638  0.34246494  0.63493026  1
  O2-  O521  1  0.88358038  0.31120270  0.97180993  1
  O2-  O522  1  0.89428177  0.56597293  0.29978346  1
  O2-  O523  1  0.86158518  0.55805288  0.63445747  1
  O2-  O524  1  0.88294361  0.55625082  0.98368677  1
  O2-  O525  1  0.90946035  0.83606507  0.31258197  1
  O2-  O526  1  0.92665498  0.83557080  0.63797351  1
  O2-  O527  1  0.90809759  0.82684134  0.97655550  1
  O2-  O528  1  0.07836503  0.14664383  0.02747849  1
  O2-  O529  1  0.07493420  0.19396525  0.36145725  1
  O2-  O530  1  0.07975563  0.16619675  0.67838670  1
  O2-  O531  1  0.06222397  0.39169238  0.03798878  1
  O2-  O532  1  0.16723263  0.40743903  0.38675464  1
  O2-  O533  1  0.08199523  0.42269017  0.67483205  1
  O2-  O534  1  0.05853666  0.65710640  -0.04260055  1
  O2-  O535  1  0.04294906  0.74158400  0.38282074  1
  O2-  O536  1  0.09345632  0.66775822  0.67807309  1
  O2-  O537  1  0.06977558  0.90295086  0.02207068  1
  O2-  O538  1  0.07884363  0.89029435  0.34018127  1
  O2-  O539  1  0.09061411  0.91999940  0.68409288  1
  O2-  O540  1  0.32254622  0.16221120  0.03294031  1
  O2-  O541  1  0.32817522  0.16301922  0.35372883  1
  O2-  O542  1  0.33671592  0.16569474  0.69273932  1
  O2-  O543  1  0.35195756  0.42724822  0.03400067  1
  O2-  O544  1  0.31685064  0.41358741  0.31639053  1
  O2-  O545  1  0.33373302  0.42533286  0.68973581  1
  O2-  O546  1  0.31694236  0.65593702  0.02183548  1
  O2-  O547  1  0.33842011  0.68463198  0.35287173  1
  O2-  O548  1  0.31740367  0.65859379  0.67854887  1
  O2-  O549  1  0.33219670  0.90943322  0.01064743  1
  O2-  O550  1  0.26451262  0.87435717  0.32164863  1
  O2-  O551  1  0.32626653  0.90361892  0.70282474  1
  O2-  O552  1  0.57895892  0.15842615  0.01083754  1
  O2-  O553  1  0.58233144  0.15856924  0.35079469  1
  O2-  O554  1  0.56142799  0.16033875  0.65873112  1
  O2-  O555  1  0.58034807  0.41195714  0.02413333  1
  O2-  O556  1  0.57732080  0.41927266  0.35682022  1
  O2-  O557  1  0.60402558  0.43650911  0.69252622  1
  O2-  O558  1  0.57258405  0.66432467  0.02309750  1
  O2-  O559  1  0.58334904  0.67149911  0.36477455  1
  O2-  O560  1  0.66696439  0.72038701  0.71214232  1
  O2-  O561  1  0.58041640  0.90698617  0.02630335  1
  O2-  O562  1  0.58382005  0.91022363  0.35243217  1
  O2-  O563  1  0.58103279  0.92685946  0.68199847  1
  O2-  O564  1  0.83986768  0.16232104  0.04584769  1
  O2-  O565  1  0.84171960  0.17628727  0.35770909  1
  O2-  O566  1  0.84219318  0.17059562  0.60515266  1
  O2-  O567  1  0.81917383  0.39717684  0.02727908  1
  O2-  O568  1  0.82968354  0.41193591  0.38261224  1
  O2-  O569  1  0.83615464  0.41769897  0.69508222  1
  O2-  O570  1  0.82335039  0.65949328  0.01618513  1
  O2-  O571  1  0.87125307  0.67990055  0.35912914  1
  O2-  O572  1  0.84976518  0.67957527  0.67465568  1
  O2-  O573  1  0.82423084  0.90786169  0.01746031  1
  O2-  O574  1  0.82758916  0.91345813  0.36323874  1
  O2-  O575  1  0.83020590  0.90726341  0.68347078  1
