# generated using pymatgen
data_H2O
_symmetry_space_group_name_H-M   'P 1'
_cell_length_a   17.98597026
_cell_length_b   17.98149817
_cell_length_c   21.99595859
_cell_angle_alpha   89.99528913
_cell_angle_beta   90.01278568
_cell_angle_gamma   120.00828965
_symmetry_Int_Tables_number   1
_chemical_formula_structural   H2O
_chemical_formula_sum   'H384 O192'
_cell_volume   6160.23066858
_cell_formula_units_Z   192
loop_
 _symmetry_equiv_pos_site_id
 _symmetry_equiv_pos_as_xyz
  1  'x, y, z'
loop_
 _atom_type_symbol
 _atom_type_oxidation_number
  H+  1.0
  O2-  -2.0
loop_
 _atom_site_type_symbol
 _atom_site_label
 _atom_site_symmetry_multiplicity
 _atom_site_fract_x
 _atom_site_fract_y
 _atom_site_fract_z
 _atom_site_occupancy
  H+  H0  1  0.59362225  0.37347199  0.15875291  1
  H+  H1  1  0.56349537  0.09686597  0.02104250  1
  H+  H2  1  0.08669240  0.41999456  0.39668947  1
  H+  H3  1  0.03430699  0.65770754  0.82437050  1
  H+  H4  1  0.60898331  0.72111198  0.17241863  1
  H+  H5  1  0.16110899  0.73812233  0.67849338  1
  H+  H6  1  0.12991274  0.50461498  0.16573215  1
  H+  H7  1  0.63330833  0.08725124  0.66773759  1
  H+  H8  1  0.41890471  0.77882642  0.50901839  1
  H+  H9  1  0.11344838  0.72499800  0.54332197  1
  H+  H10  1  0.10178901  0.97554162  0.34462872  1
  H+  H11  1  0.62666525  0.64426616  0.48519532  1
  H+  H12  1  0.86404489  0.12460307  0.31252038  1
  H+  H13  1  0.33237988  0.38002929  0.82715586  1
  H+  H14  1  0.72125584  0.86761825  0.83093352  1
  H+  H15  1  0.11092309  0.13446655  0.67271410  1
  H+  H16  1  0.99258353  0.08730504  0.31932892  1
  H+  H17  1  0.86511491  0.89989841  0.66996440  1
  H+  H18  1  0.45059213  0.36442451  0.84051076  1
  H+  H19  1  0.35100724  -0.02171641  0.49509738  1
  H+  H20  1  0.63737367  0.52012705  0.99035345  1
  H+  H21  1  0.55188850  0.87525270  0.50157573  1
  H+  H22  1  0.35678037  0.39485230  0.16464677  1
  H+  H23  1  0.52703481  0.64137548  -0.00722739  1
  H+  H24  1  0.51828400  0.63823161  0.82917192  1
  H+  H25  1  0.10450236  0.67841373  0.77217828  1
  H+  H26  1  0.97216777  0.88368014  0.66505051  1
  H+  H27  1  0.89046613  0.27189672  -0.00087035  1
  H+  H28  1  0.79736186  0.37203602  0.83278888  1
  H+  H29  1  0.13442916  0.11173706  0.98737952  1
  H+  H30  1  0.26832816  0.39585330  0.16078690  1
  H+  H31  1  0.47991647  0.61350306  0.18341506  1
  H+  H32  1  0.60632370  0.63079877  0.17355219  1
  H+  H33  1  0.89172411  0.77343842  0.16719176  1
  H+  H34  1  0.37840336  0.26841148  0.32933070  1
  H+  H35  1  0.88514652  0.55713437  0.84060030  1
  H+  H36  1  0.84500014  0.47097172  0.16094545  1
  H+  H37  1  0.88189451  0.35845148  0.17502363  1
  H+  H38  1  0.11936211  0.63931008  0.01148375  1
  H+  H39  1  0.38567997  0.52434131  0.17993540  1
  H+  H40  1  0.13403718  0.36964959  0.16817130  1
  H+  H41  1  0.63047488  -0.04888145  0.66875089  1
  H+  H42  1  0.37563637  0.47097608  0.65745921  1
  H+  H43  1  0.64621410  0.01901813  0.51297093  1
  H+  H44  1  0.46115408  0.36137338  0.17259525  1
  H+  H45  1  0.02573177  0.13685147  0.00138738  1
  H+  H46  1  0.35658495  0.22514382  0.49644203  1
  H+  H47  1  0.82152913  0.45834447  0.01834174  1
  H+  H48  1  0.71576270  0.58207650  0.18022131  1
  H+  H49  1  0.16711887  0.57015627  0.24988192  1
  H+  H50  1  0.77686588  0.63455884  0.49017268  1
  H+  H51  1  0.21831343  0.83559447  0.16562391  1
  H+  H52  1  0.90069935  0.00135894  0.31887507  1
  H+  H53  1  0.61326537  -0.01693376  0.82970838  1
  H+  H54  1  0.63759835  0.86379292  0.16905449  1
  H+  H55  1  0.97165854  0.87630350  0.82405906  1
  H+  H56  1  0.42354130  0.02378547  0.18049590  1
  H+  H57  1  0.84560666  0.24958374  0.35163920  1
  H+  H58  1  0.77861310  0.13635166  0.50241158  1
  H+  H59  1  0.49402059  0.19842527  0.20166060  1
  H+  H60  1  0.28368743  0.90037771  0.83306011  1
  H+  H61  1  0.89258023  0.86233762  0.99997221  1
  H+  H62  1  0.35395697  0.96249235  0.01717228  1
  H+  H63  1  0.51377887  0.38041886  0.34020639  1
  H+  H64  1  1.03342448  0.39002038  0.16166447  1
  H+  H65  1  0.08507259  0.16471138  0.06093518  1
  H+  H66  1  0.74326084  0.11531863  0.82935361  1
  H+  H67  1  0.92790064  0.53269796  0.97111496  1
  H+  H68  1  0.21984277  0.94564460  0.28773819  1
  H+  H69  1  0.26698211  0.13303557  0.67585860  1
  H+  H70  1  0.67631748  0.78522779  0.48711586  1
  H+  H71  1  0.90051825  0.24270700  0.66062474  1
  H+  H72  1  0.48018479  0.87641350  0.84274155  1
  H+  H73  1  0.49140625  0.10055914  0.32755886  1
  H+  H74  1  0.85625077  0.72514078  0.33672739  1
  H+  H75  1  0.09997508  0.62019792  0.15843518  1
  H+  H76  1  0.59677479  0.46342880  0.16115820  1
  H+  H77  1  0.35522708  0.92431005  0.73930272  1
  H+  H78  1  0.51931815  0.38573042  0.49450434  1
  H+  H79  1  0.60720069  0.38349963  0.49305409  1
  H+  H80  1  0.74628309  0.12134541  0.99480709  1
  H+  H81  1  0.14234915  0.37237676  0.00844183  1
  H+  H82  1  0.74791871  0.36189406  0.01186807  1
  H+  H83  1  0.27001778  0.13651314  0.34199076  1
  H+  H84  1  0.95465006  0.60689368  0.16214792  1
  H+  H85  1  0.87723459  0.77788191  0.50777638  1
  H+  H86  1  0.27238103  0.38955785  1.01075213  1
  H+  H87  1  0.28594141  0.38138865  0.65719632  1
  H+  H88  1  0.47744188  0.86520777  0.99476927  1
  H+  H89  1  0.34691247  0.23442014  0.82749286  1
  H+  H90  1  0.60998037  0.12731566  0.49806709  1
  H+  H91  1  0.86372627  0.88272481  0.15683086  1
  H+  H92  1  0.49534229  0.10878259  0.84728444  1
  H+  H93  1  0.64433776  0.11665341  0.16939984  1
  H+  H94  1  0.82460906  0.61445033  0.64139422  1
  H+  H95  1  0.13410430  0.02217432  0.99014658  1
  H+  H96  1  0.62732531  0.26457661  0.16954360  1
  H+  H97  1  0.85468937  0.12097674  0.67541286  1
  H+  H98  1  0.60567002  0.89100296  0.82767644  1
  H+  H99  1  0.71217965  0.35628318  0.17498719  1
  H+  H100  1  0.35946364  0.16461486  0.16567043  1
  H+  H101  1  0.11313702  0.89630169  0.81671094  1
  H+  H102  1  0.30284710  0.89017201  0.67716355  1
  H+  H103  1  0.87299724  0.99950210  0.66491078  1
  H+  H104  1  0.39303108  1.03711577  0.16692353  1
  H+  H105  1  0.13027766  0.27150085  0.50503216  1
  H+  H106  1  0.97623488  0.36723203  0.32560952  1
  H+  H107  1  0.39692399  0.61064674  0.65656648  1
  H+  H108  1  0.72620482  0.86266191  0.17059139  1
  H+  H109  1  0.72676202  0.09768038  0.66622246  1
  H+  H110  1  0.85732496  0.65671890  0.82287764  1
  H+  H111  1  0.89175446  0.10971678  0.17296523  1
  H+  H112  1  0.71858872  0.60515663  0.32610704  1
  H+  H113  1  0.58283703  0.40281377  0.84536789  1
  H+  H114  1  0.60711633  0.73049254  0.82738811  1
  H+  H115  1  0.33754518  0.66245184  0.10288475  1
  H+  H116  1  0.98040668  0.86366682  0.17195150  1
  H+  H117  1  0.36538721  0.72470834  1.00890790  1
  H+  H118  1  0.62259647  0.62128585  0.65989369  1
  H+  H119  1  0.72676629  0.45276378  0.72783018  1
  H+  H120  1  0.62387431  0.35439623  0.32812165  1
  H+  H121  1  0.11119445  0.22137127  0.34327766  1
  H+  H122  1  0.86493417  0.97215871  0.15508512  1
  H+  H123  1  0.36413972  0.63277037  0.16462618  1
  H+  H124  1  0.46845436  0.11341067  0.99890550  1
  H+  H125  1  0.71205034  0.62594494  0.65864262  1
  H+  H126  1  0.11340790  0.38747312  0.49194724  1
  H+  H127  1  0.60554213  0.22319177  0.34328071  1
  H+  H128  1  0.37757882  0.73540135  0.82542067  1
  H+  H129  1  0.16437791  0.60777295  0.66919110  1
  H+  H130  1  0.22537714  0.86153709  0.99417345  1
  H+  H131  1  0.13308647  0.84922489  0.17006432  1
  H+  H132  1  0.65080333  0.03827146  0.32735913  1
  H+  H133  1  0.41901699  0.58005788  0.26380296  1
  H+  H134  1  0.61123943  -0.02296754  0.16071444  1
  H+  H135  1  0.85665500  0.63674867  0.33307223  1
  H+  H136  1  0.86478524  0.63504450  0.00959411  1
  H+  H137  1  0.39137466  0.61734418  0.84045639  1
  H+  H138  1  0.13791140  0.52817157  1.01055635  1
  H+  H139  1  0.65865894  0.30489927  0.94108227  1
  H+  H140  1  -0.03330764  0.86067598  0.32622970  1
  H+  H141  1  0.09318762  0.69107730  0.35487365  1
  H+  H142  1  0.35376112  0.22374397  0.00375950  1
  H+  H143  1  0.32861000  0.92607509  0.15439707  1
  H+  H144  1  0.84758700  0.87016258  0.34424780  1
  H+  H145  1  0.64835176  0.90591746  0.34245884  1
  H+  H146  1  0.49389689  0.85268598  0.66561617  1
  H+  H147  1  0.02658967  0.63549728  0.54258311  1
  H+  H148  1  0.86853833  0.22661970  0.16201916  1
  H+  H149  1  0.66969895  0.87763644  0.49582914  1
  H+  H150  1  0.13536581  1.02342070  0.83165358  1
  H+  H151  1  0.39176080  0.35830539  0.65394352  1
  H+  H152  1  0.85410254  0.74787035  0.66800541  1
  H+  H153  1  0.52737941  0.11579120  0.15659033  1
  H+  H154  1  0.37858727  0.84629247  0.32267246  1
  H+  H155  1  0.12852070  0.11043814  0.17500272  1
  H+  H156  1  0.14105557  0.60896726  0.53431747  1
  H+  H157  1  0.13071095  0.86444718  0.52003383  1
  H+  H158  1  0.78136553  0.67756370  0.14317354  1
  H+  H159  1  0.89705105  0.44761602  0.83058477  1
  H+  H160  1  0.60981837  0.21062525  0.67695233  1
  H+  H161  1  0.07543289  0.88792456  0.66237926  1
  H+  H162  1  0.09944189  0.13473040  0.49941943  1
  H+  H163  1  0.88691782  0.26843379  0.50470167  1
  H+  H164  1  0.31979416  0.17155391  0.76297845  1
  H+  H165  1  0.46486453  0.35888735  -0.00784595  1
  H+  H166  1  0.64025318  0.86661332  0.98858169  1
  H+  H167  1  0.87011862  0.50462474  0.51389665  1
  H+  H168  1  0.11430633  0.22968493  0.15534450  1
  H+  H169  1  0.27967978  0.88573806  0.33655002  1
  H+  H170  1  0.88822260  0.02246670  0.98969111  1
  H+  H171  1  0.36593245  0.73676900  0.31854699  1
  H+  H172  1  0.11116026  0.71867180  0.28649391  1
  H+  H173  1  0.99862878  0.62559550  0.99223921  1
  H+  H174  1  0.88112054  0.35543609  0.99634650  1
  H+  H175  1  0.11548288  0.97414349  0.16315023  1
  H+  H176  1  0.13310046  0.35640365  0.32649277  1
  H+  H177  1  0.47272750  0.11092254  0.50876456  1
  H+  H178  1  0.12965152  0.02438192  0.51138651  1
  H+  H179  1  0.88087564  0.78976708  0.82304592  1
  H+  H180  1  0.16809831  0.36139063  0.84521689  1
  H+  H181  1  0.11583589  0.89167533  0.00768042  1
  H+  H182  1  0.12614701  0.60437472  0.85239300  1
  H+  H183  1  0.61243918  0.79129215  0.66374028  1
  H+  H184  1  0.76329920  0.64643437  0.82170154  1
  H+  H185  1  0.88001047  0.02964866  0.51111907  1
  H+  H186  1  0.85989501  0.20360677  0.82146530  1
  H+  H187  1  0.14172622  0.28345291  -0.00064839  1
  H+  H188  1  0.08957057  0.91887775  0.10183872  1
  H+  H189  1  0.12625931  0.51428060  0.85421959  1
  H+  H190  1  0.61946599  -0.01616148  1.00492958  1
  H+  H191  1  0.37834178  0.11201986  0.98962552  1
  H+  H192  1  0.27292205  0.38772244  0.49477186  1
  H+  H193  1  0.86853078  0.61607422  0.16046917  1
  H+  H194  1  0.52049736  0.12574906  0.67896912  1
  H+  H195  1  0.92945988  0.61260472  0.89883507  1
  H+  H196  1  0.61405184  0.48559244  0.67851144  1
  H+  H197  1  0.02458846  0.38742409  0.49103552  1
  H+  H198  1  0.87859878  0.60490077  0.50226461  1
  H+  H199  1  0.22097864  0.35489898  0.32684095  1
  H+  H200  1  0.77560143  0.88778464  0.00115834  1
  H+  H201  1  0.38414948  0.36246335  0.50791672  1
  H+  H202  1  0.59854328  0.49559665  0.83171862  1
  H+  H203  1  0.85932910  0.98517997  0.81915525  1
  H+  H204  1  0.63899942  0.77661398  0.98307918  1
  H+  H205  1  0.37393622  0.96283854  0.34109523  1
  H+  H206  1  0.36742768  0.27947272  0.17134729  1
  H+  H207  1  0.12601614  0.46639582  0.68097139  1
  H+  H208  1  0.35786003  0.46645507  0.34212764  1
  H+  H209  1  -0.02366281  0.65725087  0.65546821  1
  H+  H210  1  0.37069502  0.84341798  0.16644772  1
  H+  H211  1  0.63406165  0.52412769  0.50481322  1
  H+  H212  1  0.02489134  0.88817526  0.01243052  1
  H+  H213  1  0.26872215  0.62873979  0.31852003  1
  H+  H214  1  0.61602424  0.64196893  -0.00788889  1
  H+  H215  1  0.70547247  0.35472188  0.66166785  1
  H+  H216  1  0.17649404  0.87098144  0.67220713  1
  H+  H217  1  0.47918542  0.35416736  0.66009822  1
  H+  H218  1  0.14299706  0.26912402  0.65695009  1
  H+  H219  1  0.71719894  0.85396469  0.32486205  1
  H+  H220  1  0.67183811  0.08995576  0.23141307  1
  H+  H221  1  0.87296798  0.13614005  1.00634845  1
  H+  H222  1  0.41695823  0.83854913  0.90131625  1
  H+  H223  1  0.34224995  0.47159485  0.82966582  1
  H+  H224  1  0.81021420  0.51951287  0.65266788  1
  H+  H225  1  0.39298312  1.02455685  0.66583121  1
  H+  H226  1  0.62969359  0.62385414  0.84001290  1
  H+  H227  1  0.37829795  0.72398547  0.67074295  1
  H+  H228  1  0.63054447  0.26465236  0.50372977  1
  H+  H229  1  0.10349793  0.88911582  0.34315406  1
  H+  H230  1  0.82333965  0.68230988  0.72534785  1
  H+  H231  1  0.35940679  0.22205960  0.67429420  1
  H+  H232  1  0.14156955  0.60544013  0.30793862  1
  H+  H233  1  0.96419550  0.61204485  0.30332977  1
  H+  H234  1  0.61653963  0.34580135  0.65891516  1
  H+  H235  1  1.04287957  0.37549726  0.83704394  1
  H+  H236  1  0.11709607  0.47330032  0.33387557  1
  H+  H237  1  0.52315326  0.64661554  0.67118356  1
  H+  H238  1  0.72852881  0.60779386  0.99265693  1
  H+  H239  1  0.88761020  0.13299287  0.34217756  1
  H+  H240  1  0.37728349  0.36209130  -0.00405180  1
  H+  H241  1  0.38611786  0.61109087  0.99515334  1
  H+  H242  1  0.38821649  0.76525072  0.17112525  1
  H+  H243  1  0.76950752  0.38444851  0.32676666  1
  H+  H244  1  0.21835217  0.60320317  0.16667090  1
  H+  H245  1  0.10112036  0.70990270  0.16267431  1
  H+  H246  1  0.90110503  0.33689757  0.83780746  1
  H+  H247  1  0.66716459  0.13674746  0.98955291  1
  H+  H248  1  0.04133615  0.37168568  0.67883348  1
  H+  H249  1  0.29131675  0.63103354  0.67407707  1
  H+  H250  1  0.65395815  0.25267013  0.84144625  1
  H+  H251  1  0.26606264  0.13333410  1.00178357  1
  H+  H252  1  0.77018684  0.38135452  0.50449146  1
  H+  H253  1  0.35763534  0.37788881  0.34134561  1
  H+  H254  1  0.14095954  0.52312458  0.51206191  1
  H+  H255  1  0.08056415  0.66603826  0.06800063  1
  H+  H256  1  0.21892322  0.11329631  0.50987871  1
  H+  H257  1  0.61456516  0.13865768  0.34155379  1
  H+  H258  1  0.15127306  0.36109067  0.66315912  1
  H+  H259  1  0.86237384  0.39205135  0.64833714  1
  H+  H260  1  0.25119188  0.13502741  0.82640040  1
  H+  H261  1  0.39572918  0.01524714  0.84558939  1
  H+  H262  1  0.13339773  0.10849299  0.33257584  1
  H+  H263  1  0.52095501  0.88782834  0.15833181  1
  H+  H264  1  0.01134118  0.89001307  0.49955412  1
  H+  H265  1  0.12444185  1.01910266  0.66487041  1
  H+  H266  1  0.96692122  0.61143783  0.65769706  1
  H+  H267  1  0.38476794  0.85832753  -0.00263397  1
  H+  H268  1  0.13544871  0.77591020  0.99218399  1
  H+  H269  1  0.61810946  0.24506215  0.00046367  1
  H+  H270  1  0.59896482  0.37279020  0.00718806  1
  H+  H271  1  0.38442239  0.10968087  0.66660559  1
  H+  H272  1  0.72291705  0.13666508  0.33125443  1
  H+  H273  1  0.90651764  0.42398172  0.65958595  1
  H+  H274  1  0.48543320  0.61440443  0.49943404  1
  H+  H275  1  0.86233823  0.38456402  0.50738887  1
  H+  H276  1  0.11604165  0.22742697  0.82270457  1
  H+  H277  1  0.36321624  0.63489406  0.32894157  1
  H+  H278  1  0.14936026  0.78945133  0.83905718  1
  H+  H279  1  0.97567530  0.11190970  0.65297068  1
  H+  H280  1  0.35666018  0.13636120  0.49726543  1
  H+  H281  1  0.67000183  0.34739103  0.84058273  1
  H+  H282  1  0.87446680  0.10578185  0.83398134  1
  H+  H283  1  0.41257257  0.86680479  0.66703505  1
  H+  H284  1  0.86084704  0.89646037  0.81262190  1
  H+  H285  1  1.02969722  0.39478293  1.01767434  1
  H+  H286  1  0.21728390  0.11306255  0.17522107  1
  H+  H287  1  0.37200601  0.89355059  0.83581599  1
  H+  H288  1  0.31534536  0.88780648  0.07178613  1
  H+  H289  1  0.07685566  0.65200751  0.67054261  1
  H+  H290  1  0.92809960  0.06967633  0.22454305  1
  H+  H291  1  0.07748778  0.92387342  0.75651209  1
  H+  H292  1  0.07831971  0.16339914  0.40442276  1
  H+  H293  1  0.08802341  0.42219929  0.08075457  1
  H+  H294  1  0.45463505  0.83874490  0.56719289  1
  H+  H295  1  0.86180878  0.56664734  0.57373520  1
  H+  H296  1  0.58139322  0.42824098  0.73931927  1
  H+  H297  1  0.33613526  0.42217302  0.06801860  1
  H+  H298  1  0.89185004  0.77337568  0.00361302  1
  H+  H299  1  0.10334482  0.13384423  0.82102642  1
  H+  H300  1  0.10051844  0.41263857  0.77810462  1
  H+  H301  1  0.32801233  0.16829780  0.40098564  1
  H+  H302  1  0.28859058  0.64777398  0.50454194  1
  H+  H303  1  0.17205930  0.84700144  0.89824829  1
  H+  H304  1  0.65734003  0.56500902  0.23935853  1
  H+  H305  1  0.46209105  0.03541854  0.27264651  1
  H+  H306  1  0.82648513  0.14985858  0.73942425  1
  H+  H307  1  0.65989302  0.58626789  0.56276890  1
  H+  H308  1  0.16592891  0.33172136  0.56390271  1
  H+  H309  1  0.41448043  0.08436216  0.56832224  1
  H+  H310  1  0.85949399  0.85715970  0.50655229  1
  H+  H311  1  0.32275175  0.91277567  0.43920917  1
  H+  H312  1  0.39623564  0.52441751  0.50144756  1
  H+  H313  1  0.96871318  0.11325736  0.83570562  1
  H+  H314  1  0.97819254  0.25764754  0.62037630  1
  H+  H315  1  0.86861970  0.13456001  0.50095870  1
  H+  H316  1  0.65305810  0.32131216  0.56344244  1
  H+  H317  1  0.83210349  0.91546655  0.06219631  1
  H+  H318  1  0.90837135  0.84973922  0.60338442  1
  H+  H319  1  0.15944366  0.58084468  0.94847357  1
  H+  H320  1  0.83373767  0.66608047  0.07014697  1
  H+  H321  1  0.83550534  0.93543142  0.73265649  1
  H+  H322  1  0.71187755  0.98945291  0.37968259  1
  H+  H323  1  0.84393758  0.16474513  0.06820279  1
  H+  H324  1  0.00834850  0.13342836  0.49918842  1
  H+  H325  1  0.57434660  0.15811334  0.09126233  1
  H+  H326  1  0.66009961  0.83824165  0.26588140  1
  H+  H327  1  0.92655842  0.32265290  0.56408082  1
  H+  H328  1  0.80943412  0.89621436  0.40275669  1
  H+  H329  1  0.17962372  0.85652749  0.25336496  1
  H+  H330  1  0.39633392  0.32633577  0.90190495  1
  H+  H331  1  0.16246926  0.33228975  0.22639304  1
  H+  H332  1  0.41672170  0.32976173  0.56528287  1
  H+  H333  1  0.58069771  0.15708487  0.43788117  1
  H+  H334  1  0.07837086  0.16697513  0.72924624  1
  H+  H335  1  0.88886668  0.37282116  0.31890596  1
  H+  H336  1  0.92450582  0.31983791  0.90411827  1
  H+  H337  1  0.57441906  0.41063412  0.39933732  1
  H+  H338  1  0.91172977  0.83141959  0.26434729  1
  H+  H339  1  0.78036337  0.13672394  0.16116830  1
  H+  H340  1  0.80684500  0.44001544  0.74560779  1
  H+  H341  1  0.68294943  0.09142735  0.89312799  1
  H+  H342  1  0.57935854  0.67960177  0.73237840  1
  H+  H343  1  0.07203130  0.91406390  0.44182324  1
  H+  H344  1  0.66837446  0.83984560  0.89351057  1
  H+  H345  1  0.04358591  0.67073977  0.43625377  1
  H+  H346  1  0.81671343  0.18696226  0.41050335  1
  H+  H347  1  0.59175096  0.67142084  0.42727371  1
  H+  H348  1  0.58510597  0.15644701  0.77270680  1
  H+  H349  1  0.91601241  0.33123484  0.23260403  1
  H+  H350  1  0.18212079  0.56991932  0.60849892  1
  H+  H351  1  0.18699463  0.84398127  0.60417094  1
  H+  H352  1  0.91468621  0.08197834  0.92974987  1
  H+  H353  1  0.32206109  0.16804430  0.09895653  1
  H+  H354  1  0.42975905  0.58555853  0.59589565  1
  H+  H355  1  0.40641047  0.32980969  0.26966925  1
  H+  H356  1  0.57148840  0.40816209  0.06427686  1
  H+  H357  1  0.22308642  0.86973237  0.51156577  1
  H+  H358  1  0.16359298  0.08028897  0.89458618  1
  H+  H359  1  0.66425367  0.59069841  0.89753518  1
  H+  H360  1  0.09203937  0.69149054  0.43712447  1
  H+  H361  1  0.37263462  0.64220267  0.49721784  1
  H+  H362  1  0.38680215  0.52237632  0.99486884  1
  H+  H363  1  0.85326216  0.47645390  0.31934607  1
  H+  H364  1  0.27467519  0.63733600  0.01232340  1
  H+  H365  1  0.42939235  0.13715846  0.25101751  1
  H+  H366  1  0.58645663  0.92376235  0.06401349  1
  H+  H367  1  0.91427075  0.08379414  0.58775575  1
  H+  H368  1  0.02593940  0.13852727  0.15485886  1
  H+  H369  1  0.16304035  0.08185742  0.60597786  1
  H+  H370  1  0.33083897  0.41224715  0.43515418  1
  H+  H371  1  0.35546418  0.67488526  0.76727890  1
  H+  H372  1  0.41571510  0.58199361  0.89999931  1
  H+  H373  1  0.42650061  0.08284043  0.91009935  1
  H+  H374  1  0.63036547  0.51534281  0.32787569  1
  H+  H375  1  0.64823843  0.32130625  0.26776596  1
  H+  H376  1  0.15788899  0.07741648  0.27118279  1
  H+  H377  1  0.61666507  0.92071681  0.44124119  1
  H+  H378  1  0.66630260  0.07447342  0.57266315  1
  H+  H379  1  0.81537361  0.40309522  0.10704064  1
  H+  H380  1  0.89635183  0.58389451  0.24977068  1
  H+  H381  1  0.83567685  0.66584796  0.43056717  1
  H+  H382  1  0.40745217  0.82157412  0.25753609  1
  H+  H383  1  0.62546608  0.12827006  0.82947182  1
  O2-  O384  1  0.08721377  0.16860509  0.14086069  1
  O2-  O385  1  0.07037125  0.16494379  0.48259622  1
  O2-  O386  1  0.07629163  0.16678639  0.80636841  1
  O2-  O387  1  0.09319771  0.42044064  0.14719101  1
  O2-  O388  1  0.08555304  0.42042372  0.47688065  1
  O2-  O389  1  0.10228215  0.41604995  0.82328767  1
  O2-  O390  1  0.06882219  0.65088952  0.14496573  1
  O2-  O391  1  0.08673938  0.66377241  0.55597957  1
  O2-  O392  1  0.09636739  0.68210366  0.81662518  1
  O2-  O393  1  0.08909170  0.91404086  0.14746596  1
  O2-  O394  1  0.07261231  0.91534841  0.48715268  1
  O2-  O395  1  0.08347952  0.92728793  0.80321557  1
  O2-  O396  1  0.31677733  0.17444985  0.14363635  1
  O2-  O397  1  0.32367892  0.16399931  0.48259163  1
  O2-  O398  1  0.31584816  0.17263901  0.80989635  1
  O2-  O399  1  0.33081136  0.42890932  0.14848395  1
  O2-  O400  1  0.33393981  0.41646370  0.48065180  1
  O2-  O401  1  0.31117057  0.41533803  0.80780511  1
  O2-  O402  1  0.33404143  0.66255820  0.14844770  1
  O2-  O403  1  0.34724139  0.67859381  0.48769031  1
  O2-  O404  1  0.35275995  0.67500943  0.81233075  1
  O2-  O405  1  0.30231408  0.86774593  0.13829606  1
  O2-  O406  1  0.31444989  0.91707426  0.48314014  1
  O2-  O407  1  0.34585181  0.93001646  0.82008177  1
  O2-  O408  1  0.58256009  0.16141634  0.14150690  1
  O2-  O409  1  0.57952823  0.15767084  0.48332300  1
  O2-  O410  1  0.58948610  0.15808860  0.81842209  1
  O2-  O411  1  0.56443225  0.40428058  0.14279184  1
  O2-  O412  1  0.58020209  0.41749251  0.47940395  1
  O2-  O413  1  0.56309459  0.43225957  0.81841211  1
  O2-  O414  1  0.57369977  0.65923592  0.16190257  1
  O2-  O415  1  0.60422936  0.68268486  0.47066504  1
  O2-  O416  1  0.57906127  0.66945247  0.81268895  1
  O2-  O417  1  0.58138775  0.91805069  0.14292861  1
  O2-  O418  1  0.61634992  0.91008455  0.48608020  1
  O2-  O419  1  0.57409508  0.92185778  0.81843755  1
  O2-  O420  1  0.84093214  0.16572340  0.14647096  1
  O2-  O421  1  0.83763238  0.16719061  0.48535757  1
  O2-  O422  1  0.82351149  0.14510338  0.80577086  1
  O2-  O423  1  0.81699660  0.40789142  0.15200744  1
  O2-  O424  1  0.83332572  0.41838113  0.49797078  1
  O2-  O425  1  0.84931990  0.40494185  0.80634452  1
  O2-  O426  1  0.83487858  0.67716297  0.13765127  1
  O2-  O427  1  0.83777373  0.66339568  0.47638530  1
  O2-  O428  1  0.82176828  0.67734001  0.80280349  1
  O2-  O429  1  0.83143049  0.91088897  0.14131680  1
  O2-  O430  1  0.79580923  0.89292135  0.47939062  1
  O2-  O431  1  0.82802623  0.92660080  0.79895524  1
  O2-  O432  1  0.15765434  0.07963518  0.19193739  1
  O2-  O433  1  0.15921014  0.08457338  0.52677030  1
  O2-  O434  1  0.16654095  0.08411308  0.84879408  1
  O2-  O435  1  0.16461629  0.33531029  0.18138356  1
  O2-  O436  1  0.16382789  0.33320071  0.51824001  1
  O2-  O437  1  0.18676363  0.31868946  0.85231832  1
  O2-  O438  1  0.15816138  0.57175488  0.18157902  1
  O2-  O439  1  0.17514500  0.57914821  0.53360748  1
  O2-  O440  1  0.13249868  0.56376723  0.87866644  1
  O2-  O441  1  0.15839222  0.81599040  0.18866868  1
  O2-  O442  1  0.16568855  0.83926500  0.53469525  1
  O2-  O443  1  0.17780119  0.85062362  0.85277152  1
  O2-  O444  1  0.43690396  0.17800489  0.21825633  1
  O2-  O445  1  0.41202778  0.08484552  0.52309407  1
  O2-  O446  1  0.43296515  0.07909523  0.86264028  1
  O2-  O447  1  0.40209476  0.33777960  0.18976185  1
  O2-  O448  1  0.41533609  0.33148610  0.51979884  1
  O2-  O449  1  0.39239638  0.32408839  0.85603771  1
  O2-  O450  1  0.41703325  0.58394696  0.19839796  1
  O2-  O451  1  0.42756614  0.58457103  0.51744694  1
  O2-  O452  1  0.41714389  0.58138191  0.85451224  1
  O2-  O453  1  0.41311755  0.82688336  0.18452305  1
  O2-  O454  1  0.46302122  0.83820090  0.52275307  1
  O2-  O455  1  0.41698801  0.84473237  0.85614611  1
  O2-  O456  1  0.67246592  0.08513830  0.18589838  1
  O2-  O457  1  0.66682130  0.07856497  0.52716549  1
  O2-  O458  1  0.67771449  0.08979714  0.84835705  1
  O2-  O459  1  0.64983084  0.32341504  0.18680438  1
  O2-  O460  1  0.65877832  0.32569939  0.51841941  1
  O2-  O461  1  0.69265480  0.31340055  0.85872057  1
  O2-  O462  1  0.65621140  0.56190127  0.19230275  1
  O2-  O463  1  0.66631501  0.58589237  0.51770066  1
  O2-  O464  1  0.66019461  0.59104804  0.85192299  1
  O2-  O465  1  0.66646034  0.83420976  0.18718801  1
  O2-  O466  1  0.70789814  0.84540590  0.50519826  1
  O2-  O467  1  0.66211029  0.83596635  0.84809643  1
  O2-  O468  1  0.92277340  0.07744706  0.17967547  1
  O2-  O469  1  0.91364005  0.08872330  0.52616686  1
  O2-  O470  1  0.90929830  0.07923137  0.85213392  1
  O2-  O471  1  0.91360761  0.32880871  0.18687363  1
  O2-  O472  1  0.91828167  0.33002862  0.52037574  1
  O2-  O473  1  0.93164140  0.31292093  0.85971868  1
  O2-  O474  1  0.89372643  0.57918451  0.17560549  1
  O2-  O475  1  0.89670881  0.57090471  0.52955252  1
  O2-  O476  1  0.92316656  0.61618511  0.85338656  1
  O2-  O477  1  0.91943609  0.83345536  0.18595637  1
  O2-  O478  1  0.90040129  0.83763060  0.52205648  1
  O2-  O479  1  0.91017417  0.85088787  0.83494829  1
  O2-  O480  1  0.15966243  0.07438603  0.31660428  1
  O2-  O481  1  0.16482643  0.08182570  0.65144815  1
  O2-  O482  1  0.16454078  0.08115667  0.97145812  1
  O2-  O483  1  0.16085943  0.32388520  0.31109902  1
  O2-  O484  1  0.17506721  0.32922333  0.64055572  1
  O2-  O485  1  0.17590603  0.34609378  0.99288783  1
  O2-  O486  1  0.17220555  0.57458839  0.29725328  1
  O2-  O487  1  0.18539062  0.56944156  0.65429755  1
  O2-  O488  1  0.16814588  0.58895957  0.99406786  1
  O2-  O489  1  0.19216100  0.88416606  0.29613416  1
  O2-  O490  1  0.19952929  0.84040848  0.64950594  1
  O2-  O491  1  0.16573018  0.83620967  0.97689496  1
  O2-  O492  1  0.43879935  0.05814984  0.30268214  1
  O2-  O493  1  0.41828615  0.08450850  0.64961735  1
  O2-  O494  1  0.41103519  0.08276838  0.97663232  1
  O2-  O495  1  0.40947113  0.33053788  0.31497553  1
  O2-  O496  1  0.42043148  0.32160329  0.64376845  1
  O2-  O497  1  0.40410896  0.32876908  0.97799525  1
  O2-  O498  1  0.41310257  0.57756682  0.31274700  1
  O2-  O499  1  0.42887608  0.58170922  0.64120553  1
  O2-  O500  1  0.41643849  0.58210565  0.97798038  1
  O2-  O501  1  0.40490707  0.81397126  0.30370180  1
  O2-  O502  1  0.43434821  0.83032692  0.64970634  1
  O2-  O503  1  0.41692438  0.83085435  0.98029717  1
  O2-  O504  1  0.66720083  0.09506911  0.30875063  1
  O2-  O505  1  0.66586844  0.06129206  0.65042154  1
  O2-  O506  1  0.68592425  0.09622219  0.97773765  1
  O2-  O507  1  0.65177041  0.32151156  0.31294261  1
  O2-  O508  1  0.64792237  0.31702382  0.64425719  1
  O2-  O509  1  0.65075477  0.30691056  0.98536968  1
  O2-  O510  1  0.65989472  0.57328602  0.30877868  1
  O2-  O511  1  0.65114992  0.58844354  0.64573490  1
  O2-  O512  1  0.66980948  0.57924047  0.97367567  1
  O2-  O513  1  0.65794446  0.83733414  0.31121655  1
  O2-  O514  1  0.63181513  0.84789213  0.64255448  1
  O2-  O515  1  0.67220524  0.83990669  0.97122443  1
  O2-  O516  1  0.94709245  0.04372245  0.29265294  1
  O2-  O517  1  0.91486745  0.08178156  0.63856348  1
  O2-  O518  1  0.91839772  0.08374110  0.97544188  1
  O2-  O519  1  0.91684321  0.33741349  0.30886492  1
  O2-  O520  1  0.95164811  0.28911828  0.63704279  1
  O2-  O521  1  0.91675306  0.33153690  0.98203452  1
  O2-  O522  1  0.90214267  0.58563439  0.29562974  1
  O2-  O523  1  0.81500827  0.55997610  0.62013976  1
  O2-  O524  1  0.93859238  0.59143983  0.97158414  1
  O2-  O525  1  0.90712110  0.82775450  0.30995255  1
  O2-  O526  1  0.90735103  0.85009054  0.64864853  1
  O2-  O527  1  0.92755926  0.83470120  0.99226783  1
  O2-  O528  1  0.08665260  0.16550797  0.01549183  1
  O2-  O529  1  0.08480406  0.16138540  0.35927688  1
  O2-  O530  1  0.08012712  0.16624187  0.68345867  1
  O2-  O531  1  0.08916994  0.42691286  0.03271673  1
  O2-  O532  1  0.08402268  0.41443200  0.35140747  1
  O2-  O533  1  0.09869778  0.40682028  0.69783239  1
  O2-  O534  1  0.08633327  0.67024071  0.02246457  1
  O2-  O535  1  0.08450726  0.66869878  0.31333118  1
  O2-  O536  1  0.12943487  0.67835841  0.69504965  1
  O2-  O537  1  0.08819091  0.92339387  0.02456082  1
  O2-  O538  1  0.07037705  0.91432892  0.36030669  1
  O2-  O539  1  0.06085549  0.92432617  0.68619906  1
  O2-  O540  1  0.32626953  0.16281720  0.01841610  1
  O2-  O541  1  0.33038617  0.17112775  0.35586236  1
  O2-  O542  1  0.32708295  0.16327159  0.69342049  1
  O2-  O543  1  0.33606489  0.41817821  0.02281829  1
  O2-  O544  1  0.32549882  0.40671263  0.35718556  1
  O2-  O545  1  0.34836470  0.40844196  0.66583244  1
  O2-  O546  1  0.33633937  0.66504999  0.02547325  1
  O2-  O547  1  0.32973456  0.66503608  0.33523507  1
  O2-  O548  1  0.35282915  0.66409525  0.68677446  1
  O2-  O549  1  0.32403367  0.90016543  0.02449995  1
  O2-  O550  1  0.33618457  0.90248980  0.35541417  1
  O2-  O551  1  0.36176802  0.92475525  0.69425544  1
  O2-  O552  1  0.56380759  0.15029777  0.02939691  1
  O2-  O553  1  0.57906780  0.16254047  0.35927796  1
  O2-  O554  1  0.58063176  0.15216018  0.69498997  1
  O2-  O555  1  0.57377157  0.40872819  0.01862986  1
  O2-  O556  1  0.57513422  0.40869511  0.35403583  1
  O2-  O557  1  0.59662235  0.42750329  0.69591132  1
  O2-  O558  1  0.58961239  0.67737317  0.00105473  1
  O2-  O559  1  0.49292211  0.60719712  0.33788215  1
  O2-  O560  1  0.58322363  0.68563544  0.68710780  1
  O2-  O561  1  0.58587139  0.92327995  0.01849766  1
  O2-  O562  1  0.65111396  0.95576430  0.36908394  1
  O2-  O563  1  0.60034247  0.89007044  0.68352850  1
  O2-  O564  1  0.84328460  0.16713268  0.02263037  1
  O2-  O565  1  0.79607370  0.20107818  0.37274139  1
  O2-  O566  1  0.82649582  0.15292183  0.69099368  1
  O2-  O567  1  0.80974841  0.39995560  0.02561132  1
  O2-  O568  1  0.83192965  0.41750420  0.33482306  1
  O2-  O569  1  0.77546511  0.44876680  0.71180342  1
  O2-  O570  1  0.82983561  0.66010863  0.02228865  1
  O2-  O571  1  0.82826125  0.66545940  0.35397043  1
  O2-  O572  1  0.81974449  0.68532486  0.68011304  1
  O2-  O573  1  0.83593264  0.91885747  0.01682294  1
  O2-  O574  1  0.81798884  0.90181248  0.35733668  1
  O2-  O575  1  0.83872067  0.93636504  0.68475299  1
