# generated using pymatgen
data_H2O
_symmetry_space_group_name_H-M   'P 1'
_cell_length_a   17.95736907
_cell_length_b   17.95602175
_cell_length_c   21.96041956
_cell_angle_alpha   89.99402271
_cell_angle_beta   89.98406580
_cell_angle_gamma   119.96841544
_symmetry_Int_Tables_number   1
_chemical_formula_structural   H2O
_chemical_formula_sum   'H384 O192'
_cell_volume   6134.26022938
_cell_formula_units_Z   192
loop_
 _symmetry_equiv_pos_site_id
 _symmetry_equiv_pos_as_xyz
  1  'x, y, z'
loop_
 _atom_type_symbol
 _atom_type_oxidation_number
  H+  1.0
  O2-  -2.0
loop_
 _atom_site_type_symbol
 _atom_site_label
 _atom_site_symmetry_multiplicity
 _atom_site_fract_x
 _atom_site_fract_y
 _atom_site_fract_z
 _atom_site_occupancy
  H+  H0  1  0.65178033  0.50869975  0.64461690  1
  H+  H1  1  0.36615871  0.97529265  0.48645259  1
  H+  H2  1  0.79233176  0.90763563  0.49778719  1
  H+  H3  1  0.12314348  0.63957580  0.82142836  1
  H+  H4  1  0.25463271  0.16090341  0.17813007  1
  H+  H5  1  0.87101613  0.08218377  0.87283891  1
  H+  H6  1  0.82556509  0.68629416  0.04380110  1
  H+  H7  1  0.87034964  0.98072832  0.65446655  1
  H+  H8  1  0.72204772  0.19072767  0.14687706  1
  H+  H9  1  0.26113562  0.62308672  0.82299956  1
  H+  H10  1  0.17237425  0.84042512  0.92857646  1
  H+  H11  1  0.86423642  0.25898394  0.47819133  1
  H+  H12  1  0.12189467  0.63794290  0.49433279  1
  H+  H13  1  0.07952502  0.17526940  0.43629279  1
  H+  H14  1  0.45847050  0.92106650  0.19035459  1
  H+  H15  1  0.64457775  0.27209896  0.85358778  1
  H+  H16  1  0.11242192  0.71781510  0.15649234  1
  H+  H17  1  0.73274897  0.35660280  0.32381873  1
  H+  H18  1  0.15667735  0.35250137  0.23366654  1
  H+  H19  1  0.50111441  0.00529694  0.04825364  1
  H+  H20  1  0.60296816  0.04481824  0.23977658  1
  H+  H21  1  0.04289801  0.39334984  0.47792057  1
  H+  H22  1  0.03009456  0.62682818  0.15687851  1
  H+  H23  1  0.51990861  0.65567953  0.68228722  1
  H+  H24  1  0.08536037  0.91740407  0.72269155  1
  H+  H25  1  0.66908657  0.33060262  0.26523781  1
  H+  H26  1  0.85112392  0.64008202  0.49179878  1
  H+  H27  1  0.96833071  0.09847193  1.01365383  1
  H+  H28  1  0.10900401  0.22010350  0.00276341  1
  H+  H29  1  0.10603533  0.16066141  0.34333010  1
  H+  H30  1  0.39325952  0.53273116  0.66035206  1
  H+  H31  1  0.86267651  0.47209245  0.33259075  1
  H+  H32  1  0.35364035  0.89143818  1.01003564  1
  H+  H33  1  0.33159849  0.17220472  0.76252852  1
  H+  H34  1  0.36563041  0.49538497  0.00317007  1
  H+  H35  1  0.85987829  0.98340984  0.33427224  1
  H+  H36  1  0.73060469  0.61232020  0.32384912  1
  H+  H37  1  0.58053497  0.90365810  0.06889703  1
  H+  H38  1  0.36553270  0.23582686  0.33276360  1
  H+  H39  1  1.00061239  0.84693830  0.81058451  1
  H+  H40  1  0.63978490  0.60906514  0.32333808  1
  H+  H41  1  0.61369925  0.96481900  0.83086021  1
  H+  H42  1  0.66636268  0.28141732  0.17494021  1
  H+  H43  1  0.86853460  0.47183800  0.67280006  1
  H+  H44  1  0.03186954  0.90428716  0.66324192  1
  H+  H45  1  0.64727129  0.42855183  -0.01614284  1
  H+  H46  1  0.72001274  0.10852225  0.99938458  1
  H+  H47  1  0.12006633  0.49134773  0.16492092  1
  H+  H48  1  -0.10938627  0.78303724  0.33135372  1
  H+  H49  1  0.33601395  0.17141169  0.42453645  1
  H+  H50  1  0.39151498  0.62681865  0.17129515  1
  H+  H51  1  0.71706608  0.10145768  0.86167157  1
  H+  H52  1  0.82886091  0.15542232  0.92355485  1
  H+  H53  1  0.28077130  0.64986774  0.15963445  1
  H+  H54  1  0.27451405  0.89788529  0.67026065  1
  H+  H55  1  0.77564013  0.90080921  0.66328033  1
  H+  H56  1  0.83216577  0.14006270  0.69287755  1
  H+  H57  1  0.48105135  0.11234411  0.64436715  1
  H+  H58  1  0.33376607  0.01128813  0.16765573  1
  H+  H59  1  0.86299538  0.24654097  0.15391410  1
  H+  H60  1  0.86537755  0.21123304  0.86393481  1
  H+  H61  1  0.65118531  0.36329660  0.84948826  1
  H+  H62  1  0.03392417  0.15456115  0.79177064  1
  H+  H63  1  0.52448964  0.64512641  0.02333838  1
  H+  H64  1  0.98847265  0.63131476  0.98724147  1
  H+  H65  1  0.15581462  0.38532534  0.03946456  1
  H+  H66  1  0.13227905  0.60590696  0.32609966  1
  H+  H67  1  0.14630776  0.28196807  0.49969879  1
  H+  H68  1  0.61666820  0.38578612  0.33865978  1
  H+  H69  1  0.77863836  0.61241919  0.83396450  1
  H+  H70  1  0.77614944  0.89597883  0.19132181  1
  H+  H71  1  0.52482516  0.38008458  0.65491274  1
  H+  H72  1  0.90056917  0.51413982  0.83670659  1
  H+  H73  1  0.32387275  0.87536842  0.16611778  1
  H+  H74  1  0.14625177  0.77472281  0.84221892  1
  H+  H75  1  0.37609762  0.11305927  0.84084903  1
  H+  H76  1  0.62556996  0.23999612  0.32838331  1
  H+  H77  1  0.21767953  0.12437019  0.83228404  1
  H+  H78  1  0.72484472  0.78865932  0.54510379  1
  H+  H79  1  0.73322845  0.36139136  0.65564635  1
  H+  H80  1  0.89323301  0.53600184  0.17304046  1
  H+  H81  1  0.14211170  0.86848704  0.50614779  1
  H+  H82  1  0.10841992  0.72394343  0.33821387  1
  H+  H83  1  0.11713299  0.91841813  0.16291448  1
  H+  H84  1  0.37291722  0.23398444  0.65443407  1
  H+  H85  1  0.85766352  0.50222234  0.50334621  1
  H+  H86  1  0.64667745  0.51805073  0.99317132  1
  H+  H87  1  0.88515126  0.13617642  0.63610719  1
  H+  H88  1  0.36422291  0.26623355  0.17962658  1
  H+  H89  1  0.11922855  -0.01802873  0.49530937  1
  H+  H90  1  0.38854821  0.36055920  0.64904443  1
  H+  H91  1  0.10076109  0.15532295  0.16908295  1
  H+  H92  1  0.38033575  0.37220146  0.17835615  1
  H+  H93  1  0.86970078  0.38359460  0.66556217  1
  H+  H94  1  0.86450402  0.38241496  0.33198604  1
  H+  H95  1  0.47374144  0.60944741  0.84997069  1
  H+  H96  1  0.87204547  0.22449314  1.00089833  1
  H+  H97  1  0.89658996  0.88673242  0.18754596  1
  H+  H98  1  0.62470865  0.40823403  0.17844183  1
  H+  H99  1  0.47715660  0.62216152  0.50507714  1
  H+  H100  1  0.11218014  0.39884489  0.15931315  1
  H+  H101  1  0.77901324  0.40201225  0.15776341  1
  H+  H102  1  0.62822187  0.24211607  1.01909327  1
  H+  H103  1  0.64371684  0.58320799  0.86612248  1
  H+  H104  1  0.52452997  0.89745781  0.66893693  1
  H+  H105  1  0.61464660  0.85686908  -0.01446692  1
  H+  H106  1  0.37882250  0.86159873  0.32644623  1
  H+  H107  1  0.46024441  0.36803363  0.82780430  1
  H+  H108  1  0.13330202  0.05079646  0.18275182  1
  H+  H109  1  0.01590502  0.40848874  0.01295551  1
  H+  H110  1  0.38801652  0.02632212  0.65475703  1
  H+  H111  1  0.85093316  0.22666104  0.33701306  1
  H+  H112  1  0.65517894  0.64779057  1.02391008  1
  H+  H113  1  0.72138573  0.35528530  0.49435863  1
  H+  H114  1  0.87549188  0.11400768  0.32790364  1
  H+  H115  1  0.62428938  0.18843971  0.07779484  1
  H+  H116  1  0.03443296  0.63947766  0.49643192  1
  H+  H117  1  0.52721747  0.47941148  0.76922452  1
  H+  H118  1  0.61407479  0.87072533  0.17891884  1
  H+  H119  1  0.12379114  0.65278229  0.99856100  1
  H+  H120  1  0.27830496  0.64021587  0.33218921  1
  H+  H121  1  0.92492301  0.33080423  0.92863366  1
  H+  H122  1  0.22843872  0.86282907  0.15919302  1
  H+  H123  1  0.99661506  0.11749587  0.62312033  1
  H+  H124  1  0.13043036  0.28847613  0.17642186  1
  H+  H125  1  0.41808162  0.38851027  -0.00563157  1
  H+  H126  1  0.02954375  0.64386312  0.66916850  1
  H+  H127  1  0.94807776  0.46256941  0.03770216  1
  H+  H128  1  0.27405675  0.39643179  0.81226256  1
  H+  H129  1  0.38949721  0.53023303  0.50818024  1
  H+  H130  1  0.41109866  0.83483814  0.60088058  1
  H+  H131  1  0.62152593  0.53245125  0.16943350  1
  H+  H132  1  0.14510991  0.27873966  0.81373905  1
  H+  H133  1  0.15491776  0.03561487  0.65243025  1
  H+  H134  1  0.48247144  0.36678695  0.49815609  1
  H+  H135  1  0.37776991  0.24170039  0.98967314  1
  H+  H136  1  0.36005282  0.73289504  0.67290255  1
  H+  H137  1  0.70531392  0.82518104  0.80658605  1
  H+  H138  1  0.13078225  0.39255027  0.48336682  1
  H+  H139  1  0.63574631  0.79543288  0.66411797  1
  H+  H140  1  0.48161171  0.61832789  0.32336886  1
  H+  H141  1  0.14761930  0.52588452  0.49932947  1
  H+  H142  1  0.36617576  0.74108209  0.15572249  1
  H+  H143  1  0.78369408  0.38032780  0.82597842  1
  H+  H144  1  0.03222807  0.38952615  0.66324802  1
  H+  H145  1  0.16276761  0.41452267  1.01259956  1
  H+  H146  1  0.21345643  0.86026758  0.31921323  1
  H+  H147  1  0.11806408  0.47997026  0.66784763  1
  H+  H148  1  0.46546664  0.86861115  0.99809201  1
  H+  H149  1  0.34917116  0.42862686  0.39627985  1
  H+  H150  1  0.03186993  0.92313112  0.16859465  1
  H+  H151  1  0.61202120  0.72736441  0.49149812  1
  H+  H152  1  0.14749023  0.37304731  0.65223354  1
  H+  H153  1  0.27588030  0.13545335  0.65374808  1
  H+  H154  1  0.36585972  0.13944507  0.48326533  1
  H+  H155  1  0.82909183  0.18253386  0.09619714  1
  H+  H156  1  0.63330066  0.52709541  0.49464458  1
  H+  H157  1  0.60543312  0.73734997  0.01430475  1
  H+  H158  1  0.46885658  0.11654109  0.30547541  1
  H+  H159  1  0.27781543  0.89380824  0.82213939  1
  H+  H160  1  0.36044878  0.39393932  0.82071029  1
  H+  H161  1  0.88899946  0.78362606  0.50317196  1
  H+  H162  1  0.52105496  0.85566681  0.16494081  1
  H+  H163  1  0.77311423  0.16132131  0.60911167  1
  H+  H164  1  0.63783011  1.01870306  0.47659449  1
  H+  H165  1  0.78738379  0.64366510  0.68232415  1
  H+  H166  1  0.27365095  0.63556142  0.50167580  1
  H+  H167  1  0.22598572  0.24396615  0.94133359  1
  H+  H168  1  0.97239661  0.34930382  0.32085542  1
  H+  H169  1  0.15620548  1.09974736  0.89008610  1
  H+  H170  1  0.37081759  0.63662512  0.50434282  1
  H+  H171  1  0.90442862  0.27676483  0.64665481  1
  H+  H172  1  0.28400401  0.39825381  0.49058504  1
  H+  H173  1  0.01258443  0.14951648  0.34274631  1
  H+  H174  1  0.12776410  0.86442813  0.32759139  1
  H+  H175  1  0.89254938  0.35920671  0.98745135  1
  H+  H176  1  0.26307007  0.33747377  0.96792346  1
  H+  H177  1  0.33712559  0.14755975  0.16969064  1
  H+  H178  1  0.88241643  0.85141857  0.82981472  1
  H+  H179  1  0.85689238  -0.01134076  0.17610619  1
  H+  H180  1  0.23719244  0.87553524  0.99444008  1
  H+  H181  1  0.88238714  0.76536739  0.84450326  1
  H+  H182  1  0.89296537  0.66537566  0.01415591  1
  H+  H183  1  0.03517669  0.14717756  0.50250886  1
  H+  H184  1  0.02685528  0.89950631  0.34451114  1
  H+  H185  1  0.61822299  0.75933310  0.77168634  1
  H+  H186  1  0.37335776  0.39865702  0.49229220  1
  H+  H187  1  0.13830817  0.51901565  0.83639011  1
  H+  H188  1  0.82784871  0.91264694  0.75821172  1
  H+  H189  1  0.61594286  0.69917865  0.85302309  1
  H+  H190  1  0.11753037  0.14576701  0.80799691  1
  H+  H191  1  0.47484963  0.86753942  0.84428659  1
  H+  H192  1  0.61970784  0.47665544  0.33849654  1
  H+  H193  1  0.14359704  0.77969946  0.50725801  1
  H+  H194  1  -0.01203318  0.60675087  0.83506490  1
  H+  H195  1  0.89656487  0.50219110  1.00669299  1
  H+  H196  1  0.35546556  -0.02340549  0.33067732  1
  H+  H197  1  0.22782550  0.62134217  0.98988882  1
  H+  H198  1  0.39142132  0.87651061  0.84168921  1
  H+  H199  1  0.88666770  0.87121982  0.33375989  1
  H+  H200  1  0.64021037  0.77052713  0.20802491  1
  H+  H201  1  0.89071112  0.35036308  0.83514075  1
  H+  H202  1  0.14186378  0.77886230  -0.00789263  1
  H+  H203  1  0.13956856  0.87411165  0.65679963  1
  H+  H204  1  0.89162588  0.37919346  0.17442657  1
  H+  H205  1  0.49094614  -0.01196184  1.07994289  1
  H+  H206  1  0.98121577  0.37900896  0.17485146  1
  H+  H207  1  0.13876903  0.04003696  0.98847186  1
  H+  H208  1  0.46184499  0.11289673  0.85771999  1
  H+  H209  1  0.17547383  0.59150311  0.23229693  1
  H+  H210  1  0.37493041  0.48428443  0.33577169  1
  H+  H211  1  0.38786703  0.53542138  0.17318555  1
  H+  H212  1  0.60666424  0.97253572  0.01510853  1
  H+  H213  1  0.40142735  0.08278635  0.25072522  1
  H+  H214  1  0.32507074  0.66152577  0.75708476  1
  H+  H215  1  0.28432991  0.39500205  0.66157250  1
  H+  H216  1  0.72347849  0.86594070  0.30595963  1
  H+  H217  1  0.94112105  0.78244474  0.16614797  1
  H+  H218  1  0.68999398  0.17300643  0.60273203  1
  H+  H219  1  0.61818267  0.72608235  0.32931557  1
  H+  H220  1  0.27661060  0.88767701  0.49022756  1
  H+  H221  1  0.64125304  0.35820963  0.65399974  1
  H+  H222  1  0.13365879  1.03953586  0.33548767  1
  H+  H223  1  0.60612364  0.87293698  0.81586064  1
  H+  H224  1  0.62502242  0.22581276  0.65078550  1
  H+  H225  1  0.87911988  0.90677087  0.49318119  1
  H+  H226  1  0.27185714  0.43175466  0.02489301  1
  H+  H227  1  0.27111264  0.39778474  0.16422425  1
  H+  H228  1  0.61012009  0.13030305  0.84741880  1
  H+  H229  1  0.12937022  0.54196137  0.99575724  1
  H+  H230  1  -0.01874799  0.35345982  0.83560584  1
  H+  H231  1  0.47329465  0.85856074  0.50105305  1
  H+  H232  1  0.61038734  0.13335418  0.33214988  1
  H+  H233  1  0.23444129  0.12136948  0.49757308  1
  H+  H234  1  0.11760372  0.73534800  0.66847906  1
  H+  H235  1  0.87236046  0.62355073  0.83110450  1
  H+  H236  1  0.37591414  0.13936285  0.65766353  1
  H+  H237  1  0.13678859  0.61737319  0.65423097  1
  H+  H238  1  0.61643025  0.38926181  0.48989501  1
  H+  H239  1  0.32822848  0.91937235  0.39163659  1
  H+  H240  1  0.11711842  0.38695264  0.82053801  1
  H+  H241  1  0.35871496  0.14328908  0.32754254  1
  H+  H242  1  0.85522282  -0.05981034  1.03117695  1
  H+  H243  1  0.86428109  0.12899950  0.01164136  1
  H+  H244  1  0.40600101  0.09247189  0.13555519  1
  H+  H245  1  0.22220166  0.12851890  0.33221099  1
  H+  H246  1  0.05990244  0.78784284  0.17151106  1
  H+  H247  1  0.38180999  0.86738055  0.65920104  1
  H+  H248  1  0.02939328  0.89303629  0.49580779  1
  H+  H249  1  0.65488757  0.51127987  0.90015324  1
  H+  H250  1  0.83352834  0.94581897  0.82690529  1
  H+  H251  1  0.90298984  0.03487332  0.52600597  1
  H+  H252  1  0.41633628  0.34347223  0.89364784  1
  H+  H253  1  0.48127671  0.36890601  0.32450925  1
  H+  H254  1  0.13107927  0.14886872  0.64859412  1
  H+  H255  1  0.63742304  0.88543498  0.65678229  1
  H+  H256  1  0.47605955  0.11158417  0.49392767  1
  H+  H257  1  0.36301621  0.98497775  0.82399133  1
  H+  H258  1  0.36314105  0.64393094  0.67134247  1
  H+  H259  1  0.74641191  0.38302668  0.00428895  1
  H+  H260  1  0.59733880  0.47923333  0.81241869  1
  H+  H261  1  0.81100474  0.25305416  0.53607789  1
  H+  H262  1  0.92116587  0.58408123  0.26949019  1
  H+  H263  1  0.59194801  0.65583671  0.91822386  1
  H+  H264  1  0.36091486  0.63175859  0.82010515  1
  H+  H265  1  0.38010601  0.77059903  0.32302953  1
  H+  H266  1  0.35990007  0.73633635  0.00216305  1
  H+  H267  1  0.59897983  0.69261441  0.12534345  1
  H+  H268  1  0.87220571  0.12705489  0.17340721  1
  H+  H269  1  0.40862428  0.84616962  0.23753514  1
  H+  H270  1  0.84468418  0.36932256  0.48347406  1
  H+  H271  1  0.86719721  0.64049439  0.33661007  1
  H+  H272  1  0.66562283  0.58471223  0.55408213  1
  H+  H273  1  0.38480417  0.86097834  0.50020553  1
  H+  H274  1  0.39178621  0.27776593  0.49520946  1
  H+  H275  1  0.36797319  0.73315891  0.50128513  1
  H+  H276  1  0.62100182  1.01697726  0.33034741  1
  H+  H277  1  0.51131209  0.87962846  0.33168938  1
  H+  H278  1  0.35564817  0.23073282  0.82182476  1
  H+  H279  1  0.89513008  0.78195394  0.66302273  1
  H+  H280  1  -0.02509630  0.60872097  0.33092847  1
  H+  H281  1  0.76775046  0.64796358  0.48594911  1
  H+  H282  1  0.89209524  0.61378717  0.66800142  1
  H+  H283  1  0.96365016  0.13128803  0.17270502  1
  H+  H284  1  0.60899322  0.87834109  0.48119881  1
  H+  H285  1  0.74311148  0.55456216  0.61588515  1
  H+  H286  1  0.38371354  0.52555474  0.83356915  1
  H+  H287  1  0.76577651  0.13249875  0.43388012  1
  H+  H288  1  0.66748204  0.32698372  0.55681798  1
  H+  H289  1  0.92035820  0.33320912  0.58886304  1
  H+  H290  1  0.18514630  0.09175132  0.58841186  1
  H+  H291  1  0.09229551  0.17399441  0.70408955  1
  H+  H292  1  0.18278603  0.32103442  0.87819582  1
  H+  H293  1  0.09228010  0.67556158  0.06085112  1
  H+  H294  1  0.08281305  0.94827290  0.07179364  1
  H+  H295  1  0.84808924  0.43554697  0.10161430  1
  H+  H296  1  0.34154782  0.42132866  0.72210728  1
  H+  H297  1  0.83641884  0.67221064  0.39452716  1
  H+  H298  1  0.08548948  0.41716321  0.76254332  1
  H+  H299  1  0.41124404  0.84617321  0.93583288  1
  H+  H300  1  0.82887090  0.88998856  0.09090788  1
  H+  H301  1  0.09398494  0.67301020  0.76332440  1
  H+  H302  1  0.61949981  0.81246605  0.92461384  1
  H+  H303  1  0.41516154  0.34313953  0.23945426  1
  H+  H304  1  0.33362793  0.42630112  0.10592225  1
  H+  H305  1  0.63543830  0.11647101  1.00417657  1
  H+  H306  1  0.71014050  0.10780977  0.32518789  1
  H+  H307  1  0.08978422  0.92623627  0.40171102  1
  H+  H308  1  0.42358463  0.59599047  0.60364194  1
  H+  H309  1  0.57811529  0.41795237  0.71534468  1
  H+  H310  1  0.30734936  0.90544376  0.06938459  1
  H+  H311  1  0.84336346  0.66743208  0.74308740  1
  H+  H312  1  0.59340408  -0.00942066  0.18051436  1
  H+  H313  1  0.88776853  0.86706426  0.65662523  1
  H+  H314  1  0.58749156  0.67396553  0.39225288  1
  H+  H315  1  0.60277427  0.63589324  0.48611326  1
  H+  H316  1  0.64705031  0.06683069  0.91208024  1
  H+  H317  1  0.14690626  0.61941477  0.17027848  1
  H+  H318  1  0.10331794  0.29609172  0.33433811  1
  H+  H319  1  0.61142666  0.22220566  0.48083152  1
  H+  H320  1  0.60221628  0.88248288  0.32365394  1
  H+  H321  1  0.22525390  0.61668363  0.65597747  1
  H+  H322  1  0.14935420  0.28475184  0.64431604  1
  H+  H323  1  0.90919297  0.09419206  0.26654694  1
  H+  H324  1  0.53098641  0.65169734  0.17766441  1
  H+  H325  1  0.36953851  0.64571864  0.33313605  1
  H+  H326  1  0.06178499  0.44793012  0.07732447  1
  H+  H327  1  0.33627814  0.92852756  0.72928058  1
  H+  H328  1  0.61158173  0.13870076  0.68225964  1
  H+  H329  1  0.82841349  0.41030758  0.42262246  1
  H+  H330  1  0.41851833  0.08389416  0.55473229  1
  H+  H331  1  0.65015817  0.53454804  0.23806184  1
  H+  H332  1  0.67854111  0.83383089  0.57413969  1
  H+  H333  1  0.17687752  0.34613196  0.55723498  1
  H+  H334  1  0.61148136  0.13235336  0.46964854  1
  H+  H335  1  0.58085281  0.17162662  0.39158071  1
  H+  H336  1  0.41714752  0.33117529  0.58714483  1
  H+  H337  1  0.72633086  0.66643370  0.97560167  1
  H+  H338  1  0.13481680  0.51757614  0.31919908  1
  H+  H339  1  0.93913022  0.73418381  0.10433928  1
  H+  H340  1  0.94714366  0.06015321  0.87157042  1
  H+  H341  1  0.08710494  0.66719980  0.39848855  1
  H+  H342  1  0.76276768  0.05187583  0.75874838  1
  H+  H343  1  0.17105568  0.84184135  0.59966296  1
  H+  H344  1  0.09692304  0.40479051  0.38425335  1
  H+  H345  1  0.92646175  0.63961115  0.17623460  1
  H+  H346  1  0.92634062  0.59041381  0.92999634  1
  H+  H347  1  0.91311723  0.33058187  0.26237281  1
  H+  H348  1  0.58866249  0.41924807  0.42950013  1
  H+  H349  1  0.57282297  0.16078619  0.79357048  1
  H+  H350  1  0.90476900  0.57546443  0.60572265  1
  H+  H351  1  0.14500171  0.12227372  0.50229680  1
  H+  H352  1  0.79240490  0.51655697  0.53724558  1
  H+  H353  1  0.38767297  0.62557139  0.99054225  1
  H+  H354  1  0.89710913  0.04627457  0.96383139  1
  H+  H355  1  0.16816724  0.58028394  0.56290511  1
  H+  H356  1  0.12492163  0.81647798  0.23105430  1
  H+  H357  1  0.13168696  0.85308842  0.83644230  1
  H+  H358  1  0.17088394  0.58307826  0.89547899  1
  H+  H359  1  0.58441241  0.92704629  0.72688692  1
  H+  H360  1  0.36966422  0.15583969  0.01596317  1
  H+  H361  1  0.41301866  0.59069070  0.93184339  1
  H+  H362  1  0.57502654  0.90153081  0.42122007  1
  H+  H363  1  0.83075925  0.92861347  0.39473670  1
  H+  H364  1  0.75529571  0.08964036  0.75756259  1
  H+  H365  1  0.23199994  0.12520277  0.98304129  1
  H+  H366  1  0.02931924  0.79361849  0.76906535  1
  H+  H367  1  0.60981776  0.66223456  0.69567209  1
  H+  H368  1  0.48649769  0.13265142  0.04396806  1
  H+  H369  1  0.93361925  0.85937077  0.24474520  1
  H+  H370  1  0.39549863  0.04685275  1.03805024  1
  H+  H371  1  0.11123228  0.13625797  0.01197243  1
  H+  H372  1  0.39387697  0.37547596  0.32770885  1
  H+  H373  1  0.62605337  0.13183627  0.16790063  1
  H+  H374  1  0.15439702  0.10462248  0.24556867  1
  H+  H375  1  0.41968535  0.59104291  0.26556142  1
  H+  H376  1  0.69145032  0.34693568  0.94406106  1
  H+  H377  1  0.07737285  0.18153168  0.10553049  1
  H+  H378  1  0.83842302  0.40576735  0.76382012  1
  H+  H379  1  0.50748382  0.39734567  0.97522826  1
  H+  H380  1  0.92064751  0.83965439  0.56431038  1
  H+  H381  1  0.33440633  0.67643578  0.06120661  1
  H+  H382  1  0.94728028  0.88015435  1.02780204  1
  H+  H383  1  0.69283078  0.10229615  0.51922281  1
  O2-  O384  1  0.07238022  0.18588434  0.15049431  1
  O2-  O385  1  0.09158121  0.17549965  0.48105741  1
  O2-  O386  1  0.09447618  0.17869819  0.78167569  1
  O2-  O387  1  0.08220291  0.43151707  0.14857316  1
  O2-  O388  1  0.10282482  0.42497032  0.46468664  1
  O2-  O389  1  0.08532280  0.41713838  0.80814823  1
  O2-  O390  1  0.08947782  0.65954032  0.13843433  1
  O2-  O391  1  0.09290189  0.67052075  0.48042013  1
  O2-  O392  1  0.09316527  0.67115671  0.80892919  1
  O2-  O393  1  0.09175164  0.95353306  0.15002701  1
  O2-  O394  1  0.09031571  0.92095107  0.48135123  1
  O2-  O395  1  0.05237167  0.85057093  0.78727808  1
  O2-  O396  1  0.31605416  0.18881922  0.16255375  1
  O2-  O397  1  0.33678001  0.17193693  0.47038138  1
  O2-  O398  1  0.32563421  0.17000204  0.80694797  1
  O2-  O399  1  0.33289368  0.42596014  0.15101214  1
  O2-  O400  1  0.34637742  0.43319574  0.47981151  1
  O2-  O401  1  0.33710854  0.42873653  0.80142352  1
  O2-  O402  1  0.34036289  0.68133510  0.14146311  1
  O2-  O403  1  0.33777815  0.66823950  0.49079601  1
  O2-  O404  1  0.32315070  0.65492673  0.80417325  1
  O2-  O405  1  0.28920180  0.89740478  0.14575948  1
  O2-  O406  1  0.33585624  0.91403934  0.47248452  1
  O2-  O407  1  0.33688950  0.92546918  0.80528574  1
  O2-  O408  1  0.66590352  0.18943965  0.14953500  1
  O2-  O409  1  0.57967890  0.16423428  0.46071818  1
  O2-  O410  1  0.58361877  0.16729244  0.83727663  1
  O2-  O411  1  0.61586012  0.35323508  0.15897865  1
  O2-  O412  1  0.58868177  0.42232888  0.47547130  1
  O2-  O413  1  0.54848354  0.44176343  0.78324255  1
  O2-  O414  1  0.59410532  0.68652798  0.17008369  1
  O2-  O415  1  0.57518667  0.66992553  0.47283261  1
  O2-  O416  1  0.58882651  0.64201277  0.87484621  1
  O2-  O417  1  0.58169015  0.89032056  0.15279114  1
  O2-  O418  1  0.57685846  0.90574235  0.46720296  1
  O2-  O419  1  0.58096281  0.90999910  0.80805290  1
  O2-  O420  1  0.82162495  0.18626430  0.14049950  1
  O2-  O421  1  0.82546401  0.17317107  0.41879622  1
  O2-  O422  1  0.83080782  0.15051283  0.87870706  1
  O2-  O423  1  0.84143579  0.43367957  0.14681556  1
  O2-  O424  1  0.82388311  0.40866169  0.46833872  1
  O2-  O425  1  0.84299718  0.40733855  0.80924258  1
  O2-  O426  1  0.96001384  0.74344038  0.14791309  1
  O2-  O427  1  0.83027548  0.67749599  0.47508042  1
  O2-  O428  1  0.83758427  0.65077606  0.81859475  1
  O2-  O429  1  0.83259169  0.92557155  0.17066334  1
  O2-  O430  1  0.85170679  0.94173473  0.48212402  1
  O2-  O431  1  0.81243204  0.89356019  0.80112341  1
  O2-  O432  1  0.15625408  0.11011116  0.19985935  1
  O2-  O433  1  0.17569136  0.09164949  0.51686778  1
  O2-  O434  1  0.15742849  0.10447987  0.84489860  1
  O2-  O435  1  0.16521484  0.35055658  0.18917791  1
  O2-  O436  1  0.17696741  0.34449515  0.51149321  1
  O2-  O437  1  0.17340038  0.33508227  0.83592130  1
  O2-  O438  1  0.18055247  0.59291158  0.18665920  1
  O2-  O439  1  0.17458011  0.58527408  0.51710967  1
  O2-  O440  1  0.17263959  0.58106227  0.84956469  1
  O2-  O441  1  0.12205599  0.81494162  0.18543420  1
  O2-  O442  1  0.17435055  0.84006742  0.52195977  1
  O2-  O443  1  0.17029856  0.83529645  0.85670149  1
  O2-  O444  1  0.37305865  0.07368884  0.17465503  1
  O2-  O445  1  0.41584159  0.08230486  0.50946914  1
  O2-  O446  1  0.39889373  0.07746233  0.85804808  1
  O2-  O447  1  0.40702687  0.33753342  0.19280626  1
  O2-  O448  1  0.42166864  0.33695247  0.51339256  1
  O2-  O449  1  0.40389492  0.33562166  0.84891947  1
  O2-  O450  1  0.42015109  0.59585455  0.18804210  1
  O2-  O451  1  0.41797147  0.59185362  0.52389694  1
  O2-  O452  1  0.41072473  0.58586950  0.85075784  1
  O2-  O453  1  0.41264611  0.86004718  0.19216733  1
  O2-  O454  1  0.41353592  0.82956706  0.51773897  1
  O2-  O455  1  0.41776933  0.84662822  0.86309823  1
  O2-  O456  1  0.57487549  0.02914857  0.19929364  1
  O2-  O457  1  0.67036260  0.08282681  0.47712003  1
  O2-  O458  1  0.65346569  0.07070315  0.86644137  1
  O2-  O459  1  0.68044078  0.33985680  0.19046475  1
  O2-  O460  1  0.66142511  0.32482531  0.51162075  1
  O2-  O461  1  0.68217240  0.33494888  0.86390689  1
  O2-  O462  1  0.63285417  0.50010907  0.19990468  1
  O2-  O463  1  0.66041681  0.58845907  0.50931566  1
  O2-  O464  1  0.66660604  0.54312558  0.86038117  1
  O2-  O465  1  0.67084509  0.83448371  0.22382091  1
  O2-  O466  1  0.69321089  0.81758552  0.53318524  1
  O2-  O467  1  0.64112408  0.78743842  0.81144585  1
  O2-  O468  1  0.90392349  0.09897746  0.18944493  1
  O2-  O469  1  0.93671678  0.09506396  0.54324408  1
  O2-  O470  1  0.88559543  0.03532841  0.87835653  1
  O2-  O471  1  0.91920342  0.34542194  0.18793143  1
  O2-  O472  1  0.86322122  0.29449869  0.51236069  1
  O2-  O473  1  0.92175066  0.32211522  0.85289912  1
  O2-  O474  1  0.93464888  0.59228151  0.19244771  1
  O2-  O475  1  0.85410017  0.54746719  0.52873564  1
  O2-  O476  1  0.92829078  0.57460177  0.85191341  1
  O2-  O477  1  0.93766713  0.86640475  0.19936371  1
  O2-  O478  1  0.92167859  0.84373606  0.51882400  1
  O2-  O479  1  0.91810863  0.82860041  0.84671986  1
  O2-  O480  1  0.15978090  0.10063828  0.32181325  1
  O2-  O481  1  0.19103847  0.09536795  0.63510533  1
  O2-  O482  1  0.16952602  0.09996018  0.97201450  1
  O2-  O483  1  0.13241832  0.35566623  0.31649225  1
  O2-  O484  1  0.18109905  0.34749432  0.63427987  1
  O2-  O485  1  0.21429269  0.29144028  0.94520938  1
  O2-  O486  1  0.16458507  0.57920881  0.30827945  1
  O2-  O487  1  0.16564015  0.58520231  0.63925771  1
  O2-  O488  1  0.16854664  0.59526813  0.97200090  1
  O2-  O489  1  0.15102840  0.82903532  0.30905760  1
  O2-  O490  1  0.16916188  0.84142746  0.64536373  1
  O2-  O491  1  0.17373391  0.84065504  0.97542482  1
  O2-  O492  1  0.40715448  0.08474357  0.29610916  1
  O2-  O493  1  0.41833760  0.08672701  0.63648881  1
  O2-  O494  1  0.42453388  0.10526019  1.05542192  1
  O2-  O495  1  0.42084385  0.34096525  0.30954865  1
  O2-  O496  1  0.41621838  0.32731814  0.63354605  1
  O2-  O497  1  0.44364751  0.36126289  0.97027787  1
  O2-  O498  1  0.42008977  0.58957025  0.31107979  1
  O2-  O499  1  0.42117903  0.59517266  0.64917049  1
  O2-  O500  1  0.41756766  0.59364463  0.97705270  1
  O2-  O501  1  0.41136784  0.83438898  0.30970711  1
  O2-  O502  1  0.40966364  0.83351788  0.64608932  1
  O2-  O503  1  0.40553366  0.84179896  0.98225491  1
  O2-  O504  1  0.64750147  0.07781290  0.31485366  1
  O2-  O505  1  0.73671167  0.17160499  0.57968750  1
  O2-  O506  1  0.65786033  0.07877588  0.98869764  1
  O2-  O507  1  0.66961349  0.32428435  0.31100783  1
  O2-  O508  1  0.67350989  0.33009323  0.63832642  1
  O2-  O509  1  0.68753255  0.35500700  0.98863810  1
  O2-  O510  1  0.66900463  0.57636263  0.31160091  1
  O2-  O511  1  0.69782378  0.56622387  0.62857609  1
  O2-  O512  1  0.69701645  0.62922214  1.01027687  1
  O2-  O513  1  0.66247197  0.83189569  0.29086012  1
  O2-  O514  1  0.66874642  0.85289751  0.64463567  1
  O2-  O515  1  0.63571044  0.81958851  0.96736862  1
  O2-  O516  1  0.90992920  0.08887057  0.31209056  1
  O2-  O517  1  0.93423971  0.08296274  0.60994276  1
  O2-  O518  1  0.90501648  0.06596229  1.00651754  1
  O2-  O519  1  0.91148174  0.32553838  0.30832966  1
  O2-  O520  1  0.92817981  0.33772680  0.63353468  1
  O2-  O521  1  0.92163893  0.32735470  0.97442189  1
  O2-  O522  1  0.91464104  0.57908141  0.31497021  1
  O2-  O523  1  0.91797358  0.58066692  0.64985086  1
  O2-  O524  1  0.92676668  0.59694868  0.97520884  1
  O2-  O525  1  0.92255394  0.84559219  0.32103482  1
  O2-  O526  1  0.92165423  0.83946858  0.64337629  1
  O2-  O527  1  0.99129113  0.94085359  1.02119705  1
  O2-  O528  1  0.08025599  0.16662088  0.02644678  1
  O2-  O529  1  0.07214821  0.18670771  0.35903296  1
  O2-  O530  1  0.09500317  0.17491906  0.65848925  1
  O2-  O531  1  0.04673053  0.46278905  0.03661968  1
  O2-  O532  1  0.08434550  0.39758917  0.33931723  1
  O2-  O533  1  0.09057563  0.41914052  0.68226537  1
  O2-  O534  1  0.09439357  0.68368024  0.01545903  1
  O2-  O535  1  0.08254353  0.66344419  0.35343259  1
  O2-  O536  1  0.09034961  0.67433415  0.68336958  1
  O2-  O537  1  0.07349344  0.94179157  0.02648529  1
  O2-  O538  1  0.08911551  0.92923545  0.35628233  1
  O2-  O539  1  0.09231499  0.93431822  0.67872683  1
  O2-  O540  1  0.33838629  0.17950485  -0.00657308  1
  O2-  O541  1  0.33248612  0.17461290  0.34730687  1
  O2-  O542  1  0.34252273  0.17049945  0.67015652  1
  O2-  O543  1  0.32786249  0.43505305  0.02024069  1
  O2-  O544  1  0.35023735  0.42434127  0.35142395  1
  O2-  O545  1  0.34526611  0.42207762  0.67662487  1
  O2-  O546  1  0.33236516  0.67447600  0.01573561  1
  O2-  O547  1  0.33857998  0.67664364  0.34536948  1
  O2-  O548  1  0.32975621  0.67091978  0.68738312  1
  O2-  O549  1  0.31833968  0.91760793  0.02464608  1
  O2-  O550  1  0.32516013  0.91658422  0.34621535  1
  O2-  O551  1  0.33635022  0.92890486  0.68316540  1
  O2-  O552  1  0.60120372  0.18283040  0.03550210  1
  O2-  O553  1  0.58535789  0.17289907  0.34423937  1
  O2-  O554  1  0.59764086  0.16118327  0.64627234  1
  O2-  O555  1  0.62006935  0.46244167  -0.02969480  1
  O2-  O556  1  0.58687027  0.41566237  0.35421898  1
  O2-  O557  1  0.58496936  0.40970556  0.67108323  1
  O2-  O558  1  0.58423556  0.68169838  0.03747852  1
  O2-  O559  1  0.58980708  0.66775024  0.34731932  1
  O2-  O560  1  0.57869668  0.69344551  0.70036708  1
  O2-  O561  1  0.57415398  0.90979534  0.02468975  1
  O2-  O562  1  0.57383166  0.91003783  0.34543467  1
  O2-  O563  1  0.58562367  0.92958539  0.68162985  1
  O2-  O564  1  0.83227873  0.16240536  0.01083389  1
  O2-  O565  1  0.81519245  0.16486831  0.35192077  1
  O2-  O566  1  0.85465107  0.16586319  0.65303755  1
  O2-  O567  1  0.88782883  0.44845181  0.02812662  1
  O2-  O568  1  0.83097018  0.41023952  0.34622853  1
  O2-  O569  1  0.83684483  0.40954615  0.68382982  1
  O2-  O570  1  0.88738147  0.70888176  0.03830112  1
  O2-  O571  1  0.83723469  0.67239131  0.34921004  1
  O2-  O572  1  0.84716660  0.67402152  0.69729082  1
  O2-  O573  1  0.83445217  0.88208905  0.04707704  1
  O2-  O574  1  0.82774313  0.92265783  0.34982648  1
  O2-  O575  1  0.83731667  0.92496818  0.67562758  1
