# generated using pymatgen
data_H2O
_symmetry_space_group_name_H-M   'P 1'
_cell_length_a   17.98643058
_cell_length_b   17.98937339
_cell_length_c   22.01302243
_cell_angle_alpha   90.02253937
_cell_angle_beta   89.97725305
_cell_angle_gamma   119.94235954
_symmetry_Int_Tables_number   1
_chemical_formula_structural   H2O
_chemical_formula_sum   'H384 O192'
_cell_volume   6171.96195168
_cell_formula_units_Z   192
loop_
 _symmetry_equiv_pos_site_id
 _symmetry_equiv_pos_as_xyz
  1  'x, y, z'
loop_
 _atom_type_symbol
 _atom_type_oxidation_number
  H+  1.0
  O2-  -2.0
loop_
 _atom_site_type_symbol
 _atom_site_label
 _atom_site_symmetry_multiplicity
 _atom_site_fract_x
 _atom_site_fract_y
 _atom_site_fract_z
 _atom_site_occupancy
  H+  H0  1  0.82391550  0.15579317  0.39167687  1
  H+  H1  1  0.89722721  0.79410207  0.99357631  1
  H+  H2  1  0.84907987  0.12644509  0.66658953  1
  H+  H3  1  0.68962834  0.59048915  0.23033184  1
  H+  H4  1  0.11769021  0.89323397  1.00442636  1
  H+  H5  1  0.86061757  0.97526652  0.83796981  1
  H+  H6  1  0.63603600  0.77272036  0.32542132  1
  H+  H7  1  0.13879395  0.86123073  0.84811993  1
  H+  H8  1  0.61391664  0.60374465  0.15172879  1
  H+  H9  1  0.38373946  0.86153779  -0.00734306  1
  H+  H10  1  0.13993385  0.86630781  0.15348046  1
  H+  H11  1  0.21976251  0.86708920  1.00490581  1
  H+  H12  1  0.13733958  0.76308183  0.32998479  1
  H+  H13  1  0.37097571  0.84917649  0.33170637  1
  H+  H14  1  0.53002933  0.63541804  0.32819839  1
  H+  H15  1  0.13711918  0.99093122  0.48274234  1
  H+  H16  1  0.45871737  0.84659798  0.47339725  1
  H+  H17  1  0.07718299  0.01656647  0.60407430  1
  H+  H18  1  0.61062050  0.74174764  0.83077716  1
  H+  H19  1  0.90989758  0.85725208  0.67718572  1
  H+  H20  1  0.36006816  0.96698193  0.49224627  1
  H+  H21  1  0.61933391  0.56364240  1.00173520  1
  H+  H22  1  0.70746774  0.56702160  1.00828671  1
  H+  H23  1  0.79641596  0.68223267  -0.03497050  1
  H+  H24  1  0.63958734  0.56630251  0.54142733  1
  H+  H25  1  0.59703522  0.42292861  0.01241759  1
  H+  H26  1  0.81692001  0.43372234  0.01540939  1
  H+  H27  1  0.76926390  0.88407847  1.01070327  1
  H+  H28  1  0.11363839  0.51069961  0.20426406  1
  H+  H29  1  0.88886636  0.73817304  0.82244223  1
  H+  H30  1  0.77098986  0.63506440  0.32502565  1
  H+  H31  1  0.38860702  1.03580444  0.00216198  1
  H+  H32  1  0.12303139  0.14526761  0.49328389  1
  H+  H33  1  0.42286027  0.57270381  0.26159406  1
  H+  H34  1  0.51183491  0.11987714  0.67923233  1
  H+  H35  1  0.37445953  0.14647123  -0.00201488  1
  H+  H36  1  0.84283540  0.11253973  0.49017981  1
  H+  H37  1  0.59825295  0.45196182  0.82469698  1
  H+  H38  1  0.45798390  0.34865000  0.84299394  1
  H+  H39  1  0.96558898  0.32342633  0.50718453  1
  H+  H40  1  0.80301635  0.30650497  0.96148593  1
  H+  H41  1  0.14803626  0.62433188  0.83850945  1
  H+  H42  1  0.67803442  0.53566622  0.17193464  1
  H+  H43  1  1.00832720  0.64074964  0.48725987  1
  H+  H44  1  0.73471226  0.88190311  0.62392101  1
  H+  H45  1  0.38687576  0.63142209  0.33145160  1
  H+  H46  1  0.59786463  0.64430138  0.48704027  1
  H+  H47  1  1.04024148  0.62502866  0.34291968  1
  H+  H48  1  0.63783535  0.27393429  0.17538736  1
  H+  H49  1  0.36611366  0.21621043  0.16026111  1
  H+  H50  1  0.88094938  0.52727742  0.18512860  1
  H+  H51  1  0.39160248  0.62883702  0.99136159  1
  H+  H52  1  1.03035794  0.63609789  0.82541374  1
  H+  H53  1  0.36015444  0.38510332  0.82844902  1
  H+  H54  1  0.85884603  0.23400082  0.00574663  1
  H+  H55  1  0.62037410  0.54073086  0.63660932  1
  H+  H56  1  0.63727373  0.60930899  0.31846572  1
  H+  H57  1  0.72955584  0.11234556  0.17762131  1
  H+  H58  1  0.61855333  0.33443379  0.66198126  1
  H+  H59  1  0.38006267  1.01025223  0.32364288  1
  H+  H60  1  0.98160771  0.64070012  0.99054533  1
  H+  H61  1  0.38370160  0.01914563  0.84421433  1
  H+  H62  1  0.11301599  0.22930491  0.49674111  1
  H+  H63  1  0.09357529  0.46220244  0.47422030  1
  H+  H64  1  0.62392337  0.01215343  0.84483720  1
  H+  H65  1  0.34558189  0.66488290  0.10234866  1
  H+  H66  1  1.03972884  0.40578310  0.83229295  1
  H+  H67  1  0.62626864  0.42750355  0.49945156  1
  H+  H68  1  0.35355933  0.12944489  0.83837991  1
  H+  H69  1  0.15320896  0.11356378  0.33714914  1
  H+  H70  1  0.64105375  0.26502420  0.84038078  1
  H+  H71  1  0.50970289  0.33525278  1.01334411  1
  H+  H72  1  0.86743458  0.66095929  0.99086646  1
  H+  H73  1  1.02917689  0.92209014  0.52580103  1
  H+  H74  1  0.38059355  0.76463086  0.66083293  1
  H+  H75  1  0.34967524  0.21673807  0.83616834  1
  H+  H76  1  0.85639100  0.74628744  0.48032372  1
  H+  H77  1  0.75516142  0.36812189  0.34256317  1
  H+  H78  1  0.36663549  0.23332856  0.99797412  1
  H+  H79  1  0.56862929  0.82877240  0.65238030  1
  H+  H80  1  0.09076131  0.18967945  0.05764373  1
  H+  H81  1  0.59337607  0.97250777  0.48661489  1
  H+  H82  1  0.61310097  0.98020692  0.17342384  1
  H+  H83  1  0.76805841  0.88444061  0.32911467  1
  H+  H84  1  0.97624335  0.86161265  0.31781103  1
  H+  H85  1  0.36107175  0.13494440  0.66016159  1
  H+  H86  1  0.63247898  0.36857271  0.33604621  1
  H+  H87  1  0.24795736  0.11997470  -0.01010778  1
  H+  H88  1  0.35657777  0.46437667  0.16092527  1
  H+  H89  1  0.46198189  0.61493683  0.51329949  1
  H+  H90  1  0.60403016  0.88307790  0.83148046  1
  H+  H91  1  0.38480615  0.77324489  0.83637881  1
  H+  H92  1  0.02961400  0.89072363  0.83453197  1
  H+  H93  1  0.47228868  0.10868277  0.84408948  1
  H+  H94  1  0.15562512  0.09288686  0.24005105  1
  H+  H95  1  0.66571143  0.54878552  0.64104192  1
  H+  H96  1  0.18444182  0.59076917  0.24071074  1
  H+  H97  1  0.48689333  0.11373719  0.17664339  1
  H+  H98  1  0.85305416  0.47634597  0.49761848  1
  H+  H99  1  0.11453261  0.47845280  0.30896997  1
  H+  H100  1  0.19624062  0.29543021  0.05225170  1
  H+  H101  1  0.12230971  0.39804487  0.81698131  1
  H+  H102  1  0.60639413  0.12799251  0.83290927  1
  H+  H103  1  0.11393555  0.35008820  0.30723120  1
  H+  H104  1  0.52624827  0.63168609  0.99324257  1
  H+  H105  1  0.89056479  0.49859234  0.33414351  1
  H+  H106  1  0.62173945  0.14224450  0.16462871  1
  H+  H107  1  0.96594189  0.08493369  0.14713136  1
  H+  H108  1  0.37624176  0.97712907  0.16957903  1
  H+  H109  1  0.23122068  0.36704691  0.82926663  1
  H+  H110  1  0.65073281  0.88766713  0.00257558  1
  H+  H111  1  0.52917784  0.14730294  1.01397367  1
  H+  H112  1  0.71469442  0.09752603  0.83970620  1
  H+  H113  1  0.27639895  0.88779690  0.67598519  1
  H+  H114  1  0.22114727  0.86100507  0.50263944  1
  H+  H115  1  0.65327355  1.01281127  0.01724691  1
  H+  H116  1  0.38454599  0.36449613  0.65823000  1
  H+  H117  1  0.38386823  0.01712252  0.66503829  1
  H+  H118  1  0.86328241  0.38512155  0.16853530  1
  H+  H119  1  0.39666715  0.11077617  0.17061349  1
  H+  H120  1  0.48489643  0.08837503  0.51268112  1
  H+  H121  1  0.04054918  0.88371516  0.68780499  1
  H+  H122  1  0.88378238  0.35039099  0.32801083  1
  H+  H123  1  0.83043659  0.55645421  0.47988340  1
  H+  H124  1  0.69620503  0.85456690  0.51380696  1
  H+  H125  1  0.01611437  0.47931258  0.70705774  1
  H+  H126  1  0.74519432  0.59567140  0.46791235  1
  H+  H127  1  0.93671895  0.29137050  0.86448870  1
  H+  H128  1  0.35065529  0.48351771  0.67727625  1
  H+  H129  1  0.22422729  0.55372553  0.49552194  1
  H+  H130  1  0.63450308  0.86229648  0.32588721  1
  H+  H131  1  0.77447460  0.38664040  0.16657459  1
  H+  H132  1  0.37119309  0.71702085  0.16404131  1
  H+  H133  1  0.51888584  0.88372721  0.33746322  1
  H+  H134  1  0.25140144  0.12510242  0.49786667  1
  H+  H135  1  0.39176266  0.54016963  0.99104809  1
  H+  H136  1  0.22427212  0.36515423  0.65473997  1
  H+  H137  1  0.71760468  0.10836368  0.32575613  1
  H+  H138  1  0.01480132  0.41229549  0.01762102  1
  H+  H139  1  0.47350889  0.35448959  0.33003511  1
  H+  H140  1  0.72287934  0.86272790  0.84788480  1
  H+  H141  1  0.88633483  0.86087601  0.31564139  1
  H+  H142  1  0.47708859  0.85957116  0.18145900  1
  H+  H143  1  0.31474421  0.71570101  0.49968256  1
  H+  H144  1  0.84419914  0.21041990  0.67346846  1
  H+  H145  1  0.13299000  0.77549728  0.00410122  1
  H+  H146  1  0.11363960  0.39495729  0.15801701  1
  H+  H147  1  0.07290952  0.90746718  0.39462575  1
  H+  H148  1  0.89167090  0.52210384  0.83423252  1
  H+  H149  1  0.86655580  0.14714218  0.00461285  1
  H+  H150  1  0.58338839  0.72453034  0.66694571  1
  H+  H151  1  0.34990781  0.87520262  0.47633609  1
  H+  H152  1  0.38206829  0.22368864  0.49348794  1
  H+  H153  1  0.89315391  0.01560200  0.50599499  1
  H+  H154  1  0.51381157  0.88202699  0.83044550  1
  H+  H155  1  0.22229734  0.36297048  0.17330120  1
  H+  H156  1  0.47005027  0.58277658  0.16539360  1
  H+  H157  1  0.24159642  0.55365115  0.32236271  1
  H+  H158  1  -0.02185190  0.11222402  0.83995423  1
  H+  H159  1  0.51956620  0.12780397  0.33750942  1
  H+  H160  1  0.66359146  0.33714784  -0.00262298  1
  H+  H161  1  0.36546028  0.47407430  0.50471760  1
  H+  H162  1  0.90176923  0.77562942  0.46992015  1
  H+  H163  1  0.97155238  0.19193234  0.62002022  1
  H+  H164  1  0.61259378  0.86236208  0.49720956  1
  H+  H165  1  0.40624918  0.10776854  0.50687617  1
  H+  H166  1  0.36503697  0.21416053  0.34376063  1
  H+  H167  1  0.36936825  0.38758035  0.49640260  1
  H+  H168  1  0.92134920  0.56446102  0.27851825  1
  H+  H169  1  0.55168105  0.47493769  0.13408519  1
  H+  H170  1  0.89744987  0.61411026  0.83345433  1
  H+  H171  1  0.28074199  0.64205405  1.00548120  1
  H+  H172  1  0.16427230  0.33222733  0.88351325  1
  H+  H173  1  0.65211810  0.33503795  0.27167201  1
  H+  H174  1  0.36797002  0.12600287  0.34127625  1
  H+  H175  1  0.13792696  0.28504512  0.11185611  1
  H+  H176  1  1.11486174  0.64790130  0.67003800  1
  H+  H177  1  0.73367981  0.13058441  -0.00877122  1
  H+  H178  1  0.77579139  0.37882414  0.82311059  1
  H+  H179  1  -0.00621597  0.47935309  0.04347010  1
  H+  H180  1  0.27905058  0.97614118  0.05892897  1
  H+  H181  1  0.41103503  0.32250632  0.27292490  1
  H+  H182  1  0.09864027  0.72343061  0.49676677  1
  H+  H183  1  0.87326291  1.02115310  -0.00452333  1
  H+  H184  1  0.75607750  0.11927485  0.49257928  1
  H+  H185  1  0.41009944  0.83235490  0.93263099  1
  H+  H186  1  0.39884896  0.51965666  0.32575522  1
  H+  H187  1  0.97476041  0.36099158  0.17617128  1
  H+  H188  1  0.87533175  0.67977077  0.76414211  1
  H+  H189  1  0.46381193  0.35579667  0.17972524  1
  H+  H190  1  0.37200786  0.34712654  0.18066800  1
  H+  H191  1  0.89245270  1.03114867  0.30844603  1
  H+  H192  1  0.38862016  0.61902057  0.83462423  1
  H+  H193  1  0.27912163  0.63995094  0.82324493  1
  H+  H194  1  0.63689584  0.36196011  0.17204516  1
  H+  H195  1  0.13753977  0.31196443  0.21658241  1
  H+  H196  1  0.35228747  0.16148364  0.43475134  1
  H+  H197  1  0.12278850  0.89512442  0.49265151  1
  H+  H198  1  0.99430291  0.10762616  1.02068960  1
  H+  H199  1  1.03495317  0.90624179  1.00336601  1
  H+  H200  1  0.85746123  0.22117145  0.33522115  1
  H+  H201  1  0.11371607  0.13253654  0.82926791  1
  H+  H202  1  0.11791313  0.65047712  1.01062539  1
  H+  H203  1  0.56257846  0.62702297  0.67933329  1
  H+  H204  1  0.37708505  0.27036782  0.65319107  1
  H+  H205  1  0.69925072  0.72135215  0.64560802  1
  H+  H206  1  0.76551204  0.65486967  0.86229482  1
  H+  H207  1  0.59940191  0.96813921  0.67384630  1
  H+  H208  1  0.13300678  0.54657857  0.99621474  1
  H+  H209  1  0.79460156  0.66308627  0.15109221  1
  H+  H210  1  0.83073458  0.48671973  0.64078832  1
  H+  H211  1  0.62746782  0.31128858  0.50466527  1
  H+  H212  1  -0.03614151  0.61651604  0.18582480  1
  H+  H213  1  0.13447135  0.53214017  0.65349826  1
  H+  H214  1  0.36135352  0.88138606  0.67957715  1
  H+  H215  1  0.03483397  0.90945222  0.15780835  1
  H+  H216  1  0.11754463  0.72775754  0.83049865  1
  H+  H217  1  0.36503051  0.47773953  0.82660696  1
  H+  H218  1  0.58899397  0.79556368  0.58994078  1
  H+  H219  1  0.14442878  0.27251627  0.65402591  1
  H+  H220  1  0.14984042  0.53637013  0.83885045  1
  H+  H221  1  0.61487219  0.78765558  1.00605695  1
  H+  H222  1  0.27187876  0.88389706  0.83151623  1
  H+  H223  1  0.82964258  0.91794244  0.06960368  1
  H+  H224  1  0.14705735  0.41292865  0.48098601  1
  H+  H225  1  0.79602180  0.74196124  0.63518766  1
  H+  H226  1  0.27302916  0.13218893  0.64993150  1
  H+  H227  1  0.93662814  0.72891011  0.67012608  1
  H+  H228  1  0.39539687  0.80505417  0.41942953  1
  H+  H229  1  0.92656702  0.84264971  0.90206022  1
  H+  H230  1  0.62794639  0.68371381  -0.02012564  1
  H+  H231  1  0.85555573  0.35657656  0.49789715  1
  H+  H232  1  0.34151709  0.34861232  0.00321857  1
  H+  H233  1  0.83622934  0.20821282  0.81381263  1
  H+  H234  1  0.48419544  0.35337795  0.50400498  1
  H+  H235  1  0.81487452  0.83309742  0.48958841  1
  H+  H236  1  0.22483108  0.85982409  0.15819494  1
  H+  H237  1  0.94054971  0.92168770  0.54140727  1
  H+  H238  1  0.08006737  0.66481963  0.07293367  1
  H+  H239  1  0.98573104  0.67824042  0.68689840  1
  H+  H240  1  0.62829335  0.11111601  0.32554411  1
  H+  H241  1  0.64147974  0.52204177  0.32627228  1
  H+  H242  1  0.61773408  0.14933370  1.01188617  1
  H+  H243  1  0.10827381  0.96942919  0.33773717  1
  H+  H244  1  0.70799217  0.09893419  0.65618802  1
  H+  H245  1  0.88187943  0.11252083  0.31161082  1
  H+  H246  1  0.91616004  0.32509729  0.26919923  1
  H+  H247  1  0.13072324  0.05734435  0.17505053  1
  H+  H248  1  0.60699159  0.97561841  0.33362185  1
  H+  H249  1  0.64058360  0.86720101  0.17606904  1
  H+  H250  1  0.38163641  0.86141232  0.83860884  1
  H+  H251  1  0.86672158  0.13496418  0.15595238  1
  H+  H252  1  0.11787400  0.09647153  0.65026966  1
  H+  H253  1  0.14967642  0.02292544  0.99323239  1
  H+  H254  1  0.74649457  0.92814789  0.61947862  1
  H+  H255  1  0.75991346  0.34360155  0.50355954  1
  H+  H256  1  0.87280982  0.24066071  0.50699296  1
  H+  H257  1  0.22744299  0.11243492  0.84536726  1
  H+  H258  1  0.39130541  0.60356360  0.16889202  1
  H+  H259  1  0.28349670  0.39774069  0.00142905  1
  H+  H260  1  0.11400828  0.22127811  0.82028361  1
  H+  H261  1  0.63875956  0.35201701  0.83818905  1
  H+  H262  1  0.63222717  0.18050865  0.50912616  1
  H+  H263  1  0.50358450  0.36214103  0.67470225  1
  H+  H264  1  0.86718455  0.58804739  0.64152708  1
  H+  H265  1  0.36838968  0.73201803  1.00482111  1
  H+  H266  1  0.87356405  0.37467990  1.00186673  1
  H+  H267  1  0.60385718  0.21951641  0.33873565  1
  H+  H268  1  0.84526395  0.36654444  0.66748290  1
  H+  H269  1  0.34512469  0.42776946  0.40119584  1
  H+  H270  1  0.26014897  0.87313646  0.33326545  1
  H+  H271  1  0.46366962  0.85533860  0.66589655  1
  H+  H272  1  0.79133722  0.82732197  0.55797318  1
  H+  H273  1  0.36781294  0.38922744  0.34413666  1
  H+  H274  1  0.03209032  0.14316475  0.67220211  1
  H+  H275  1  0.95745862  0.35473322  0.66403603  1
  H+  H276  1  0.12043586  0.97575031  0.67866631  1
  H+  H277  1  0.51240050  0.64588553  0.82508376  1
  H+  H278  1  0.37939978  0.76086344  0.32878207  1
  H+  H279  1  0.60221249  0.20696978  0.67875988  1
  H+  H280  1  0.15057447  0.87146537  0.66416582  1
  H+  H281  1  0.90719453  0.98609358  0.69350123  1
  H+  H282  1  0.13578481  0.02260315  0.84813599  1
  H+  H283  1  0.16767490  0.82890196  0.90615181  1
  H+  H284  1  0.86698926  0.38346811  0.82214405  1
  H+  H285  1  0.12845956  0.22795267  0.33695014  1
  H+  H286  1  0.88778775  0.11080140  0.83865176  1
  H+  H287  1  0.88032179  0.87691623  0.17012571  1
  H+  H288  1  0.58010561  0.66529733  0.39046904  1
  H+  H289  1  0.61918142  0.09963870  0.66225929  1
  H+  H290  1  0.57616068  0.15539116  0.77281333  1
  H+  H291  1  0.65820441  0.83262756  0.90540880  1
  H+  H292  1  0.41901433  0.07268515  0.60394400  1
  H+  H293  1  0.03532239  0.25938624  0.29004550  1
  H+  H294  1  0.88643166  0.26986273  0.17325963  1
  H+  H295  1  0.37041891  0.88383878  0.16611881  1
  H+  H296  1  0.57403990  0.91294031  0.73624559  1
  H+  H297  1  0.17630999  0.08527928  0.92861753  1
  H+  H298  1  0.16650423  0.33942170  0.56099791  1
  H+  H299  1  0.86219188  0.72017102  0.33395847  1
  H+  H300  1  0.09647337  0.62963005  0.17927641  1
  H+  H301  1  0.32731216  0.93128058  0.08431385  1
  H+  H302  1  0.33882043  0.66099523  0.76334439  1
  H+  H303  1  0.57784660  0.91992004  0.42371847  1
  H+  H304  1  0.56164850  0.40108632  0.10233871  1
  H+  H305  1  0.92833675  0.60704657  0.92845753  1
  H+  H306  1  0.13251910  0.84970981  0.32567260  1
  H+  H307  1  0.18347359  0.09208642  0.55267986  1
  H+  H308  1  0.88275583  0.78128793  0.15733154  1
  H+  H309  1  0.34796582  0.16813013  0.09681555  1
  H+  H310  1  0.33163234  0.41983220  0.73196302  1
  H+  H311  1  0.39865648  0.32894044  0.90292245  1
  H+  H312  1  0.56519545  0.38847522  0.76861988  1
  H+  H313  1  0.23010749  0.09633056  0.33293274  1
  H+  H314  1  0.91351235  0.08255223  0.93683898  1
  H+  H315  1  0.57353969  0.61341184  0.08999732  1
  H+  H316  1  0.33058597  0.91469351  0.77085282  1
  H+  H317  1  0.81601238  0.91367974  0.67489162  1
  H+  H318  1  0.17476087  0.59750527  0.93400085  1
  H+  H319  1  0.06559809  0.43744496  0.73601921  1
  H+  H320  1  0.83339892  0.91475882  0.78021196  1
  H+  H321  1  0.83765117  0.70443843  0.08599808  1
  H+  H322  1  0.42080237  0.08320794  0.93699650  1
  H+  H323  1  0.66650873  0.08797001  0.93540800  1
  H+  H324  1  0.32123963  0.91000364  0.39239325  1
  H+  H325  1  0.66709629  0.08476004  0.23682127  1
  H+  H326  1  0.42250027  0.59396820  0.89496886  1
  H+  H327  1  0.09686461  0.92259111  0.77896868  1
  H+  H328  1  0.59775566  0.40333458  0.42776609  1
  H+  H329  1  0.81066257  0.38870221  0.40363492  1
  H+  H330  1  0.91559951  0.83926458  0.22872429  1
  H+  H331  1  0.76670498  0.88463110  0.16326694  1
  H+  H332  1  0.07819757  0.44213073  0.11266376  1
  H+  H333  1  0.85755989  0.97670752  0.15907984  1
  H+  H334  1  0.89062926  0.86585226  0.84396897  1
  H+  H335  1  0.18945105  0.59548590  0.59975033  1
  H+  H336  1  0.58655512  0.72555001  0.48370369  1
  H+  H337  1  0.14619171  0.78100533  0.66037767  1
  H+  H338  1  0.83693193  0.92410666  0.38208291  1
  H+  H339  1  0.95532016  0.85790728  0.61500351  1
  H+  H340  1  0.41560240  0.07534982  0.26689123  1
  H+  H341  1  0.36622246  0.59725166  0.52392864  1
  H+  H342  1  0.70553928  0.66254263  0.55443204  1
  H+  H343  1  0.69821321  0.35074763  0.93017399  1
  H+  H344  1  0.08886083  0.15846849  0.73205747  1
  H+  H345  1  0.65361024  0.29351766  0.57072889  1
  H+  H346  1  0.89688728  0.88211050  0.99557683  1
  H+  H347  1  0.11297737  0.19333609  0.94094311  1
  H+  H348  1  0.69362297  0.59942500  0.90989549  1
  H+  H349  1  0.09172168  0.66650372  0.40291966  1
  H+  H350  1  0.11362664  0.18455777  0.40177395  1
  H+  H351  1  0.45394145  0.39221810  0.97934212  1
  H+  H352  1  0.85569757  0.53970930  0.55445083  1
  H+  H353  1  0.22936651  0.36429185  0.50386639  1
  H+  H354  1  0.13573106  0.45678489  0.37572144  1
  H+  H355  1  0.90643526  0.31084759  0.60202051  1
  H+  H356  1  0.68287860  0.47649617  0.38553696  1
  H+  H357  1  0.59041747  0.17234010  0.10508506  1
  H+  H358  1  0.91555276  0.34714714  0.90741192  1
  H+  H359  1  0.59743262  0.44261679  0.67755470  1
  H+  H360  1  0.41335968  0.82519719  0.23800013  1
  H+  H361  1  0.16761134  0.83847123  0.56448250  1
  H+  H362  1  0.82494030  0.40422247  0.72735645  1
  H+  H363  1  0.32106990  0.39603605  0.10506904  1
  H+  H364  1  0.85273760  0.43352575  0.08195844  1
  H+  H365  1  0.83335633  0.16912079  0.10153228  1
  H+  H366  1  0.92937209  0.10269497  0.58839426  1
  H+  H367  1  0.70914503  0.99417930  0.06322491  1
  H+  H368  1  0.39397664  0.60937526  0.62133008  1
  H+  H369  1  0.09345682  0.22089234  0.94731406  1
  H+  H370  1  0.09538810  0.67614982  0.73443708  1
  H+  H371  1  0.10883901  0.72078802  0.15794035  1
  H+  H372  1  0.58473327  0.68532116  0.76361187  1
  H+  H373  1  0.42390252  0.33340710  0.56317444  1
  H+  H374  1  0.80500031  0.61530932  0.40710141  1
  H+  H375  1  0.81663121  0.14401448  0.76014394  1
  H+  H376  1  0.92830145  0.08780595  0.21684633  1
  H+  H377  1  0.27965287  0.61603257  0.66783868  1
  H+  H378  1  0.71118628  0.34077532  0.66270023  1
  H+  H379  1  0.09342745  0.94030543  0.10004077  1
  H+  H380  1  0.64337235  0.07723135  0.56726800  1
  H+  H381  1  0.98039398  0.10786097  0.49958112  1
  H+  H382  1  0.67067973  0.83422563  0.23204476  1
  H+  H383  1  0.58919277  0.92580852  0.11369630  1
  O2-  O384  1  0.01966880  0.06315068  0.09638104  1
  O2-  O385  1  0.08285787  0.16723700  0.48498243  1
  O2-  O386  1  0.08197175  0.15930578  0.80966470  1
  O2-  O387  1  0.07926129  0.42495095  0.15497827  1
  O2-  O388  1  0.14425794  0.46135459  0.45958541  1
  O2-  O389  1  0.09391975  0.43267049  0.80847398  1
  O2-  O390  1  0.07400160  0.65702392  0.15157179  1
  O2-  O391  1  0.06981348  0.66250674  0.48377332  1
  O2-  O392  1  0.09191621  0.66909176  0.81175512  1
  O2-  O393  1  0.09502173  0.93683911  0.14483340  1
  O2-  O394  1  0.09480851  0.92858194  0.47751004  1
  O2-  O395  1  0.09238354  0.92069299  0.82423747  1
  O2-  O396  1  0.35071027  0.16062788  0.14087214  1
  O2-  O397  1  0.35466334  0.16225479  0.48080284  1
  O2-  O398  1  0.31857767  0.15505358  0.82473428  1
  O2-  O399  1  0.32377811  0.40145929  0.15009673  1
  O2-  O400  1  0.33689135  0.41692224  0.48455856  1
  O2-  O401  1  0.33215617  0.41786426  0.81152357  1
  O2-  O402  1  0.34705514  0.65847123  0.14679224  1
  O2-  O403  1  0.25704739  0.67208043  0.51513753  1
  O2-  O404  1  0.34019336  0.66744995  0.80845847  1
  O2-  O405  1  0.34334812  0.91772234  0.15197884  1
  O2-  O406  1  0.32123739  0.91024161  0.47322253  1
  O2-  O407  1  0.33249988  0.91495767  0.81665045  1
  O2-  O408  1  0.59149915  0.17326834  0.15115770  1
  O2-  O409  1  0.59937546  0.11790197  0.49830406  1
  O2-  O410  1  0.57900685  0.16122522  0.81825727  1
  O2-  O411  1  0.56277021  0.42725802  0.14292306  1
  O2-  O412  1  0.58651990  0.37716999  0.47612353  1
  O2-  O413  1  0.56841761  0.39115779  0.81438323  1
  O2-  O414  1  0.55894900  0.58336455  0.12930216  1
  O2-  O415  1  0.55989407  0.66434845  0.47023427  1
  O2-  O416  1  0.57647275  0.68221183  0.81000688  1
  O2-  O417  1  0.58163965  0.91898854  0.15811314  1
  O2-  O418  1  0.56947862  0.91408901  0.46947350  1
  O2-  O419  1  0.57526986  0.91394660  0.81570636  1
  O2-  O420  1  0.83382669  0.16540216  0.14655374  1
  O2-  O421  1  0.81658582  0.14729925  0.47792978  1
  O2-  O422  1  0.82032874  0.14872009  0.80610056  1
  O2-  O423  1  0.83546867  0.41768918  0.15288395  1
  O2-  O424  1  0.81932633  0.38171393  0.48649477  1
  O2-  O425  1  0.83568414  0.41090208  0.80572706  1
  O2-  O426  1  0.84789778  0.70777294  0.13028268  1
  O2-  O427  1  0.77801540  0.57511614  0.44434638  1
  O2-  O428  1  0.85832841  0.67790831  0.80710053  1
  O2-  O429  1  0.82837740  0.91426648  0.14610551  1
  O2-  O430  1  0.81579153  0.86850909  0.52363408  1
  O2-  O431  1  0.82758948  0.91360191  0.82495158  1
  O2-  O432  1  0.14207892  0.10724424  0.19981762  1
  O2-  O433  1  0.18830573  0.09842078  0.50808675  1
  O2-  O434  1  0.16452364  0.08420439  0.86171628  1
  O2-  O435  1  0.15807862  0.33535560  0.17490718  1
  O2-  O436  1  0.16730934  0.34006018  0.51513823  1
  O2-  O437  1  0.16731868  0.33544708  0.83922767  1
  O2-  O438  1  0.12267133  0.55620472  0.23390352  1
  O2-  O439  1  0.26574729  0.59606485  0.52549355  1
  O2-  O440  1  0.18070242  0.59635249  0.85452008  1
  O2-  O441  1  0.16363668  0.82766413  0.14705490  1
  O2-  O442  1  0.16144476  0.83617402  0.51941973  1
  O2-  O443  1  0.16776398  0.82848986  0.86065256  1
  O2-  O444  1  0.42553079  0.08058539  0.18983239  1
  O2-  O445  1  0.42518930  0.06884621  0.52516400  1
  O2-  O446  1  0.41283797  0.07883179  0.86104934  1
  O2-  O447  1  0.40495821  0.31986980  0.19640084  1
  O2-  O448  1  0.42356449  0.33084260  0.51793175  1
  O2-  O449  1  0.39782937  0.32624782  0.85595856  1
  O2-  O450  1  0.41368869  0.56514383  0.18454566  1
  O2-  O451  1  0.40894896  0.58165635  0.53801153  1
  O2-  O452  1  0.42382389  0.59246985  0.84955190  1
  O2-  O453  1  0.41508010  0.82587546  0.19301172  1
  O2-  O454  1  0.39630924  0.81089313  0.46380905  1
  O2-  O455  1  0.41315933  0.83198582  0.85421364  1
  O2-  O456  1  0.66831732  0.08356395  0.19074509  1
  O2-  O457  1  0.65021410  0.08022144  0.52099402  1
  O2-  O458  1  0.65745467  0.07370566  0.85893039  1
  O2-  O459  1  0.66734507  0.33540810  0.19029970  1
  O2-  O460  1  0.65916348  0.28608964  0.52606755  1
  O2-  O461  1  0.67517082  0.32776548  0.85107794  1
  O2-  O462  1  0.69970306  0.59521356  0.18485802  1
  O2-  O463  1  0.67678963  0.62046072  0.52087193  1
  O2-  O464  1  0.73347902  0.65869057  0.89742764  1
  O2-  O465  1  0.67356922  0.83820608  0.18692127  1
  O2-  O466  1  0.63341612  0.82439371  0.51602830  1
  O2-  O467  1  0.66061179  0.83091305  0.86002010  1
  O2-  O468  1  0.91562449  0.07938723  0.17213809  1
  O2-  O469  1  0.91847141  0.07676520  0.51483123  1
  O2-  O470  1  0.91831250  0.08299236  0.85684424  1
  O2-  O471  1  0.91348608  0.32962459  0.18960161  1
  O2-  O472  1  0.90835246  0.30106454  0.52428304  1
  O2-  O473  1  0.93625272  0.34537050  0.86480504  1
  O2-  O474  1  0.90533625  0.58507156  0.20312266  1
  O2-  O475  1  0.86933817  0.53899716  0.50746792  1
  O2-  O476  1  0.92626505  0.58224879  0.84848679  1
  O2-  O477  1  0.91429294  0.84577004  0.18195331  1
  O2-  O478  1  0.99290819  0.92767377  0.56005980  1
  O2-  O479  1  0.92567225  0.83970351  0.85654140  1
  O2-  O480  1  0.16898171  0.07096122  0.32066367  1
  O2-  O481  1  0.12949049  0.05430401  0.62797801  1
  O2-  O482  1  0.18389751  0.08513634  0.97578638  1
  O2-  O483  1  0.09787077  0.29283380  0.28947322  1
  O2-  O484  1  0.16551963  0.33076417  0.63774390  1
  O2-  O485  1  0.13546123  0.26813961  1.06754084  1
  O2-  O486  1  0.27711755  0.61133848  0.30359051  1
  O2-  O487  1  0.17882094  0.59183291  0.64378381  1
  O2-  O488  1  0.17663636  0.60255962  0.97927482  1
  O2-  O489  1  0.16693124  0.82367899  0.31306314  1
  O2-  O490  1  0.17719735  0.84085967  0.64396595  1
  O2-  O491  1  0.16296070  0.83415125  0.98457946  1
  O2-  O492  1  0.41271662  0.07254002  0.31235781  1
  O2-  O493  1  0.41529887  0.07755933  0.64894849  1
  O2-  O494  1  0.42408195  0.09253114  0.98225010  1
  O2-  O495  1  0.41295402  0.32273228  0.31868191  1
  O2-  O496  1  0.41424060  0.33373803  0.64360049  1
  O2-  O497  1  0.40304958  0.33604696  0.97387044  1
  O2-  O498  1  0.43042067  0.57981359  0.30676338  1
  O2-  O499  1  0.38192188  0.59820279  0.66563770  1
  O2-  O500  1  0.42303183  0.59791847  0.97403469  1
  O2-  O501  1  0.41002700  0.82444142  0.32369283  1
  O2-  O502  1  0.40305298  0.82566367  0.65191840  1
  O2-  O503  1  0.41180232  0.83064469  0.97800484  1
  O2-  O504  1  0.65720129  0.07767271  0.31028821  1
  O2-  O505  1  0.64777530  0.07014702  0.64132886  1
  O2-  O506  1  0.67136567  0.09643314  0.98054888  1
  O2-  O507  1  0.65023407  0.32807658  0.31640194  1
  O2-  O508  1  0.65075009  0.30604148  0.64744894  1
  O2-  O509  1  0.71654561  0.36066517  0.97334457  1
  O2-  O510  1  0.66545410  0.57766996  0.30243094  1
  O2-  O511  1  0.74576786  0.73818026  0.61464403  1
  O2-  O512  1  0.64928395  0.53175435  0.99170497  1
  O2-  O513  1  0.66746146  0.83431966  0.31165790  1
  O2-  O514  1  0.56181448  0.77690302  0.63053738  1
  O2-  O515  1  0.65605329  0.83891455  0.98390378  1
  O2-  O516  1  0.91825582  0.09070000  0.29387896  1
  O2-  O517  1  0.94087740  0.13068452  0.62978199  1
  O2-  O518  1  0.90717449  0.08262352  0.98188487  1
  O2-  O519  1  0.91527086  0.32109617  0.31435581  1
  O2-  O520  1  0.90021360  0.31214718  0.64707265  1
  O2-  O521  1  0.86312545  0.32552717  0.97206731  1
  O2-  O522  1  0.93815939  0.55339280  0.31913741  1
  O2-  O523  1  0.83190222  0.53466088  0.61732205  1
  O2-  O524  1  0.92661354  0.62580468  0.97038511  1
  O2-  O525  1  0.91656048  0.83162518  0.29904158  1
  O2-  O526  1  0.93241645  0.82515485  0.65443602  1
  O2-  O527  1  0.93022953  0.85528892  0.97998951  1
  O2-  O528  1  0.04824073  0.11795077  0.04278445  1
  O2-  O529  1  0.14659755  0.19614424  0.36393991  1
  O2-  O530  1  0.09057669  0.16010724  0.68646161  1
  O2-  O531  1  0.04121989  0.46708083  0.03895049  1
  O2-  O532  1  0.14571492  0.45508234  0.33158164  1
  O2-  O533  1  0.04341268  0.44592678  0.69614396  1
  O2-  O534  1  0.08257649  0.67372963  0.02776010  1
  O2-  O535  1  0.09843976  0.66761774  0.35825265  1
  O2-  O536  1  0.08901125  0.67934299  0.68934382  1
  O2-  O537  1  0.09641681  0.93343377  0.01651597  1
  O2-  O538  1  0.07117294  0.90698659  0.34969849  1
  O2-  O539  1  0.10092707  0.92049314  0.70086313  1
  O2-  O540  1  0.33834886  0.17205046  0.01178622  1
  O2-  O541  1  0.33844336  0.15509181  0.36074327  1
  O2-  O542  1  0.33053512  0.16795843  0.66603314  1
  O2-  O543  1  0.29659574  0.36262520  0.02801292  1
  O2-  O544  1  0.34738288  0.42902408  0.35622758  1
  O2-  O545  1  0.33202663  0.42295581  0.68670111  1
  O2-  O546  1  0.34236532  0.67019056  0.01810857  1
  O2-  O547  1  0.34911843  0.65598457  0.34569033  1
  O2-  O548  1  0.34050078  0.64798457  0.68400420  1
  O2-  O549  1  0.30998879  0.94794979  0.04411733  1
  O2-  O550  1  0.32388801  0.90495099  0.34754369  1
  O2-  O551  1  0.33507497  0.91645205  0.69454910  1
  O2-  O552  1  0.58815997  0.17732956  0.03095566  1
  O2-  O553  1  0.58063258  0.15851234  0.35065931  1
  O2-  O554  1  0.57258515  0.14712154  0.69542290  1
  O2-  O555  1  0.56703191  0.36530591  0.03192825  1
  O2-  O556  1  0.62298082  0.44031153  0.37277184  1
  O2-  O557  1  0.56370402  0.38361419  0.69258117  1
  O2-  O558  1  0.58455402  0.64764281  0.00961554  1
  O2-  O559  1  0.58992516  0.66855537  0.34577217  1
  O2-  O560  1  0.60242198  0.68577673  0.69224547  1
  O2-  O561  1  0.65387413  0.96532533  0.04235314  1
  O2-  O562  1  0.58057068  0.91518380  0.35006034  1
  O2-  O563  1  0.56946379  0.90907814  0.69113179  1
  O2-  O564  1  0.83434348  0.17454091  0.02149312  1
  O2-  O565  1  0.82372761  0.15791977  0.34695797  1
  O2-  O566  1  0.81361216  0.14823033  0.68564762  1
  O2-  O567  1  0.86981211  0.44521543  0.03741491  1
  O2-  O568  1  0.81448834  0.38988322  0.35893575  1
  O2-  O569  1  0.81616553  0.39791795  0.68230888  1
  O2-  O570  1  0.82761037  0.68416831  0.00309711  1
  O2-  O571  1  0.82709466  0.65975578  0.34656572  1
  O2-  O572  1  0.92887505  0.67485140  0.68755219  1
  O2-  O573  1  0.82964273  0.91967495  0.02371092  1
  O2-  O574  1  0.83209503  0.91550922  0.33833151  1
  O2-  O575  1  0.86563462  0.92557623  0.70055713  1
