# generated using pymatgen
data_H2O
_symmetry_space_group_name_H-M   'P 1'
_cell_length_a   17.98690003
_cell_length_b   17.99362863
_cell_length_c   22.01246927
_cell_angle_alpha   89.98067619
_cell_angle_beta   89.99663979
_cell_angle_gamma   120.03976341
_symmetry_Int_Tables_number   1
_chemical_formula_structural   H2O
_chemical_formula_sum   'H384 O192'
_cell_volume   6167.37384552
_cell_formula_units_Z   192
loop_
 _symmetry_equiv_pos_site_id
 _symmetry_equiv_pos_as_xyz
  1  'x, y, z'
loop_
 _atom_type_symbol
 _atom_type_oxidation_number
  H+  1.0
  O2-  -2.0
loop_
 _atom_site_type_symbol
 _atom_site_label
 _atom_site_symmetry_multiplicity
 _atom_site_fract_x
 _atom_site_fract_y
 _atom_site_fract_z
 _atom_site_occupancy
  H+  H0  1  0.10449144  0.37268645  0.82258936  1
  H+  H1  1  0.97114328  0.11574884  0.17647546  1
  H+  H2  1  0.11190190  0.45938076  0.49057497  1
  H+  H3  1  0.76851425  0.62124557  0.66964176  1
  H+  H4  1  0.31039491  0.39052998  0.74198531  1
  H+  H5  1  0.13743432  0.51055942  0.82758618  1
  H+  H6  1  0.85107614  0.71215691  0.67464667  1
  H+  H7  1  1.03519556  0.64813718  0.35100715  1
  H+  H8  1  0.96685117  0.35723619  0.65382285  1
  H+  H9  1  0.38922380  0.02649686  0.50643570  1
  H+  H10  1  0.88181607  0.60475736  0.65471407  1
  H+  H11  1  0.82852199  0.40925554  0.72805847  1
  H+  H12  1  0.86925119  0.37447051  0.48331348  1
  H+  H13  1  0.85306446  0.61307563  0.15360240  1
  H+  H14  1  0.85200119  0.71374878  0.82268544  1
  H+  H15  1  0.39502296  0.89255282  0.99704035  1
  H+  H16  1  0.21666827  0.35800935  0.97785477  1
  H+  H17  1  0.62739594  0.86430157  0.33141937  1
  H+  H18  1  0.09304057  0.19754710  0.48691805  1
  H+  H19  1  0.54872399  0.89899005  0.68894414  1
  H+  H20  1  0.08686724  0.82457322  0.15486604  1
  H+  H21  1  0.11542266  0.89008317  0.34039076  1
  H+  H22  1  0.38978597  0.66562480  0.65231998  1
  H+  H23  1  0.88309142  0.26287068  -0.00027913  1
  H+  H24  1  0.10228947  0.21078085  0.83026291  1
  H+  H25  1  0.86242345  0.45034410  0.11737288  1
  H+  H26  1  0.40054077  0.51793554  0.50636755  1
  H+  H27  1  0.47358662  0.11949148  0.50907079  1
  H+  H28  1  0.41700526  0.14563441  0.65790330  1
  H+  H29  1  0.41162619  0.28304513  0.68465332  1
  H+  H30  1  0.90403525  0.78203397  0.51190377  1
  H+  H31  1  0.02621735  0.39079712  0.33634931  1
  H+  H32  1  0.64178154  0.86696558  1.01034918  1
  H+  H33  1  0.05907052  0.57836973  0.62532133  1
  H+  H34  1  0.02682178  0.88251029  0.51454801  1
  H+  H35  1  0.12381821  0.63197945  0.49959305  1
  H+  H36  1  0.79688670  0.76972712  0.62103751  1
  H+  H37  1  0.27966936  0.89442624  0.48953166  1
  H+  H38  1  0.13145845  0.85489098  0.99519887  1
  H+  H39  1  0.39388987  0.76046348  0.32679460  1
  H+  H40  1  0.12661348  0.73664283  0.34864665  1
  H+  H41  1  0.71713886  0.58824424  0.83607448  1
  H+  H42  1  0.37487769  0.89189143  0.17411423  1
  H+  H43  1  0.90876145  0.57048909  0.38933762  1
  H+  H44  1  0.36001886  0.50272138  0.33926581  1
  H+  H45  1  0.88191870  -0.01527733  0.15445724  1
  H+  H46  1  0.67647125  0.58985242  0.59132826  1
  H+  H47  1  0.13512509  0.11261732  0.32730727  1
  H+  H48  1  0.61766120  0.73444770  0.33943932  1
  H+  H49  1  0.63795811  0.51970520  0.64492208  1
  H+  H50  1  0.52740207  0.14486906  0.16514671  1
  H+  H51  1  0.61449327  0.48696412  0.16662265  1
  H+  H52  1  0.72390895  0.35450026  0.83193706  1
  H+  H53  1  0.36476515  0.70858447  0.47950826  1
  H+  H54  1  0.85915392  0.88970667  0.34719668  1
  H+  H55  1  0.40022248  0.47396950  0.21574599  1
  H+  H56  1  0.26417590  0.64708237  0.16906841  1
  H+  H57  1  0.42647478  0.81955149  0.63234502  1
  H+  H58  1  0.36594802  0.89243549  0.47706294  1
  H+  H59  1  0.76784807  0.89105255  0.34910117  1
  H+  H60  1  0.72858738  0.36444164  0.65658924  1
  H+  H61  1  0.62758647  0.64050319  0.66429155  1
  H+  H62  1  0.07110550  0.14467980  0.42525565  1
  H+  H63  1  0.66960055  0.80591379  0.49733832  1
  H+  H64  1  0.86624761  0.76357427  0.18553148  1
  H+  H65  1  0.23806998  0.87988346  0.17995798  1
  H+  H66  1  0.11598533  -0.03168607  0.13348198  1
  H+  H67  1  0.61470896  0.98541299  0.48937638  1
  H+  H68  1  0.09159481  0.46032491  0.00135430  1
  H+  H69  1  0.09546340  0.23667376  0.65130112  1
  H+  H70  1  0.36411954  0.14833095  0.35345485  1
  H+  H71  1  0.35959481  0.98580768  1.01369839  1
  H+  H72  1  0.38201791  0.27261755  0.84651852  1
  H+  H73  1  0.61706663  0.13935650  0.34704877  1
  H+  H74  1  0.13980240  0.60102839  0.83381129  1
  H+  H75  1  0.67093905  0.41078019  0.17493216  1
  H+  H76  1  0.41150028  0.62988652  -0.00726970  1
  H+  H77  1  0.13219039  0.80301489  0.66570530  1
  H+  H78  1  0.24452966  0.86940415  0.33142085  1
  H+  H79  1  0.89825906  0.07657396  0.91138281  1
  H+  H80  1  0.40658520  0.13161114  -0.00240928  1
  H+  H81  1  0.37169132  0.13053915  0.16533056  1
  H+  H82  1  0.47581015  0.86274186  0.48306599  1
  H+  H83  1  0.11069999  0.09290221  -0.00272688  1
  H+  H84  1  0.01671989  0.12886239  0.33453942  1
  H+  H85  1  0.86384678  0.75437345  0.98090751  1
  H+  H86  1  0.11128331  0.21388951  0.33529232  1
  H+  H87  1  0.21984517  0.10306585  0.50646401  1
  H+  H88  1  0.58171211  0.40300444  0.70751414  1
  H+  H89  1  0.25239128  0.55346624  0.65779424  1
  H+  H90  1  0.88488537  0.10936743  1.00260253  1
  H+  H91  1  0.62516095  0.48076182  0.33790968  1
  H+  H92  1  0.35632558  0.46768807  0.22235261  1
  H+  H93  1  0.63413744  0.89757645  0.67437354  1
  H+  H94  1  0.12094992  0.88245774  0.50943439  1
  H+  H95  1  0.39578823  0.33504595  0.19814261  1
  H+  H96  1  0.64618739  0.78387705  0.64966477  1
  H+  H97  1  0.88368266  0.89652489  0.15670791  1
  H+  H98  1  -0.03749319  0.82857488  0.17910205  1
  H+  H99  1  0.77820765  0.13605237  0.01182654  1
  H+  H100  1  0.28398012  0.28794773  0.12924839  1
  H+  H101  1  0.12691700  0.92372627  0.66313788  1
  H+  H102  1  0.13166861  0.10286283  0.84095748  1
  H+  H103  1  0.61552155  0.36281642  0.79667020  1
  H+  H104  1  0.72889493  0.62470643  0.16923758  1
  H+  H105  1  -0.02963623  0.62248238  -0.01755849  1
  H+  H106  1  0.85540639  0.85528854  0.65608344  1
  H+  H107  1  0.40674456  0.79918751  0.20419822  1
  H+  H108  1  0.86216240  0.88299156  0.99747719  1
  H+  H109  1  0.27719022  0.46091713  0.37875671  1
  H+  H110  1  0.22975365  0.57856438  1.00425238  1
  H+  H111  1  -0.02350716  0.87056844  0.33250435  1
  H+  H112  1  0.14425163  0.77452922  0.84595161  1
  H+  H113  1  0.27010781  0.13131066  0.82587787  1
  H+  H114  1  0.53301517  0.61688173  0.66594413  1
  H+  H115  1  0.17941676  0.84137829  0.57141304  1
  H+  H116  1  0.57532423  0.48723433  0.98149579  1
  H+  H117  1  0.01878828  0.38036075  0.82701337  1
  H+  H118  1  0.63278332  0.35583187  0.64276993  1
  H+  H119  1  0.49464202  0.14609777  0.33136367  1
  H+  H120  1  0.91607093  0.32467439  0.26182397  1
  H+  H121  1  0.69201247  0.86264439  0.55678958  1
  H+  H122  1  0.23337466  0.59817531  0.50204580  1
  H+  H123  1  0.85702010  0.46159631  0.33571200  1
  H+  H124  1  0.20240508  0.42072685  0.61326350  1
  H+  H125  1  0.96986731  0.11691211  0.65218087  1
  H+  H126  1  0.37728245  0.62476548  0.66956867  1
  H+  H127  1  0.08405407  0.62145824  0.61053362  1
  H+  H128  1  0.84235461  0.11832515  0.48233471  1
  H+  H129  1  0.73471306  0.36741982  1.00011675  1
  H+  H130  1  0.61504562  0.44933315  0.79919477  1
  H+  H131  1  0.04890463  0.69650096  0.13905300  1
  H+  H132  1  0.89794588  0.64391416  0.48706351  1
  H+  H133  1  0.15382541  0.06047822  0.17982191  1
  H+  H134  1  0.88058397  0.02525852  0.32702320  1
  H+  H135  1  0.37143333  0.62704203  0.49993679  1
  H+  H136  1  0.23561834  0.15316907  0.67000045  1
  H+  H137  1  0.35545522  0.46889571  0.82844433  1
  H+  H138  1  0.63870562  0.42166555  -0.00231678  1
  H+  H139  1  0.39034468  0.27277366  0.51915633  1
  H+  H140  1  0.97190087  0.34183944  0.50042516  1
  H+  H141  1  0.09177749  0.62149619  -0.00700880  1
  H+  H142  1  0.11502143  -0.02216381  0.33368983  1
  H+  H143  1  0.11597701  0.40043563  0.16156299  1
  H+  H144  1  0.48426842  0.60876235  0.83134164  1
  H+  H145  1  0.73731823  0.12683973  0.84323772  1
  H+  H146  1  0.29119742  0.14798224  0.16533551  1
  H+  H147  1  0.34222515  0.91562648  0.11126552  1
  H+  H148  1  0.22838625  0.12027134  0.33425171  1
  H+  H149  1  0.61561814  0.64327117  0.33801015  1
  H+  H150  1  0.21924410  0.34149226  0.49343110  1
  H+  H151  1  0.97844342  0.84965441  0.83242737  1
  H+  H152  1  0.10709567  0.21841913  1.00467332  1
  H+  H153  1  0.29837810  0.67297989  0.32465715  1
  H+  H154  1  -0.00200601  0.85105990  0.00053147  1
  H+  H155  1  0.14750877  0.77429114  0.51496850  1
  H+  H156  1  0.11140890  0.96928034  0.82474251  1
  H+  H157  1  0.88278974  0.35167885  0.31988145  1
  H+  H158  1  0.53752849  0.15025889  0.65760777  1
  H+  H159  1  0.13463985  0.62048147  0.16883261  1
  H+  H160  1  0.01568093  0.13190303  0.00853881  1
  H+  H161  1  0.41339454  0.26038846  0.19464227  1
  H+  H162  1  0.48557396  0.62962269  0.32777125  1
  H+  H163  1  0.91017719  0.58097234  0.88958233  1
  H+  H164  1  0.14455053  0.77433387  0.99339628  1
  H+  H165  1  0.12787061  0.35504374  0.99219376  1
  H+  H166  1  0.39023020  0.77654260  0.82313459  1
  H+  H167  1  0.66615855  0.88593860  0.83623790  1
  H+  H168  1  0.61704540  0.56089734  0.83870630  1
  H+  H169  1  0.08936708  0.93780334  0.72297620  1
  H+  H170  1  0.08479643  0.65357560  0.89150143  1
  H+  H171  1  0.86339704  0.73441096  0.33637131  1
  H+  H172  1  0.53846982  0.90614971  0.17229374  1
  H+  H173  1  0.65270054  0.63759453  0.50190001  1
  H+  H174  1  0.86802565  -0.01049156  0.66284106  1
  H+  H175  1  0.33113671  0.19699994  0.01252466  1
  H+  H176  1  0.87851452  0.25545940  0.50145985  1
  H+  H177  1  0.91055040  0.70657348  0.12930724  1
  H+  H178  1  0.86393550  0.36938212  1.02140351  1
  H+  H179  1  0.62828152  0.14653910  0.65222973  1
  H+  H180  1  0.63532374  0.27051611  0.34549801  1
  H+  H181  1  0.87862283  0.10920640  0.65686291  1
  H+  H182  1  0.34905533  0.37752471  0.83254975  1
  H+  H183  1  0.02590976  0.50229358  0.93696507  1
  H+  H184  1  0.79354000  0.89351220  0.81542955  1
  H+  H185  1  0.62133665  0.02229901  0.32621852  1
  H+  H186  1  0.02673879  0.39758694  0.15893519  1
  H+  H187  1  0.88578249  -0.02349313  0.81892732  1
  H+  H188  1  0.76976291  0.13881714  0.66923555  1
  H+  H189  1  0.89255427  0.54538823  0.22215864  1
  H+  H190  1  0.33106662  0.42673529  0.03049129  1
  H+  H191  1  0.39044395  0.01869414  0.18442310  1
  H+  H192  1  0.07616838  0.95854173  0.15147875  1
  H+  H193  1  0.12427229  0.09224229  0.49547684  1
  H+  H194  1  0.54145603  0.39020616  0.17850235  1
  H+  H195  1  0.79588541  0.92566343  0.49180191  1
  H+  H196  1  0.21437543  0.35385638  0.83785126  1
  H+  H197  1  0.49541295  0.62320534  0.99575205  1
  H+  H198  1  0.85124367  0.92072030  0.06097681  1
  H+  H199  1  0.63709174  0.25744904  0.65191675  1
  H+  H200  1  0.73600677  0.87399664  0.65601213  1
  H+  H201  1  0.47726113  0.47211750  0.63593212  1
  H+  H202  1  0.22880381  0.88110412  0.66685148  1
  H+  H203  1  0.54403382  0.39281196  0.36259351  1
  H+  H204  1  0.37390145  0.89330753  0.83713489  1
  H+  H205  1  0.77464490  0.14271848  0.16672774  1
  H+  H206  1  0.59426309  0.67866116  0.75186601  1
  H+  H207  1  0.54060922  0.65259106  0.49540629  1
  H+  H208  1  0.33642636  0.38761142  0.13520405  1
  H+  H209  1  0.89034575  0.35185462  0.15415377  1
  H+  H210  1  0.65317713  0.03406425  0.84847607  1
  H+  H211  1  0.28023434  0.88745638  0.84041241  1
  H+  H212  1  0.75297844  0.11818553  0.49290436  1
  H+  H213  1  0.87582228  0.60915140  -0.01921786  1
  H+  H214  1  0.85470385  0.37950602  0.66637272  1
  H+  H215  1  0.74709215  0.60573808  0.00244748  1
  H+  H216  1  0.09412687  0.36423039  0.67190115  1
  H+  H217  1  0.36567612  0.48299654  -0.02602318  1
  H+  H218  1  0.39917638  0.37123906  0.34191986  1
  H+  H219  1  0.64543687  0.11373418  -0.00105292  1
  H+  H220  1  0.73031787  0.36079610  0.33669954  1
  H+  H221  1  0.39208408  0.91349117  0.33923845  1
  H+  H222  1  0.41389484  0.38918343  -0.01865238  1
  H+  H223  1  0.85854230  0.22603366  0.67044848  1
  H+  H224  1  0.64604764  1.03513783  0.65374398  1
  H+  H225  1  0.62478532  0.74047929  0.01437330  1
  H+  H226  1  0.64528301  0.63371904  0.17331615  1
  H+  H227  1  0.61913651  0.15299061  0.16561960  1
  H+  H228  1  0.73744524  0.63132361  0.49981232  1
  H+  H229  1  0.13088451  0.34440646  0.49096880  1
  H+  H230  1  0.64300715  0.03968571  0.17825086  1
  H+  H231  1  0.18745716  0.07481628  1.00287498  1
  H+  H232  1  0.65520474  0.88800325  0.18595121  1
  H+  H233  1  0.21023837  0.58946011  0.03081262  1
  H+  H234  1  0.40614169  0.76938043  0.02559877  1
  H+  H235  1  0.36677273  0.37992350  0.49763026  1
  H+  H236  1  0.86403255  0.14502697  0.82536284  1
  H+  H237  1  0.12287483  0.98491311  0.50358808  1
  H+  H238  1  0.35712177  0.13590727  0.50726518  1
  H+  H239  1  0.72946412  0.86495610  0.00369450  1
  H+  H240  1  0.64064064  0.10244996  0.50718500  1
  H+  H241  1  0.86436591  0.38629423  0.82536549  1
  H+  H242  1  0.38246943  1.01997551  0.84656859  1
  H+  H243  1  0.11250301  0.27222642  0.17143216  1
  H+  H244  1  0.88648177  1.01951347  -0.00281600  1
  H+  H245  1  0.43119337  0.34685776  0.89541624  1
  H+  H246  1  0.85451036  0.21786605  0.33798356  1
  H+  H247  1  0.63155559  0.99078113  0.01241383  1
  H+  H248  1  0.02359416  0.66441715  0.68408252  1
  H+  H249  1  0.58889079  0.16905048  0.40826275  1
  H+  H250  1  0.14746149  0.62531406  0.33308156  1
  H+  H251  1  0.11480583  0.15230860  0.16368159  1
  H+  H252  1  0.47846604  0.10481062  -0.00291455  1
  H+  H253  1  0.11644041  0.88397759  0.82112739  1
  H+  H254  1  0.14918478  0.49408379  0.66415216  1
  H+  H255  1  0.28446787  0.64583867  0.81442670  1
  H+  H256  1  0.21174977  0.64383562  0.67439141  1
  H+  H257  1  0.88543810  0.51866104  0.65525031  1
  H+  H258  1  0.61470022  0.89702104  0.47875372  1
  H+  H259  1  0.53830925  0.90816199  1.01563455  1
  H+  H260  1  0.15047140  0.06166719  0.66567010  1
  H+  H261  1  0.27395143  0.89306803  1.01315031  1
  H+  H262  1  0.86174550  0.47343999  0.82008724  1
  H+  H263  1  0.25812847  0.74508737  0.66923200  1
  H+  H264  1  0.88163819  0.60755351  0.82869339  1
  H+  H265  1  0.34735215  0.93828491  0.39028631  1
  H+  H266  1  0.54409291  0.67589306  0.16713689  1
  H+  H267  1  0.88776012  0.27751779  0.84146573  1
  H+  H268  1  0.37441805  0.11322042  0.84036650  1
  H+  H269  1  0.64649134  0.67859335  0.80906457  1
  H+  H270  1  0.13969118  0.53403319  0.17013722  1
  H+  H271  1  0.98637978  0.60525319  0.50811987  1
  H+  H272  1  0.26203382  0.36226949  0.67661392  1
  H+  H273  1  0.01576417  0.12211327  0.83465942  1
  H+  H274  1  0.40781961  0.57560656  0.17819233  1
  H+  H275  1  0.72474267  0.36521534  0.15693421  1
  H+  H276  1  0.59882689  0.10921330  0.81491264  1
  H+  H277  1  0.20692389  0.34564511  0.17793592  1
  H+  H278  1  0.89377270  0.26802604  0.16744384  1
  H+  H279  1  0.54126033  0.89533260  0.82874823  1
  H+  H280  1  0.66060398  0.79709960  0.82639050  1
  H+  H281  1  0.35987496  0.23198312  0.36142316  1
  H+  H282  1  0.35551363  0.88855232  0.68915778  1
  H+  H283  1  0.63900752  0.37184138  0.34289438  1
  H+  H284  1  0.36994048  0.65899714  0.17948879  1
  H+  H285  1  0.45176538  0.32864784  -0.00276774  1
  H+  H286  1  0.66188316  0.80378785  0.18258118  1
  H+  H287  1  0.85947549  0.13249898  0.16580827  1
  H+  H288  1  0.15920066  0.06904187  0.89824277  1
  H+  H289  1  0.33252295  0.48601432  0.09959814  1
  H+  H290  1  0.17296328  0.83851816  0.90167269  1
  H+  H291  1  0.14879732  0.32072844  0.89381660  1
  H+  H292  1  0.57338359  0.14572530  0.08041441  1
  H+  H293  1  0.91026976  0.08192211  0.23529944  1
  H+  H294  1  0.42579868  0.09781742  0.60062113  1
  H+  H295  1  0.91657230  0.57478988  0.56158016  1
  H+  H296  1  0.91216599  0.83166126  0.57305145  1
  H+  H297  1  0.62532278  0.64944902  0.01438472  1
  H+  H298  1  0.81997419  0.15878801  0.39880504  1
  H+  H299  1  0.45413677  0.87073615  0.25577332  1
  H+  H300  1  -0.02815376  0.35123980  0.00083175  1
  H+  H301  1  0.32163467  0.68049533  0.02172172  1
  H+  H302  1  0.66841874  0.09715236  0.23778141  1
  H+  H303  1  0.34092694  0.41370850  0.43783642  1
  H+  H304  1  0.46345886  0.91606235  0.94501784  1
  H+  H305  1  0.82050744  0.02263388  0.86822766  1
  H+  H306  1  0.83620231  0.40319124  0.39527784  1
  H+  H307  1  0.33081782  0.91932890  0.74905477  1
  H+  H308  1  0.39899053  0.47129686  0.66304519  1
  H+  H309  1  0.59731615  0.68915792  0.10595819  1
  H+  H310  1  0.41166566  0.08848577  0.90656647  1
  H+  H311  1  0.42128518  0.81475553  0.88933581  1
  H+  H312  1  0.08033322  0.40781147  0.42815060  1
  H+  H313  1  0.10915333  0.16107783  0.67084988  1
  H+  H314  1  0.47509961  0.20604505  0.29259166  1
  H+  H315  1  0.17090313  0.59565331  0.27171012  1
  H+  H316  1  0.71706190  0.10644768  0.33165792  1
  H+  H317  1  0.72546259  0.61745518  0.32515201  1
  H+  H318  1  0.42874764  0.33061852  0.28974356  1
  H+  H319  1  -0.04186354  0.07883553  0.48038337  1
  H+  H320  1  0.37153486  0.19317578  0.07542847  1
  H+  H321  1  0.32977334  0.16907822  0.44986486  1
  H+  H322  1  0.34629110  0.69735563  0.11638428  1
  H+  H323  1  0.22661230  0.35402919  0.32088730  1
  H+  H324  1  0.80508327  0.48132594  0.18555311  1
  H+  H325  1  0.83850572  0.67251841  0.39290530  1
  H+  H326  1  0.08417125  0.41909817  0.06792142  1
  H+  H327  1  0.94823746  0.72853191  0.44855650  1
  H+  H328  1  0.81487611  0.64729978  0.05619808  1
  H+  H329  1  0.16976880  0.33486671  0.57760157  1
  H+  H330  1  0.43524277  0.58657499  0.89388807  1
  H+  H331  1  0.17723515  0.56329205  0.56170608  1
  H+  H332  1  0.09732912  0.66903499  0.44284584  1
  H+  H333  1  0.84477078  0.92826563  0.72377569  1
  H+  H334  1  0.07246386  0.65337885  0.05585309  1
  H+  H335  1  0.04288814  0.82599865  0.09184270  1
  H+  H336  1  0.40090553  0.64196241  0.31979717  1
  H+  H337  1  0.34138874  0.18396353  0.77338421  1
  H+  H338  1  0.89342658  0.85550148  0.82887708  1
  H+  H339  1  0.07018957  0.39772018  0.73292030  1
  H+  H340  1  0.60860084  0.93505974  0.77450910  1
  H+  H341  1  0.87883858  0.11296700  0.32790813  1
  H+  H342  1  0.43139643  0.62208063  0.24315174  1
  H+  H343  1  0.67141615  0.08044951  0.58588788  1
  H+  H344  1  0.66257318  0.33410756  0.88768413  1
  H+  H345  1  0.91285015  0.83979929  0.27602219  1
  H+  H346  1  0.57565187  0.13573027  0.75403367  1
  H+  H347  1  0.90924130  0.32429525  0.59333325  1
  H+  H348  1  0.07641112  0.16601676  0.10115147  1
  H+  H349  1  0.19266602  0.92746920  0.20637662  1
  H+  H350  1  0.68154975  0.09428206  0.93652905  1
  H+  H351  1  0.11254020  0.48215731  0.34132474  1
  H+  H352  1  0.02148608  0.63344544  0.83801849  1
  H+  H353  1  0.83499185  0.17416101  0.76433100  1
  H+  H354  1  0.07999043  0.94064334  0.01478344  1
  H+  H355  1  0.87287717  0.46521076  0.48440426  1
  H+  H356  1  0.59289732  0.68274340  0.43337757  1
  H+  H357  1  0.88668748  0.61655165  0.33871112  1
  H+  H358  1  0.91462876  0.33129031  0.90362194  1
  H+  H359  1  0.53707625  0.05364178  0.05277533  1
  H+  H360  1  0.55899973  0.38051147  0.47488292  1
  H+  H361  1  0.40317191  0.82435363  0.53374297  1
  H+  H362  1  0.59524361  0.93326077  0.11053873  1
  H+  H363  1  0.33211124  0.28317311  0.70784732  1
  H+  H364  1  0.90661841  0.81645728  0.92321168  1
  H+  H365  1  0.42359029  0.09064330  0.23875302  1
  H+  H366  1  0.15909120  0.32120670  0.26618510  1
  H+  H367  1  0.11632672  0.69444015  0.70929741  1
  H+  H368  1  0.12241146  0.54718584  0.91372843  1
  H+  H369  1  0.66685731  0.58887232  0.26607408  1
  H+  H370  1  0.83517922  0.16408735  0.07319466  1
  H+  H371  1  0.43495149  0.90672093  0.61140927  1
  H+  H372  1  0.64574468  0.53100679  0.93037956  1
  H+  H373  1  0.55261165  0.91256629  0.38965971  1
  H+  H374  1  0.29598908  0.69843161  0.75556765  1
  H+  H375  1  0.45355335  0.34783643  0.56586689  1
  H+  H376  1  0.37761001  0.49187066  0.09899949  1
  H+  H377  1  0.81985991  0.65213409  0.76411847  1
  H+  H378  1  0.44092753  0.55944610  0.56827667  1
  H+  H379  1  -0.00785654  0.59715111  0.14542698  1
  H+  H380  1  0.17751980  0.83723697  0.27722849  1
  H+  H381  1  0.84678381  0.94672586  0.42326677  1
  H+  H382  1  0.18492263  0.11296569  0.24096154  1
  H+  H383  1  0.67290730  0.84811505  0.27462399  1
  O2-  O384  1  0.07620216  0.17167298  0.14653696  1
  O2-  O385  1  0.06318543  0.13768739  0.47086227  1
  O2-  O386  1  0.07620364  0.14783293  0.82416773  1
  O2-  O387  1  0.08864005  0.43360991  0.14595370  1
  O2-  O388  1  0.08089500  0.39994635  0.47393829  1
  O2-  O389  1  0.07658541  0.40586496  0.80683322  1
  O2-  O390  1  0.05077528  0.64259212  0.13512672  1
  O2-  O391  1  0.09400306  0.66425657  0.48814463  1
  O2-  O392  1  0.08503074  0.66083024  0.84753952  1
  O2-  O393  1  0.03222487  0.79383569  0.13106525  1
  O2-  O394  1  0.08769522  0.91140977  0.49623104  1
  O2-  O395  1  0.08164474  0.90976535  0.80785308  1
  O2-  O396  1  0.35097591  0.17024721  0.15020653  1
  O2-  O397  1  0.32476499  0.16525434  0.49506636  1
  O2-  O398  1  0.33295916  0.16097422  0.81587536  1
  O2-  O399  1  0.30430035  0.33454592  0.15873985  1
  O2-  O400  1  0.33389197  0.40785798  0.48221729  1
  O2-  O401  1  0.31724225  0.40710709  0.81752362  1
  O2-  O402  1  0.33139220  0.68426648  0.16111478  1
  O2-  O403  1  0.33407300  0.64503989  0.47944986  1
  O2-  O404  1  0.32920663  0.69071021  0.78854309  1
  O2-  O405  1  0.33832753  0.91434280  0.15630137  1
  O2-  O406  1  0.33887966  0.92892030  0.47270058  1
  O2-  O407  1  0.34241874  0.92461544  0.82826968  1
  O2-  O408  1  0.58502257  0.17647873  0.14612435  1
  O2-  O409  1  0.59212074  0.18351511  0.49023697  1
  O2-  O410  1  0.55109161  0.09269560  0.78640920  1
  O2-  O411  1  0.59547184  0.42656406  0.15625992  1
  O2-  O412  1  0.51805006  0.32279832  0.45967898  1
  O2-  O413  1  0.59396530  0.39716461  0.77447814  1
  O2-  O414  1  0.60203930  0.69418892  0.15140234  1
  O2-  O415  1  0.59934608  0.68982834  0.47845362  1
  O2-  O416  1  0.59772189  0.68500957  0.79769765  1
  O2-  O417  1  0.59823354  0.93657365  0.15580770  1
  O2-  O418  1  0.58052074  0.92402047  0.46811434  1
  O2-  O419  1  0.60357915  0.93044669  0.81961388  1
  O2-  O420  1  0.83396104  0.16698833  0.14909319  1
  O2-  O421  1  0.81568066  0.15322845  0.47352116  1
  O2-  O422  1  0.83821609  0.17886349  0.81016422  1
  O2-  O423  1  0.83495982  0.39006547  0.10389055  1
  O2-  O424  1  0.84649443  0.40910208  0.46363499  1
  O2-  O425  1  0.83317775  0.41257904  0.80565222  1
  O2-  O426  1  0.84969253  0.66282210  0.13552871  1
  O2-  O427  1  0.89081028  0.68967380  0.46442038  1
  O2-  O428  1  0.81765120  0.65217895  0.80980579  1
  O2-  O429  1  0.87778490  0.93670398  0.12964563  1
  O2-  O430  1  0.85755806  0.95857358  0.47251781  1
  O2-  O431  1  0.85537089  0.91906357  0.80036106  1
  O2-  O432  1  0.18809521  0.11981697  0.19438959  1
  O2-  O433  1  0.15602208  0.06461593  0.51224531  1
  O2-  O434  1  0.16590164  0.07448957  0.85368110  1
  O2-  O435  1  0.14795847  0.33272610  0.18689736  1
  O2-  O436  1  0.15782304  0.31048665  0.50644427  1
  O2-  O437  1  0.15132936  0.32117164  0.84859680  1
  O2-  O438  1  0.17094840  0.59684320  0.18318323  1
  O2-  O439  1  0.17203557  0.56906098  0.51764226  1
  O2-  O440  1  0.16888781  0.56904527  0.84684427  1
  O2-  O441  1  0.18148362  0.86986648  0.19672157  1
  O2-  O442  1  0.17743279  0.83644872  0.52542672  1
  O2-  O443  1  0.17631478  0.83682061  0.85641951  1
  O2-  O444  1  0.41859903  0.08120083  0.19391383  1
  O2-  O445  1  0.41463212  0.08517786  0.52500873  1
  O2-  O446  1  0.40486616  0.08257441  0.86048939  1
  O2-  O447  1  0.43638541  0.31800602  0.21412899  1
  O2-  O448  1  0.42231927  0.33610950  0.52628673  1
  O2-  O449  1  0.40561187  0.33427094  0.85442533  1
  O2-  O450  1  0.42961118  0.63257697  0.19608496  1
  O2-  O451  1  0.43470934  0.57528401  0.52609290  1
  O2-  O452  1  0.42760013  0.57313465  0.85018250  1
  O2-  O453  1  0.43991002  0.86151995  0.20875040  1
  O2-  O454  1  0.41165262  0.82692843  0.48957629  1
  O2-  O455  1  0.42680443  0.83268130  0.84690926  1
  O2-  O456  1  0.67278843  0.10097463  0.19250794  1
  O2-  O457  1  0.66707642  0.06887475  0.51967679  1
  O2-  O458  1  0.68062969  0.09406820  0.86419254  1
  O2-  O459  1  0.72213067  0.40393490  0.18697797  1
  O2-  O460  1  0.63938652  0.25928325  0.51048316  1
  O2-  O461  1  0.66242732  0.32427745  0.84379905  1
  O2-  O462  1  0.67159211  0.59892057  0.18748709  1
  O2-  O463  1  0.68010958  0.60474133  0.51733003  1
  O2-  O464  1  0.65850140  0.54459415  0.85197677  1
  O2-  O465  1  0.68449232  0.85894511  0.20426633  1
  O2-  O466  1  0.70006060  0.86654126  0.51176622  1
  O2-  O467  1  0.69967685  0.85589188  0.84106856  1
  O2-  O468  1  0.91013514  0.08252220  0.18965564  1
  O2-  O469  1  0.89212824  0.04972006  0.48552171  1
  O2-  O470  1  0.88111290  0.06671520  0.86669323  1
  O2-  O471  1  0.92309432  0.33130639  0.17806419  1
  O2-  O472  1  0.91216794  0.31629217  0.51640927  1
  O2-  O473  1  0.91922463  0.33737252  0.85852473  1
  O2-  O474  1  0.86902321  0.53525573  0.18111510  1
  O2-  O475  1  0.92296907  0.57706639  0.51587223  1
  O2-  O476  1  0.91433939  0.57981644  0.84372137  1
  O2-  O477  1  0.90946716  0.82221346  0.19749157  1
  O2-  O478  1  0.93117822  0.83994520  0.52972581  1
  O2-  O479  1  0.91671471  0.81973965  0.84610372  1
  O2-  O480  1  0.17308670  0.09069052  0.31098065  1
  O2-  O481  1  0.17583946  0.12410621  0.65672201  1
  O2-  O482  1  0.13182222  0.05310850  0.98334403  1
  O2-  O483  1  0.17183625  0.30599032  0.30642645  1
  O2-  O484  1  0.17962858  0.35957969  0.62052124  1
  O2-  O485  1  0.15347158  0.32220698  0.97340358  1
  O2-  O486  1  0.17850438  0.59686448  0.31606046  1
  O2-  O487  1  0.19785483  0.54730045  0.64434137  1
  O2-  O488  1  0.08507637  0.53551804  0.95137374  1
  O2-  O489  1  0.18070844  0.83634302  0.32195860  1
  O2-  O490  1  0.17362870  0.85699989  0.64361481  1
  O2-  O491  1  0.17307658  0.83633070  0.98190966  1
  O2-  O492  1  0.44764873  0.14695805  0.30724536  1
  O2-  O493  1  0.43966398  0.10957988  0.64493553  1
  O2-  O494  1  0.42046143  0.08896040  0.97958125  1
  O2-  O495  1  0.42482722  0.33545109  0.33484718  1
  O2-  O496  1  0.49333148  0.37792076  0.64158568  1
  O2-  O497  1  0.46348298  0.38047670  0.97448028  1
  O2-  O498  1  0.42618638  0.60328427  0.30955214  1
  O2-  O499  1  0.45247250  0.51080631  0.64018157  1
  O2-  O500  1  0.43589030  0.59544674  0.97776752  1
  O2-  O501  1  0.46244577  0.87100337  0.32467524  1
  O2-  O502  1  0.39398104  0.84556382  0.61693064  1
  O2-  O503  1  0.43625625  0.87557945  0.97853470  1
  O2-  O504  1  0.65701538  0.08457982  0.31610950  1
  O2-  O505  1  0.67286038  0.09153988  0.63350982  1
  O2-  O506  1  0.68106660  0.09010876  0.98272575  1
  O2-  O507  1  0.66526842  0.33187015  0.32865113  1
  O2-  O508  1  0.67002891  0.32919870  0.63663413  1
  O2-  O509  1  0.68465910  0.34994774  0.97270350  1
  O2-  O510  1  0.66441700  0.58556369  0.31138497  1
  O2-  O511  1  0.67344983  0.58299510  0.63699106  1
  O2-  O512  1  0.63730504  0.52746658  0.97534081  1
  O2-  O513  1  0.66663444  0.84228221  0.32117238  1
  O2-  O514  1  0.67571240  0.84537975  0.63809042  1
  O2-  O515  1  0.66633368  0.83172501  0.99574910  1
  O2-  O516  1  0.91128403  0.08495721  0.31144396  1
  O2-  O517  1  0.90786903  0.07946786  0.63996616  1
  O2-  O518  1  0.91608440  0.08171671  0.98362477  1
  O2-  O519  1  0.91491659  0.32256470  0.30687558  1
  O2-  O520  1  0.90674137  0.32811360  0.63882937  1
  O2-  O521  1  0.91182481  0.32433569  0.98499843  1
  O2-  O522  1  0.91657292  0.58259606  0.34575825  1
  O2-  O523  1  0.91510587  0.57830465  0.63864100  1
  O2-  O524  1  0.91330854  0.58867634  0.96353018  1
  O2-  O525  1  0.91309997  0.84119565  0.32126044  1
  O2-  O526  1  0.85440676  0.80206450  0.63834573  1
  O2-  O527  1  0.90228366  0.81517416  0.96882410  1
  O2-  O528  1  0.07731177  0.15968273  0.02301332  1
  O2-  O529  1  0.07621481  0.15297523  0.35109078  1
  O2-  O530  1  0.06899789  0.18446711  0.67547313  1
  O2-  O531  1  0.07794885  0.40664718  0.02320840  1
  O2-  O532  1  0.08364626  0.42194829  0.35554193  1
  O2-  O533  1  0.07130186  0.40056754  0.68685299  1
  O2-  O534  1  0.08193890  0.66626721  0.01169532  1
  O2-  O535  1  0.09578951  0.67562367  0.36428812  1
  O2-  O536  1  0.07216572  0.71130308  0.70599106  1
  O2-  O537  1  0.05570873  0.87831668  0.02168534  1
  O2-  O538  1  0.07932010  0.91671914  0.34546381  1
  O2-  O539  1  0.09707024  0.95308463  0.67951645  1
  O2-  O540  1  0.38440024  0.20620419  0.03081337  1
  O2-  O541  1  0.32691602  0.16917517  0.37074883  1
  O2-  O542  1  0.35600225  0.24401796  0.70542754  1
  O2-  O543  1  0.33231518  0.42126930  -0.01361561  1
  O2-  O544  1  0.31795000  0.44731777  0.35966824  1
  O2-  O545  1  0.31571750  0.37771973  0.69829244  1
  O2-  O546  1  0.37646971  0.71132997  0.04354898  1
  O2-  O547  1  0.35970563  0.69899565  0.31393359  1
  O2-  O548  1  0.22676823  0.69737260  0.69730344  1
  O2-  O549  1  0.33467278  0.92549505  0.02871290  1
  O2-  O550  1  0.34828772  0.93102758  0.34572994  1
  O2-  O551  1  0.32145884  0.91278716  0.70448025  1
  O2-  O552  1  0.56000006  0.11274116  0.03910054  1
  O2-  O553  1  0.59030589  0.17332706  0.36336278  1
  O2-  O554  1  0.60151528  0.18074928  0.66875021  1
  O2-  O555  1  0.62511100  0.36327462  0.01019902  1
  O2-  O556  1  0.60727257  0.42504577  0.35881753  1
  O2-  O557  1  0.58366716  0.41085209  0.66032949  1
  O2-  O558  1  0.59266617  0.67607677  0.02884747  1
  O2-  O559  1  0.58573806  0.67348981  0.35407737  1
  O2-  O560  1  0.59099711  0.66550181  0.67684837  1
  O2-  O561  1  0.59699555  0.93260422  0.03219104  1
  O2-  O562  1  0.55514294  0.91142377  0.34404513  1
  O2-  O563  1  0.61050503  0.93153467  0.69524666  1
  O2-  O564  1  0.83896866  0.16440703  0.02750477  1
  O2-  O565  1  0.82179691  0.15724153  0.35276047  1
  O2-  O566  1  0.82816651  0.16723823  0.68863559  1
  O2-  O567  1  0.83440909  0.40075941  0.03768168  1
  O2-  O568  1  0.82729464  0.40089542  0.34847856  1
  O2-  O569  1  0.82576308  0.41072380  0.68248934  1
  O2-  O570  1  0.80785961  0.64703875  0.01151088  1
  O2-  O571  1  0.83275708  0.67170971  0.34794391  1
  O2-  O572  1  0.82784989  0.65176138  0.68811585  1
  O2-  O573  1  0.83874875  0.91759616  0.01562712  1
  O2-  O574  1  0.83035794  0.92238694  0.36200697  1
  O2-  O575  1  0.83551633  0.92601379  0.67893070  1
