# generated using pymatgen
data_H2O
_symmetry_space_group_name_H-M   'P 1'
_cell_length_a   17.99178396
_cell_length_b   17.98431972
_cell_length_c   22.00546285
_cell_angle_alpha   89.96762334
_cell_angle_beta   89.95541181
_cell_angle_gamma   120.02404181
_symmetry_Int_Tables_number   1
_chemical_formula_structural   H2O
_chemical_formula_sum   'H384 O192'
_cell_volume   6164.86715542
_cell_formula_units_Z   192
loop_
 _symmetry_equiv_pos_site_id
 _symmetry_equiv_pos_as_xyz
  1  'x, y, z'
loop_
 _atom_type_symbol
 _atom_type_oxidation_number
  H+  1.0
  O2-  -2.0
loop_
 _atom_site_type_symbol
 _atom_site_label
 _atom_site_symmetry_multiplicity
 _atom_site_fract_x
 _atom_site_fract_y
 _atom_site_fract_z
 _atom_site_occupancy
  H+  H0  1  0.48214923  0.87119857  0.15376456  1
  H+  H1  1  0.90021824  0.52317290  0.60254655  1
  H+  H2  1  0.19780174  0.35331730  0.99138765  1
  H+  H3  1  0.72253360  0.61281413  0.84038137  1
  H+  H4  1  0.53314557  0.13221868  0.99391399  1
  H+  H5  1  0.39070783  0.86603606  0.50507259  1
  H+  H6  1  0.96124165  0.47197345  0.11866330  1
  H+  H7  1  0.61577923  0.64336415  0.82564138  1
  H+  H8  1  0.63373951  0.61513331  0.50407591  1
  H+  H9  1  0.49144900  0.94454892  0.29342960  1
  H+  H10  1  0.76186668  0.13490918  0.47684182  1
  H+  H11  1  0.88121785  0.89963930  0.33186903  1
  H+  H12  1  -0.02459311  0.35665509  0.19375728  1
  H+  H13  1  0.85881743  0.72613754  0.82882104  1
  H+  H14  1  0.33778187  0.14317247  0.08905615  1
  H+  H15  1  0.09896612  0.23559043  0.82370129  1
  H+  H16  1  1.02283899  0.64218678  0.18201130  1
  H+  H17  1  0.21832568  0.61285204  0.99984553  1
  H+  H18  1  0.77332635  0.88635564  0.48264794  1
  H+  H19  1  0.11688241  0.64688579  0.34598150  1
  H+  H20  1  0.38151124  0.26989679  0.67236573  1
  H+  H21  1  0.38314005  0.03117748  0.32956429  1
  H+  H22  1  0.53469094  0.38750467  0.82066967  1
  H+  H23  1  0.63854177  0.08052043  0.58993856  1
  H+  H24  1  0.86435184  0.73755392  -0.01822723  1
  H+  H25  1  0.86214350  0.37816722  0.48067726  1
  H+  H26  1  0.59540499  0.46893418  0.16371543  1
  H+  H27  1  1.02125647  0.63683956  0.99680086  1
  H+  H28  1  0.82925724  0.65934192  0.77360425  1
  H+  H29  1  0.02763132  0.88364512  0.67309351  1
  H+  H30  1  0.10082316  0.92464237  0.07508149  1
  H+  H31  1  0.84529972  0.64384285  0.19835878  1
  H+  H32  1  0.22314695  0.32815475  0.16186253  1
  H+  H33  1  0.14936559  0.87413556  0.67152677  1
  H+  H34  1  0.60362095  0.48601159  1.00919895  1
  H+  H35  1  0.88208171  0.27326674  0.18779118  1
  H+  H36  1  0.61812819  0.86745049  0.50620471  1
  H+  H37  1  0.62289639  0.95352508  0.52824540  1
  H+  H38  1  0.09906540  0.47915548  0.02430837  1
  H+  H39  1  0.12204659  1.02489655  0.00141435  1
  H+  H40  1  0.74145648  0.87530880  0.15581928  1
  H+  H41  1  0.33093036  0.35960861  -0.03271578  1
  H+  H42  1  0.61808155  0.88561546  0.99385960  1
  H+  H43  1  0.10936396  0.38820822  0.49342060  1
  H+  H44  1  0.87424626  0.11702101  0.86942787  1
  H+  H45  1  0.49716667  0.26881015  0.95346290  1
  H+  H46  1  0.21445152  0.84979825  0.98620107  1
  H+  H47  1  0.10509087  0.72840682  0.99166755  1
  H+  H48  1  0.35926258  0.10942580  0.50805333  1
  H+  H49  1  0.13244340  0.61890136  -0.00463672  1
  H+  H50  1  0.58038087  0.38920427  0.38383087  1
  H+  H51  1  0.66244738  0.86212656  0.32277040  1
  H+  H52  1  0.58091474  0.41311296  0.73293314  1
  H+  H53  1  -0.03063411  0.59753583  0.51260319  1
  H+  H54  1  0.63219649  0.93127610  0.68783509  1
  H+  H55  1  0.72782058  0.35454393  0.98246163  1
  H+  H56  1  0.87685794  0.98726420  0.03403756  1
  H+  H57  1  0.77416561  0.62697642  0.49095768  1
  H+  H58  1  0.37804321  0.34668421  0.49813177  1
  H+  H59  1  0.02457113  0.88623221  0.82663707  1
  H+  H60  1  0.87921614  0.75984429  0.50273631  1
  H+  H61  1  0.06140563  0.11779186  0.00497509  1
  H+  H62  1  0.11526123  0.88824676  0.82407629  1
  H+  H63  1  0.63730867  0.50727445  0.32445876  1
  H+  H64  1  0.70795660  0.61485438  0.18225655  1
  H+  H65  1  0.46265955  0.33932472  0.49206132  1
  H+  H66  1  0.86139422  0.47575759  1.00176244  1
  H+  H67  1  0.62874981  0.12847528  0.49629645  1
  H+  H68  1  0.61599572  0.03308447  0.65542328  1
  H+  H69  1  0.23440547  0.87329906  0.83191707  1
  H+  H70  1  0.87047813  0.99914180  0.64486894  1
  H+  H71  1  0.83506003  0.92110320  0.42328700  1
  H+  H72  1  -0.01779325  0.86715156  0.31811031  1
  H+  H73  1  0.12027105  1.03177140  0.50781463  1
  H+  H74  1  0.36013302  0.47361868  0.68420422  1
  H+  H75  1  0.09663028  0.38551495  0.82955233  1
  H+  H76  1  0.86613764  0.08650375  0.62979399  1
  H+  H77  1  0.13584342  0.36065850  0.66551214  1
  H+  H78  1  0.81558357  0.88757145  0.71950353  1
  H+  H79  1  0.13049266  0.89906552  0.16493741  1
  H+  H80  1  0.45812681  0.72073856  0.04343156  1
  H+  H81  1  0.83706457  0.66404769  0.39209671  1
  H+  H82  1  0.62466465  0.22602202  0.14791076  1
  H+  H83  1  0.12343201  0.52715080  0.84225111  1
  H+  H84  1  0.13698340  0.87027024  0.33205244  1
  H+  H85  1  0.41639935  0.57778277  0.57079041  1
  H+  H86  1  0.39205877  0.61019197  0.99053798  1
  H+  H87  1  0.11630153  0.98760945  0.32894662  1
  H+  H88  1  0.88302700  0.61140508  0.97825103  1
  H+  H89  1  0.73482862  0.34476325  0.31632285  1
  H+  H90  1  0.39403619  0.67744755  0.27860349  1
  H+  H91  1  0.11820392  0.47433694  0.67450132  1
  H+  H92  1  0.60670096  0.22514602  0.81738213  1
  H+  H93  1  0.59273036  0.92080834  0.08476948  1
  H+  H94  1  0.62298788  0.74548781  0.65825896  1
  H+  H95  1  0.39364137  0.11161765  0.83670734  1
  H+  H96  1  0.60236119  0.38189400  0.66729036  1
  H+  H97  1  0.46957125  0.60536702  0.66596537  1
  H+  H98  1  0.27677489  0.87991317  0.50059035  1
  H+  H99  1  0.38723847  0.60889517  0.51204355  1
  H+  H100  1  0.62468579  0.11045752  0.80695777  1
  H+  H101  1  0.64917503  0.36848832  0.83063351  1
  H+  H102  1  0.62130422  0.00770501  0.31888202  1
  H+  H103  1  0.59098378  0.11857064  0.33089017  1
  H+  H104  1  0.00637605  0.14519134  0.82567486  1
  H+  H105  1  0.20877503  0.36197962  0.83344221  1
  H+  H106  1  0.07959266  0.47529805  0.34371898  1
  H+  H107  1  0.38664587  0.55717773  0.35294028  1
  H+  H108  1  0.37269521  0.99441070  0.83177224  1
  H+  H109  1  0.44559216  0.32345395  0.89145865  1
  H+  H110  1  0.61365243  0.37194823  0.48267793  1
  H+  H111  1  0.15927698  0.58502046  0.90034910  1
  H+  H112  1  0.83672324  0.21812070  0.86431566  1
  H+  H113  1  0.21732591  0.60139569  0.17225150  1
  H+  H114  1  0.36925089  1.01667426  0.51083647  1
  H+  H115  1  0.28436222  0.90362397  0.68130634  1
  H+  H116  1  0.62075017  0.89159655  0.14610829  1
  H+  H117  1  0.13729437  0.87016426  0.98703910  1
  H+  H118  1  0.04453187  0.90435167  0.16034027  1
  H+  H119  1  0.66934936  0.32434149  0.21900297  1
  H+  H120  1  0.88363842  0.83305723  0.65831994  1
  H+  H121  1  0.38104143  0.60634573  0.66442522  1
  H+  H122  1  0.89266373  0.77732790  0.31777193  1
  H+  H123  1  0.10817699  0.62851755  0.49990408  1
  H+  H124  1  0.12190665  0.15546675  0.48743568  1
  H+  H125  1  0.47389618  0.11869332  0.32867520  1
  H+  H126  1  0.77889260  0.63173358  0.33324271  1
  H+  H127  1  0.47251456  0.60033468  0.99312576  1
  H+  H128  1  0.79206883  0.89555518  0.32652737  1
  H+  H129  1  0.26501354  0.88469853  0.15618394  1
  H+  H130  1  0.98795048  0.13157073  0.31872384  1
  H+  H131  1  0.38203517  0.34773516  0.32481474  1
  H+  H132  1  0.72601750  0.61774986  0.66996489  1
  H+  H133  1  0.20325152  0.11618008  -0.00461323  1
  H+  H134  1  0.73713904  0.37085555  0.49527900  1
  H+  H135  1  0.88878040  0.87302175  0.83196087  1
  H+  H136  1  0.52747087  0.62284279  0.33204433  1
  H+  H137  1  0.37246303  0.47776216  0.84156080  1
  H+  H138  1  0.61599901  0.03733183  0.48280364  1
  H+  H139  1  0.71234521  0.86682523  0.84548861  1
  H+  H140  1  0.47743336  0.85953532  0.51017904  1
  H+  H141  1  0.32681252  0.15964916  0.39993299  1
  H+  H142  1  0.70804032  0.85145151  0.98747044  1
  H+  H143  1  0.99757302  0.88761800  0.48786152  1
  H+  H144  1  0.35961228  0.73850168  0.15728105  1
  H+  H145  1  0.11552830  0.23171061  0.68003700  1
  H+  H146  1  0.61099756  0.73109696  0.82935741  1
  H+  H147  1  0.36222801  0.46880264  0.49491863  1
  H+  H148  1  0.87206197  -0.00363057  0.83550498  1
  H+  H149  1  0.18223902  0.10332464  0.22390977  1
  H+  H150  1  0.36110112  0.90048102  0.34158467  1
  H+  H151  1  0.36148486  0.13504460  0.33975306  1
  H+  H152  1  0.85419308  0.20493532  0.63209835  1
  H+  H153  1  0.86785904  0.69803745  0.67526951  1
  H+  H154  1  0.34191975  0.73367107  0.81894964  1
  H+  H155  1  0.62447545  0.83256400  0.64132021  1
  H+  H156  1  0.56194336  0.87274730  0.37646709  1
  H+  H157  1  0.23148749  0.11789081  0.32406821  1
  H+  H158  1  0.14091487  0.75582408  0.51828417  1
  H+  H159  1  0.47691912  0.12774795  0.65439110  1
  H+  H160  1  0.27031211  0.38404758  0.49717666  1
  H+  H161  1  0.88826280  0.87929144  1.00337881  1
  H+  H162  1  0.86151115  0.13883680  0.15539508  1
  H+  H163  1  0.10679861  0.21747071  0.28235861  1
  H+  H164  1  0.38590104  0.36320282  0.67738471  1
  H+  H165  1  0.47186438  0.86247518  0.66124204  1
  H+  H166  1  0.35632343  0.13907819  0.67191229  1
  H+  H167  1  0.31944721  0.38963125  0.40202103  1
  H+  H168  1  0.37734117  0.37165123  0.96481393  1
  H+  H169  1  0.63735561  0.11168833  0.16614556  1
  H+  H170  1  0.95971817  0.35734840  0.83704962  1
  H+  H171  1  0.84138446  0.46755115  0.72037886  1
  H+  H172  1  0.51668904  0.62678664  0.49100726  1
  H+  H173  1  0.87857041  0.32657678  0.68287261  1
  H+  H174  1  0.10816976  0.63539595  0.17827087  1
  H+  H175  1  0.89376757  0.52954303  0.82834681  1
  H+  H176  1  0.38785329  0.66135981  0.20269143  1
  H+  H177  1  0.85425103  0.21692882  0.47912475  1
  H+  H178  1  0.86014080  0.62219367  0.49291286  1
  H+  H179  1  0.35328734  0.21660284  0.49314654  1
  H+  H180  1  0.79224199  0.14005701  0.01015687  1
  H+  H181  1  0.60112880  0.45108187  0.46656471  1
  H+  H182  1  0.37145032  0.90056587  0.67545735  1
  H+  H183  1  0.35875607  0.72031679  0.67031131  1
  H+  H184  1  0.47889829  0.60632476  0.83996995  1
  H+  H185  1  0.22496399  0.36059610  0.66741145  1
  H+  H186  1  0.83514259  0.68021079  0.03921377  1
  H+  H187  1  0.10070330  0.13908707  0.18662389  1
  H+  H188  1  0.53773963  0.90266749  -0.00479595  1
  H+  H189  1  0.95121912  0.11576680  0.09641367  1
  H+  H190  1  0.40522646  0.75351697  0.00693382  1
  H+  H191  1  0.60196655  0.97685415  0.81691064  1
  H+  H192  1  0.85658498  0.73507253  0.18136839  1
  H+  H193  1  0.83869768  0.59718708  0.68686979  1
  H+  H194  1  0.36487107  0.73034519  0.49507544  1
  H+  H195  1  0.36621521  0.22386336  0.82177289  1
  H+  H196  1  0.61916492  0.48127148  0.81989609  1
  H+  H197  1  0.35852681  0.75469986  0.32306408  1
  H+  H198  1  0.24893695  0.33246259  0.35382390  1
  H+  H199  1  0.63708936  0.59660409  0.33152974  1
  H+  H200  1  0.37966906  0.87382360  0.84214881  1
  H+  H201  1  0.89751765  0.39806835  0.16148211  1
  H+  H202  1  0.99795704  0.10642499  0.50212536  1
  H+  H203  1  0.35807954  0.32174376  0.16642345  1
  H+  H204  1  0.77186985  0.14150867  0.90944850  1
  H+  H205  1  0.46407069  0.86506776  0.83916431  1
  H+  H206  1  0.60974029  0.63418772  0.67894192  1
  H+  H207  1  0.64670753  0.26137590  0.97726410  1
  H+  H208  1  0.97281159  0.35660164  0.50303048  1
  H+  H209  1  0.01372911  0.65489831  0.81630134  1
  H+  H210  1  0.76146627  0.85618828  0.65966168  1
  H+  H211  1  0.88063285  0.36234609  -0.00778093  1
  H+  H212  1  0.40596388  0.09860490  0.16365091  1
  H+  H213  1  -0.01224604  0.39532997  0.35544084  1
  H+  H214  1  0.34236986  0.93275446  0.77161710  1
  H+  H215  1  0.22017840  0.60590198  0.50775031  1
  H+  H216  1  0.63161518  0.35429255  0.16546868  1
  H+  H217  1  0.14191088  0.02489851  0.84234741  1
  H+  H218  1  0.75852825  0.12632802  0.63354608  1
  H+  H219  1  0.35004994  0.12304788  -0.01102973  1
  H+  H220  1  0.71524744  0.62235919  0.98192781  1
  H+  H221  1  0.36268413  0.21362051  0.99388096  1
  H+  H222  1  0.64636931  0.34868833  0.31527402  1
  H+  H223  1  0.60861237  0.15438027  0.66544643  1
  H+  H224  1  0.66030747  0.11965712  0.98546107  1
  H+  H225  1  0.77787938  0.39657244  0.81181883  1
  H+  H226  1  0.87946700  0.99151418  0.12465907  1
  H+  H227  1  0.14628107  0.84347278  0.53718496  1
  H+  H228  1  0.31590982  0.38717722  0.87514610  1
  H+  H229  1  0.63490059  0.02083893  0.16242817  1
  H+  H230  1  0.13037088  0.51669507  0.50822516  1
  H+  H231  1  0.39202166  0.03306865  0.66063873  1
  H+  H232  1  0.35339121  0.49091475  0.17825690  1
  H+  H233  1  0.93018787  0.09338883  0.91314471  1
  H+  H234  1  0.26006992  0.12729353  0.49667647  1
  H+  H235  1  0.91288633  0.12953654  1.00646925  1
  H+  H236  1  0.25650941  0.78204140  0.03432882  1
  H+  H237  1  0.51012383  0.35340921  -0.01428096  1
  H+  H238  1  0.36333174  0.19510608  0.15017423  1
  H+  H239  1  0.27406319  0.13644540  0.82755326  1
  H+  H240  1  0.53772586  0.13499079  0.15367853  1
  H+  H241  1  0.52438509  0.37098450  0.32459926  1
  H+  H242  1  0.48743378  0.85980714  0.30480428  1
  H+  H243  1  0.12970434  0.50794168  0.17832297  1
  H+  H244  1  0.64335424  0.29017556  0.65569616  1
  H+  H245  1  0.39538742  0.49875564  0.16520227  1
  H+  H246  1  0.13119947  0.02815174  0.66301758  1
  H+  H247  1  0.13690390  0.77648493  0.18500232  1
  H+  H248  1  0.90468303  0.60791793  0.13888137  1
  H+  H249  1  0.32084658  0.47054595  0.02086998  1
  H+  H250  1  0.10955388  0.61363157  0.67970136  1
  H+  H251  1  0.11210631  0.75152991  0.81152759  1
  H+  H252  1  0.11239412  0.13900331  0.68289273  1
  H+  H253  1  0.70970662  0.10794747  0.82634034  1
  H+  H254  1  0.49384318  0.36817605  0.67631036  1
  H+  H255  1  0.08863475  0.89885792  0.47720361  1
  H+  H256  1  0.02849225  0.87564153  0.02608925  1
  H+  H257  1  0.35850199  0.89631156  0.14782881  1
  H+  H258  1  0.14616547  0.12358078  0.31474024  1
  H+  H259  1  0.01113732  0.39162218  0.01823032  1
  H+  H260  1  0.10812421  0.37407628  0.17678845  1
  H+  H261  1  0.13584964  0.28076835  0.50814572  1
  H+  H262  1  0.01068892  0.58808883  0.67882249  1
  H+  H263  1  0.38061772  0.85130056  0.99276224  1
  H+  H264  1  0.61534268  0.21814508  0.32907116  1
  H+  H265  1  0.63235019  0.53580023  0.53755027  1
  H+  H266  1  0.23077697  0.60812549  0.66261168  1
  H+  H267  1  0.77069011  0.13500389  0.16539530  1
  H+  H268  1  0.42842334  0.85868110  0.21424341  1
  H+  H269  1  0.85731749  0.21984212  0.33157710  1
  H+  H270  1  0.20359217  0.58293062  0.32314462  1
  H+  H271  1  0.90482584  0.87932948  0.15961340  1
  H+  H272  1  0.83015096  0.15952051  0.39108180  1
  H+  H273  1  0.09549429  0.22747924  0.19323686  1
  H+  H274  1  1.02634094  0.38936285  0.67246198  1
  H+  H275  1  0.89544895  0.51017816  0.33605249  1
  H+  H276  1  0.15570207  0.05261653  0.16313837  1
  H+  H277  1  0.62228877  0.23947134  0.48455574  1
  H+  H278  1  0.60649980  0.73661256  -0.00158098  1
  H+  H279  1  0.86536098  0.39667474  0.81165332  1
  H+  H280  1  0.89916464  0.03538591  0.32438454  1
  H+  H281  1  0.62678887  0.62336685  0.98772309  1
  H+  H282  1  0.60731832  0.64005075  0.16595509  1
  H+  H283  1  0.13582720  0.77969809  0.33665045  1
  H+  H284  1  0.39821014  1.03204472  -0.02177607  1
  H+  H285  1  0.90634797  1.00714931  0.49949294  1
  H+  H286  1  0.61563377  0.71506854  0.33024955  1
  H+  H287  1  0.97437242  0.91115448  0.96712034  1
  H+  H288  1  0.15703046  0.08899885  0.56837376  1
  H+  H289  1  0.58266114  0.67704171  0.06084871  1
  H+  H290  1  0.65290512  0.82986729  0.90743297  1
  H+  H291  1  0.43606755  0.08945986  0.22892056  1
  H+  H292  1  0.41282945  0.83340342  0.60215448  1
  H+  H293  1  0.56866284  0.91905778  0.74051557  1
  H+  H294  1  0.94360879  0.70668161  0.08628677  1
  H+  H295  1  0.66339883  0.03299341  0.98379514  1
  H+  H296  1  0.51213442  0.13454123  0.82127076  1
  H+  H297  1  0.07405622  0.93281579  0.38924472  1
  H+  H298  1  0.57715595  0.18038458  0.72632083  1
  H+  H299  1  0.17407107  0.34747414  0.23772380  1
  H+  H300  1  0.68420344  0.83696180  0.25769491  1
  H+  H301  1  0.89587607  0.52806852  0.17136346  1
  H+  H302  1  0.26776476  0.89147949  0.34523255  1
  H+  H303  1  0.15353360  0.57650374  0.26250167  1
  H+  H304  1  0.07122982  0.40651436  0.11954285  1
  H+  H305  1  0.62065142  0.04808148  0.25291160  1
  H+  H306  1  0.15407500  0.32406920  0.89555172  1
  H+  H307  1  0.91753664  0.57813491  0.92482154  1
  H+  H308  1  0.02567692  0.63802984  0.35306946  1
  H+  H309  1  0.88634138  0.35052999  0.28176570  1
  H+  H310  1  0.83537288  0.40401212  0.41762153  1
  H+  H311  1  0.59129870  0.15998759  0.05445546  1
  H+  H312  1  0.57838027  0.66814663  0.73704527  1
  H+  H313  1  0.91126511  0.40859527  0.64328182  1
  H+  H314  1  0.90577440  0.34073928  0.89734646  1
  H+  H315  1  0.90157700  0.98246790  0.77362201  1
  H+  H316  1  0.30061399  0.87275375  0.06920891  1
  H+  H317  1  0.84475376  0.17653795  0.07184048  1
  H+  H318  1  0.33730059  0.66709584  0.43897137  1
  H+  H319  1  0.27646878  0.39754560  0.07201974  1
  H+  H320  1  0.88906747  0.27727145  0.99312965  1
  H+  H321  1  0.40174721  0.08241083  0.57311409  1
  H+  H322  1  0.17742047  0.82389021  0.62587598  1
  H+  H323  1  0.87118494  0.84532809  0.50060512  1
  H+  H324  1  0.68009590  0.33225348  0.88655938  1
  H+  H325  1  0.67880964  0.34704540  0.55700267  1
  H+  H326  1  0.89017638  0.59759765  0.33628265  1
  H+  H327  1  0.16587375  0.33705555  0.56885612  1
  H+  H328  1  0.40283000  0.31128340  0.22606791  1
  H+  H329  1  0.57468588  0.65383971  0.42884571  1
  H+  H330  1  0.98093879  0.11825286  0.16410000  1
  H+  H331  1  0.63529618  0.75800447  0.49584560  1
  H+  H332  1  0.07262949  0.67266682  0.74946744  1
  H+  H333  1  0.88685797  0.61468551  0.83815123  1
  H+  H334  1  0.66900260  0.80844477  0.55856629  1
  H+  H335  1  0.16819399  0.83634188  0.88890257  1
  H+  H336  1  0.84575775  0.42198269  0.06272799  1
  H+  H337  1  0.65446444  0.58189974  0.89509418  1
  H+  H338  1  0.07241828  0.41586607  0.76910890  1
  H+  H339  1  0.16413718  0.08393983  0.90064346  1
  H+  H340  1  0.90913559  0.18390309  0.76226189  1
  H+  H341  1  0.42686359  0.08824190  0.91400038  1
  H+  H342  1  0.90452752  0.83765708  0.89314136  1
  H+  H343  1  0.24108005  0.26825753  0.11713052  1
  H+  H344  1  0.63294538  0.93022874  0.41922572  1
  H+  H345  1  0.90594248  0.32399657  0.55753072  1
  H+  H346  1  0.72565027  0.38803832  0.65442242  1
  H+  H347  1  0.21994356  0.11736593  0.66233142  1
  H+  H348  1  0.92937076  0.05934739  0.57254198  1
  H+  H349  1  0.17303320  0.84286591  0.23987097  1
  H+  H350  1  0.32283776  0.66616798  0.73176287  1
  H+  H351  1  0.32917129  0.41448317  0.74397142  1
  H+  H352  1  0.07312329  0.17188400  0.75298981  1
  H+  H353  1  0.91617709  0.80899728  0.59996377  1
  H+  H354  1  0.32545569  0.16366099  0.73382622  1
  H+  H355  1  0.25237899  0.64509685  0.81933365  1
  H+  H356  1  0.40565151  0.36273060  0.84248313  1
  H+  H357  1  0.88597127  0.12947626  0.32822565  1
  H+  H358  1  0.89605252  0.16913759  0.73009085  1
  H+  H359  1  0.58752658  0.17553508  0.42701550  1
  H+  H360  1  0.38671180  0.26348829  0.32504531  1
  H+  H361  1  0.10218360  0.20246959  0.43024528  1
  H+  H362  1  0.59897224  0.88523770  0.82960918  1
  H+  H363  1  0.65440746  0.78659361  0.16423582  1
  H+  H364  1  0.08396951  0.92186150  0.73339468  1
  H+  H365  1  0.42039512  0.57563496  0.90031270  1
  H+  H366  1  0.34939294  0.67214801  0.10749731  1
  H+  H367  1  0.53319885  0.66448703  0.16694874  1
  H+  H368  1  0.41579365  0.83783678  0.92863446  1
  H+  H369  1  0.35913271  0.68595134  0.36613020  1
  H+  H370  1  0.41472381  0.60542600  0.25473063  1
  H+  H371  1  0.16706320  0.57613775  0.60451757  1
  H+  H372  1  0.37584266  0.47680191  0.32214971  1
  H+  H373  1  0.94578551  0.74694070  0.09841052  1
  H+  H374  1  0.11198768  0.26019454  0.98280770  1
  H+  H375  1  0.51003040  0.37635578  0.15894794  1
  H+  H376  1  0.07077727  0.41791830  0.43659442  1
  H+  H377  1  0.92802004  0.85368874  0.22454723  1
  H+  H378  1  0.57581635  0.42390880  0.06855310  1
  H+  H379  1  0.64491907  0.57357124  0.23579434  1
  H+  H380  1  0.33153587  0.91949936  0.43869957  1
  H+  H381  1  0.08331102  0.66678002  0.44238122  1
  H+  H382  1  0.88386285  0.50873184  0.49895480  1
  H+  H383  1  0.68148149  0.61606079  0.60743671  1
  O2-  O384  1  0.06081774  0.16137782  0.19770103  1
  O2-  O385  1  0.08634319  0.18103178  0.47503052  1
  O2-  O386  1  0.06501301  0.17449749  0.80692648  1
  O2-  O387  1  0.07626653  0.40740939  0.16495297  1
  O2-  O388  1  0.07616698  0.41717323  0.48258171  1
  O2-  O389  1  0.06534271  0.41432835  0.81406839  1
  O2-  O390  1  0.08493964  0.67440136  0.17263159  1
  O2-  O391  1  0.08008738  0.66252713  0.48811300  1
  O2-  O392  1  0.06299183  0.69872678  0.79008036  1
  O2-  O393  1  0.10496674  0.93203566  0.14569835  1
  O2-  O394  1  0.05666123  0.92860863  0.47057247  1
  O2-  O395  1  0.08381006  0.91830357  0.81038194  1
  O2-  O396  1  0.34665409  0.13834127  0.13277976  1
  O2-  O397  1  0.32085116  0.15158394  0.48189686  1
  O2-  O398  1  0.33137802  0.16421413  0.80623176  1
  O2-  O399  1  0.27034128  0.32622546  0.13389196  1
  O2-  O400  1  0.32958642  0.40906456  0.47941935  1
  O2-  O401  1  0.33529613  0.41046361  0.83434570  1
  O2-  O402  1  0.33753188  0.67494653  0.15172912  1
  O2-  O403  1  0.33519777  0.66759851  0.48283264  1
  O2-  O404  1  0.30954223  0.67695549  0.79889757  1
  O2-  O405  1  0.31661735  0.90934685  0.12911941  1
  O2-  O406  1  0.33595988  0.91888456  0.48426862  1
  O2-  O407  1  0.33559662  0.92970829  0.81655043  1
  O2-  O408  1  0.59710741  0.16410909  0.13428622  1
  O2-  O409  1  0.58931651  0.17812160  0.47229938  1
  O2-  O410  1  0.57220740  0.16731762  0.79907494  1
  O2-  O411  1  0.57158917  0.41066333  0.14619856  1
  O2-  O412  1  0.57294666  0.38889141  0.46299117  1
  O2-  O413  1  0.59462549  0.42145115  0.80346732  1
  O2-  O414  1  0.58820115  0.68046408  0.14830100  1
  O2-  O415  1  0.57682771  0.65598568  0.47419609  1
  O2-  O416  1  0.58363350  0.67204730  0.81108949  1
  O2-  O417  1  0.58636529  0.91697911  0.13075151  1
  O2-  O418  1  0.59289826  0.90669156  0.49907685  1
  O2-  O419  1  0.56651231  0.91157283  0.81165458  1
  O2-  O420  1  0.83127827  0.17214843  0.15120052  1
  O2-  O421  1  0.82093460  0.15870245  0.46107180  1
  O2-  O422  1  0.80617277  0.15470843  0.87142547  1
  O2-  O423  1  0.90256382  0.44597995  0.13426206  1
  O2-  O424  1  0.83510578  0.41054168  0.46384586  1
  O2-  O425  1  0.83885796  0.43009940  0.79532040  1
  O2-  O426  1  0.81397370  0.67362500  0.18727553  1
  O2-  O427  1  0.83446090  0.65605606  0.47647019  1
  O2-  O428  1  0.83033550  0.66369833  0.81901674  1
  O2-  O429  1  0.84794843  0.92630054  0.11378183  1
  O2-  O430  1  0.83407481  0.91596575  0.46867672  1
  O2-  O431  1  0.86078394  0.94918298  0.80562435  1
  O2-  O432  1  0.17253052  0.10948135  0.18029985  1
  O2-  O433  1  0.15979621  0.09068342  0.52286819  1
  O2-  O434  1  0.17539020  0.08497313  0.85672815  1
  O2-  O435  1  0.15209595  0.32548613  0.19742166  1
  O2-  O436  1  0.16750586  0.34127952  0.52369443  1
  O2-  O437  1  0.14942309  0.33033921  0.84891317  1
  O2-  O438  1  0.15934811  0.57168654  0.19000508  1
  O2-  O439  1  0.16138609  0.57755939  0.52448624  1
  O2-  O440  1  0.15403826  0.58767887  0.85578283  1
  O2-  O441  1  0.17045163  0.84011801  0.19475761  1
  O2-  O442  1  0.18009825  0.81493018  0.53694318  1
  O2-  O443  1  0.17083484  0.83784041  0.84334598  1
  O2-  O444  1  0.44485210  0.08271924  0.18558122  1
  O2-  O445  1  0.39226510  0.07738603  0.52628019  1
  O2-  O446  1  0.42628511  0.08442107  0.85103682  1
  O2-  O447  1  0.40335945  0.30936966  0.18095946  1
  O2-  O448  1  0.40380393  0.31069086  0.50881027  1
  O2-  O449  1  0.43625424  0.33005782  0.84674129  1
  O2-  O450  1  0.42083727  0.66170050  0.24174343  1
  O2-  O451  1  0.41819046  0.57900277  0.52500555  1
  O2-  O452  1  0.41928942  0.56963774  0.85520591  1
  O2-  O453  1  0.42199595  0.84403388  0.17066641  1
  O2-  O454  1  0.41514006  0.82989576  0.51991207  1
  O2-  O455  1  0.40453353  0.83723783  0.85610500  1
  O2-  O456  1  0.66092209  0.07589424  0.18558758  1
  O2-  O457  1  0.65019921  0.08605906  0.50943730  1
  O2-  O458  1  0.65414748  0.07586304  0.80501557  1
  O2-  O459  1  0.66574200  0.32614165  0.17413581  1
  O2-  O460  1  0.67685817  0.34386082  0.51185301  1
  O2-  O461  1  0.68043815  0.33745830  0.84046248  1
  O2-  O462  1  0.64444513  0.58082658  0.19071113  1
  O2-  O463  1  0.67075523  0.59387185  0.52305734  1
  O2-  O464  1  0.65975508  0.58226937  0.84949932  1
  O2-  O465  1  0.68584075  0.84797699  0.17773222  1
  O2-  O466  1  0.66883723  0.81744073  0.51361304  1
  O2-  O467  1  0.65261691  0.83272999  0.85830365  1
  O2-  O468  1  0.92567851  0.09059541  0.13582033  1
  O2-  O469  1  0.95193269  0.05428455  0.52521521  1
  O2-  O470  1  0.91460100  0.09307085  0.86974487  1
  O2-  O471  1  0.91298131  0.33263808  0.20481104  1
  O2-  O472  1  0.90965325  0.32303603  0.51311922  1
  O2-  O473  1  0.89922417  0.33207210  0.85219641  1
  O2-  O474  1  0.90691128  0.58743977  0.17949557  1
  O2-  O475  1  0.90808844  0.56151308  0.52524301  1
  O2-  O476  1  0.92380656  0.58859720  0.84705026  1
  O2-  O477  1  0.93336729  0.85109901  0.17946239  1
  O2-  O478  1  0.90469010  0.82032282  0.51829034  1
  O2-  O479  1  0.90971065  0.83522372  0.84862288  1
  O2-  O480  1  0.17276591  0.08798298  0.30519223  1
  O2-  O481  1  0.15852593  0.08926109  0.64862781  1
  O2-  O482  1  0.14082721  0.08349819  0.98574709  1
  O2-  O483  1  0.13733146  0.24973070  0.36854011  1
  O2-  O484  1  0.16552150  0.32929603  0.65056640  1
  O2-  O485  1  0.16125772  0.30666457  0.96130625  1
  O2-  O486  1  0.15105919  0.57960882  0.30857983  1
  O2-  O487  1  0.16820078  0.57433749  0.64977592  1
  O2-  O488  1  0.15978493  0.58284391  0.98457310  1
  O2-  O489  1  0.16916678  0.84021798  0.32090528  1
  O2-  O490  1  0.18396612  0.84524429  0.66768872  1
  O2-  O491  1  0.15945978  0.83652111  0.96545205  1
  O2-  O492  1  0.41321305  0.09047304  0.31312082  1
  O2-  O493  1  0.41532506  0.09191264  0.64108853  1
  O2-  O494  1  0.42657226  0.09137269  0.96426482  1
  O2-  O495  1  0.41616461  0.32310665  0.30755662  1
  O2-  O496  1  0.41671660  0.33336341  0.66217724  1
  O2-  O497  1  0.46804383  0.30179033  0.95892238  1
  O2-  O498  1  0.40797833  0.54132766  0.31719059  1
  O2-  O499  1  0.40958654  0.57363811  0.64971168  1
  O2-  O500  1  0.41157193  0.56971883  0.97864289  1
  O2-  O501  1  0.44752590  0.88076888  0.29711893  1
  O2-  O502  1  0.41145241  0.83302491  0.64723378  1
  O2-  O503  1  0.42471680  0.83974209  0.97447088  1
  O2-  O504  1  0.59069170  0.02942154  0.29423362  1
  O2-  O505  1  0.64783835  0.08941502  0.63465705  1
  O2-  O506  1  0.69840259  0.09580015  0.97450679  1
  O2-  O507  1  0.67320244  0.31513154  0.30103559  1
  O2-  O508  1  0.66792622  0.34953711  0.63755651  1
  O2-  O509  1  0.67401507  0.32017889  0.95955378  1
  O2-  O510  1  0.66712405  0.56941093  0.31211591  1
  O2-  O511  1  0.67038184  0.60338609  0.65100722  1
  O2-  O512  1  0.65375992  0.59013699  0.97115207  1
  O2-  O513  1  0.68320248  0.82689746  0.30262293  1
  O2-  O514  1  0.65773392  0.80395346  0.63499947  1
  O2-  O515  1  0.64925340  0.82432290  0.97242969  1
  O2-  O516  1  0.92371513  0.09726285  0.31156110  1
  O2-  O517  1  0.90200260  0.05768411  0.62716979  1
  O2-  O518  1  0.94142376  0.09447317  0.99403387  1
  O2-  O519  1  0.87943181  0.34483912  0.32680147  1
  O2-  O520  1  0.91447514  0.35474761  0.64747440  1
  O2-  O521  1  0.91357004  0.33559237  0.97511922  1
  O2-  O522  1  0.92918906  0.57398229  0.33492448  1
  O2-  O523  1  0.90726294  0.50203633  0.64366677  1
  O2-  O524  1  0.91275683  0.57878395  0.97011546  1
  O2-  O525  1  0.92106417  0.83837583  0.30381201  1
  O2-  O526  1  0.91800177  0.80677042  0.64503048  1
  O2-  O527  1  0.91962719  0.85935331  0.97591795  1
  O2-  O528  1  0.03052983  0.14933309  0.01665822  1
  O2-  O529  1  0.09435763  0.18427986  0.32061087  1
  O2-  O530  1  0.08394940  0.17180757  0.69808985  1
  O2-  O531  1  0.05997782  0.42539394  0.04600747  1
  O2-  O532  1  0.04938745  0.41967336  0.36514841  1
  O2-  O533  1  0.08470873  0.41298223  0.68952059  1
  O2-  O534  1  0.08223466  0.67027219  0.00953162  1
  O2-  O535  1  0.08852150  0.67629827  0.36504464  1
  O2-  O536  1  0.06796891  0.63255132  0.69259450  1
  O2-  O537  1  0.08955864  0.91815696  0.02895358  1
  O2-  O538  1  0.08365483  0.92694218  0.34561816  1
  O2-  O539  1  0.08664700  0.92362554  0.68770989  1
  O2-  O540  1  0.32069794  0.15366521  0.00511742  1
  O2-  O541  1  0.32936635  0.16439333  0.35497137  1
  O2-  O542  1  0.32494002  0.16769739  0.68748625  1
  O2-  O543  1  0.26536073  0.42754503  0.03835634  1
  O2-  O544  1  0.31086003  0.37837664  0.35725721  1
  O2-  O545  1  0.32989882  0.41256903  0.69932638  1
  O2-  O546  1  0.39876453  0.70288852  0.03290620  1
  O2-  O547  1  0.34554462  0.69481658  0.32486050  1
  O2-  O548  1  0.33007910  0.66036524  0.68560634  1
  O2-  O549  1  0.29069044  0.84338489  0.02575321  1
  O2-  O550  1  0.32894384  0.92445064  0.36140169  1
  O2-  O551  1  0.34843307  0.93726457  0.69032283  1
  O2-  O552  1  0.59345260  0.15805176  0.00898917  1
  O2-  O553  1  0.57706294  0.16057996  0.34913564  1
  O2-  O554  1  0.58127749  0.18746231  0.68006021  1
  O2-  O555  1  0.57666678  0.42597143  0.02328555  1
  O2-  O556  1  0.58535660  0.39888782  0.33911781  1
  O2-  O557  1  0.56785151  0.40515276  0.68726469  1
  O2-  O558  1  0.57647763  0.67330729  0.01627205  1
  O2-  O559  1  0.58471805  0.65765893  0.35037542  1
  O2-  O560  1  0.57449223  0.66190496  0.69115387  1
  O2-  O561  1  0.59766636  0.92698478  0.00984939  1
  O2-  O562  1  0.62195819  0.91826254  0.37507690  1
  O2-  O563  1  0.57657283  0.92684695  0.69396563  1
  O2-  O564  1  0.85246197  0.17235648  0.02711799  1
  O2-  O565  1  0.83833776  0.16058547  0.34453276  1
  O2-  O566  1  0.81942563  0.14361119  0.62467153  1
  O2-  O567  1  0.83294660  0.41623467  0.01853730  1
  O2-  O568  1  0.83476717  0.39366170  0.34298776  1
  O2-  O569  1  0.83175970  0.48750261  0.67942531  1
  O2-  O570  1  0.83165509  0.67706201  -0.00507808  1
  O2-  O571  1  0.83951472  0.66666416  0.34708986  1
  O2-  O572  1  0.82784198  0.64431430  0.69745117  1
  O2-  O573  1  0.84301151  0.92551012  0.04642632  1
  O2-  O574  1  0.85021191  0.93078392  0.34481618  1
  O2-  O575  1  0.82192709  0.88833184  0.67525824  1
