# generated using pymatgen
data_H2O
_symmetry_space_group_name_H-M   'P 1'
_cell_length_a   17.99457647
_cell_length_b   17.99341054
_cell_length_c   22.01948882
_cell_angle_alpha   90.01637572
_cell_angle_beta   89.97160958
_cell_angle_gamma   119.98685887
_symmetry_Int_Tables_number   1
_chemical_formula_structural   H2O
_chemical_formula_sum   'H384 O192'
_cell_volume   6175.19139087
_cell_formula_units_Z   192
loop_
 _symmetry_equiv_pos_site_id
 _symmetry_equiv_pos_as_xyz
  1  'x, y, z'
loop_
 _atom_type_symbol
 _atom_type_oxidation_number
  H+  1.0
  O2-  -2.0
loop_
 _atom_site_type_symbol
 _atom_site_label
 _atom_site_symmetry_multiplicity
 _atom_site_fract_x
 _atom_site_fract_y
 _atom_site_fract_z
 _atom_site_occupancy
  H+  H0  1  0.64302713  0.85549537  0.32561622  1
  H+  H1  1  0.53013735  0.63535343  0.33976471  1
  H+  H2  1  0.98341905  0.11121795  0.18054037  1
  H+  H3  1  0.15332872  0.11572580  0.18208019  1
  H+  H4  1  0.86808224  0.26813704  0.84904990  1
  H+  H5  1  0.28332527  0.89419532  0.00687060  1
  H+  H6  1  0.77679698  0.62217550  0.32896416  1
  H+  H7  1  0.14144455  0.40644570  0.00446713  1
  H+  H8  1  0.36893333  1.01332770  0.33714822  1
  H+  H9  1  0.24116011  0.86969606  0.50206243  1
  H+  H10  1  0.16261783  0.67919467  0.71741914  1
  H+  H11  1  0.88528939  0.85357748  0.32331077  1
  H+  H12  1  0.37791737  0.55193648  0.64621708  1
  H+  H13  1  0.38762086  0.26716278  1.00586446  1
  H+  H14  1  0.39518693  0.27133163  0.17589028  1
  H+  H15  1  0.88388473  0.03691055  0.65341720  1
  H+  H16  1  0.92138125  0.83544375  0.26377130  1
  H+  H17  1  0.63282335  0.63741331  0.15852879  1
  H+  H18  1  0.15919555  0.79170801  0.17810647  1
  H+  H19  1  0.37875612  0.90076761  0.15839782  1
  H+  H20  1  0.02878155  0.14843477  0.03222707  1
  H+  H21  1  0.64463980  0.77357070  0.16929949  1
  H+  H22  1  0.32412459  0.67862499  0.90955200  1
  H+  H23  1  0.39881984  0.11695159  0.83808230  1
  H+  H24  1  0.32106359  0.17004141  0.43077071  1
  H+  H25  1  -0.02571130  0.87142812  -0.00193634  1
  H+  H26  1  0.60972945  0.35858350  -0.00003355  1
  H+  H27  1  0.87230568  0.14438727  0.16774705  1
  H+  H28  1  0.14104045  0.85973737  0.32827200  1
  H+  H29  1  0.87649564  0.91415578  0.68576005  1
  H+  H30  1  0.59642071  0.66750431  0.10117503  1
  H+  H31  1  0.99459093  0.62102456  0.31800821  1
  H+  H32  1  0.88607130  0.59773057  0.65034965  1
  H+  H33  1  0.57904337  0.41402810  0.39975573  1
  H+  H34  1  0.39582415  0.53392531  0.50439271  1
  H+  H35  1  0.36870511  0.06808082  0.28122056  1
  H+  H36  1  0.42514387  0.61576933  0.18403752  1
  H+  H37  1  0.63978409  0.52031656  0.83791994  1
  H+  H38  1  0.78346746  0.64255876  0.82377879  1
  H+  H39  1  0.37452608  0.27783671  0.65934361  1
  H+  H40  1  0.15020139  0.29985069  0.84983641  1
  H+  H41  1  1.03665630  0.90604720  0.15864170  1
  H+  H42  1  0.64441600  0.81092230  0.71299323  1
  H+  H43  1  0.84837309  0.46108485  1.00105379  1
  H+  H44  1  0.13001918  0.72936044  0.67704444  1
  H+  H45  1  0.63635051  0.51579944  0.32738058  1
  H+  H46  1  0.59993028  0.22189710  0.33491117  1
  H+  H47  1  0.86606368  0.60514265  -0.00982505  1
  H+  H48  1  0.90375088  0.36192676  0.52025694  1
  H+  H49  1  0.59448708  0.37771641  0.68516340  1
  H+  H50  1  0.36059486  0.40090441  0.65954556  1
  H+  H51  1  0.60892239  0.91216730  0.68526492  1
  H+  H52  1  0.11000570  0.12523540  0.34048761  1
  H+  H53  1  0.85688148  0.81256653  0.62450183  1
  H+  H54  1  0.40237004  0.77187659  0.83861653  1
  H+  H55  1  0.25074703  0.11985438  0.85064126  1
  H+  H56  1  0.62577606  0.76514102  0.84479272  1
  H+  H57  1  0.09747717  0.38214181  0.67536069  1
  H+  H58  1  0.64274860  0.51997869  0.49838698  1
  H+  H59  1  0.08243277  0.51801031  0.31531297  1
  H+  H60  1  0.16889368  0.13106444  0.85444997  1
  H+  H61  1  0.35440404  0.65320732  0.12892116  1
  H+  H62  1  0.88393060  0.78608264  0.00223021  1
  H+  H63  1  0.51954657  0.13106816  0.48773285  1
  H+  H64  1  0.26001053  0.13140783  0.34993271  1
  H+  H65  1  -0.02095454  0.86534900  0.85458831  1
  H+  H66  1  0.76853630  0.89135625  0.15297009  1
  H+  H67  1  0.31087511  0.70503943  0.65553609  1
  H+  H68  1  0.11950067  0.98047534  0.00636416  1
  H+  H69  1  0.29157733  0.39057118  0.02022957  1
  H+  H70  1  0.08900456  0.71401893  -0.00272938  1
  H+  H71  1  0.14009366  0.85760342  0.64743649  1
  H+  H72  1  0.32275431  0.68731937  0.07578482  1
  H+  H73  1  0.89168477  0.26787083  0.51222032  1
  H+  H74  1  0.87528776  0.60269379  0.84173896  1
  H+  H75  1  0.91706983  0.08477819  0.26918792  1
  H+  H76  1  0.16787613  0.08788694  0.56864811  1
  H+  H77  1  0.14142249  0.25973867  0.32840881  1
  H+  H78  1  0.39199461  0.52164982  0.32960144  1
  H+  H79  1  0.22793745  0.61775323  0.15558409  1
  H+  H80  1  0.02083847  0.31370930  0.11923709  1
  H+  H81  1  0.62365062  0.25876341  0.48696075  1
  H+  H82  1  0.26325720  0.14265295  0.50036759  1
  H+  H83  1  1.00377342  0.85427831  0.34456502  1
  H+  H84  1  0.38209309  0.01941601  0.50128106  1
  H+  H85  1  0.41960994  0.83949662  0.25807700  1
  H+  H86  1  1.01140981  0.63598047  0.83385869  1
  H+  H87  1  0.27471574  0.39029451  0.84755709  1
  H+  H88  1  0.64696547  0.12440407  0.50434421  1
  H+  H89  1  0.96508024  0.12880483  0.81442610  1
  H+  H90  1  0.87904842  0.39797847  0.31690420  1
  H+  H91  1  0.61207271  0.38649477  0.49411254  1
  H+  H92  1  0.59848179  0.46674354  0.69772458  1
  H+  H93  1  0.88648207  0.59718161  0.49142516  1
  H+  H94  1  0.34417192  0.92901851  0.06554897  1
  H+  H95  1  0.89873386  0.61517904  0.31599219  1
  H+  H96  1  0.46470471  0.36424607  0.66405013  1
  H+  H97  1  -0.02896879  0.13666801  0.84859757  1
  H+  H98  1  0.38308456  0.61429533  0.85979593  1
  H+  H99  1  0.62298910  0.25683719  0.88649427  1
  H+  H100  1  0.36713023  0.63481765  0.33238937  1
  H+  H101  1  0.59388934  0.66696447  0.39654918  1
  H+  H102  1  0.86423024  0.13467567  0.49232065  1
  H+  H103  1  0.23463388  0.36474490  0.17839579  1
  H+  H104  1  0.87921519  0.74397957  0.65138816  1
  H+  H105  1  0.84523542  0.37742431  0.67716600  1
  H+  H106  1  -0.14862321  0.54649906  0.13999059  1
  H+  H107  1  0.13986019  0.87147128  0.84972919  1
  H+  H108  1  0.37042000  0.64026650  0.48523298  1
  H+  H109  1  0.61704804  0.38027730  0.15671799  1
  H+  H110  1  0.64263055  0.27592217  0.16632570  1
  H+  H111  1  0.21600908  0.36452758  0.66137000  1
  H+  H112  1  0.78573161  0.14147283  0.14854923  1
  H+  H113  1  0.34565688  0.41929129  0.11164858  1
  H+  H114  1  0.64830823  0.77086698  0.32353031  1
  H+  H115  1  0.96540433  0.35556807  0.67202464  1
  H+  H116  1  0.51621967  0.36341218  1.00875323  1
  H+  H117  1  0.63180872  0.60714269  0.83293812  1
  H+  H118  1  0.84814131  0.91549137  0.39170748  1
  H+  H119  1  0.12253404  0.73613629  0.33556904  1
  H+  H120  1  0.72621135  0.36874865  0.17168837  1
  H+  H121  1  0.74120154  0.61387139  0.48852821  1
  H+  H122  1  0.36901204  0.13587476  0.00853564  1
  H+  H123  1  0.38375297  0.77480648  0.31523921  1
  H+  H124  1  0.21469458  0.77311827  0.96593096  1
  H+  H125  1  0.11920242  0.61009181  -0.00473955  1
  H+  H126  1  0.86040652  0.40532715  0.15981940  1
  H+  H127  1  0.35229942  0.13829736  0.67001868  1
  H+  H128  1  0.27285898  0.89331970  0.81858214  1
  H+  H129  1  0.12984810  0.65301709  0.14730769  1
  H+  H130  1  0.71513151  0.35216176  -0.02126590  1
  H+  H131  1  0.71945339  0.36738109  0.66510530  1
  H+  H132  1  0.37495061  0.75941649  0.50147408  1
  H+  H133  1  0.11393595  0.22052139  0.49643664  1
  H+  H134  1  0.23276299  0.86056845  0.65374424  1
  H+  H135  1  0.13785539  0.11658955  0.50733439  1
  H+  H136  1  0.60184782  0.83728022  0.84458326  1
  H+  H137  1  0.64319154  0.60816582  0.32556907  1
  H+  H138  1  0.13540698  0.53387861  0.81993322  1
  H+  H139  1  0.64751378  0.61709226  0.49659031  1
  H+  H140  1  0.37666456  0.84569109  0.65789365  1
  H+  H141  1  0.36539825  0.97778516  0.81596982  1
  H+  H142  1  0.01158691  0.86785872  0.64832581  1
  H+  H143  1  0.65126197  0.13557173  0.67354556  1
  H+  H144  1  0.34746724  0.12840175  0.35550348  1
  H+  H145  1  0.38287019  0.26907929  0.32843802  1
  H+  H146  1  0.36005222  0.88099603  0.49312155  1
  H+  H147  1  0.23113880  0.11393422  0.00833857  1
  H+  H148  1  0.85659839  0.13761950  0.66414431  1
  H+  H149  1  0.15115186  0.26402567  1.00659085  1
  H+  H150  1  0.62678040  0.35164671  0.32593823  1
  H+  H151  1  0.85991688  0.23219523  0.67523314  1
  H+  H152  1  0.87823498  0.27471360  0.17344961  1
  H+  H153  1  0.76073264  0.13599165  0.67179650  1
  H+  H154  1  0.50249229  0.85403693  0.33827405  1
  H+  H155  1  0.74857515  0.37764832  0.45401088  1
  H+  H156  1  0.84986182  0.37297027  0.00469446  1
  H+  H157  1  0.36678155  0.38218277  0.33630023  1
  H+  H158  1  0.63216787  0.26075561  0.98360500  1
  H+  H159  1  0.38910705  0.36892194  0.50803042  1
  H+  H160  1  0.10436529  0.35900328  0.15861995  1
  H+  H161  1  0.51753331  0.89881470  0.66853316  1
  H+  H162  1  0.52552905  0.89301401  0.00204992  1
  H+  H163  1  0.13678298  0.53148306  -0.00503191  1
  H+  H164  1  0.42040041  0.32557467  0.94558126  1
  H+  H165  1  0.15184207  0.87780100  0.50629689  1
  H+  H166  1  0.26458063  0.13816123  0.67504857  1
  H+  H167  1  0.40367006  0.81684789  0.56496618  1
  H+  H168  1  0.37545287  0.22892302  0.83083372  1
  H+  H169  1  0.78192417  0.88622408  0.33524711  1
  H+  H170  1  0.52696433  0.64549743  0.01308625  1
  H+  H171  1  0.39168158  0.53333271  1.00617305  1
  H+  H172  1  0.38276612  -0.00865460  0.15782982  1
  H+  H173  1  0.35654347  -0.03900450  0.66559710  1
  H+  H174  1  0.12834328  0.98761917  0.49528200  1
  H+  H175  1  0.74699045  0.13023962  0.87039019  1
  H+  H176  1  0.97824035  0.10992823  0.50141964  1
  H+  H177  1  0.89926250  0.51647066  0.31068479  1
  H+  H178  1  0.17326528  0.07806472  0.26641569  1
  H+  H179  1  0.64161177  0.51692708  0.16950850  1
  H+  H180  1  0.82324920  0.41509186  0.09694659  1
  H+  H181  1  0.02344539  0.13054234  0.34099276  1
  H+  H182  1  0.62828435  0.14391360  0.14509031  1
  H+  H183  1  0.13686166  1.01645080  0.32472811  1
  H+  H184  1  0.26108312  0.64204579  0.99742938  1
  H+  H185  1  0.13423679  0.34893961  0.51122965  1
  H+  H186  1  0.58883520  0.89323069  0.49286973  1
  H+  H187  1  0.88803059  0.02262791  0.32732266  1
  H+  H188  1  0.59496281  0.86341897  0.01180514  1
  H+  H189  1  0.36581070  0.88848385  0.33670621  1
  H+  H190  1  0.87152127  0.13210487  0.34207378  1
  H+  H191  1  0.25797567  0.65826252  0.31121061  1
  H+  H192  1  0.63516562  0.39215785  0.82827788  1
  H+  H193  1  0.77542488  0.64627102  1.00893569  1
  H+  H194  1  0.14074262  0.52942916  0.17247298  1
  H+  H195  1  0.11351505  0.88871186  1.00502374  1
  H+  H196  1  0.28532067  0.46280651  0.45416772  1
  H+  H197  1  0.38120208  0.39500291  1.01896090  1
  H+  H198  1  0.88732059  0.90364920  0.83814003  1
  H+  H199  1  0.48580963  0.87139533  0.16815617  1
  H+  H200  1  0.87966208  0.50698157  0.48605062  1
  H+  H201  1  0.62808965  0.11905870  0.31289251  1
  H+  H202  1  0.89290729  1.01859369  0.49936202  1
  H+  H203  1  0.64930260  0.04448021  0.31228933  1
  H+  H204  1  0.07035332  0.16786811  0.82389115  1
  H+  H205  1  0.87358629  0.72870446  0.83182665  1
  H+  H206  1  0.77839639  0.14386011  0.49474633  1
  H+  H207  1  0.62179751  0.72633108  0.49047152  1
  H+  H208  1  0.90623702  0.56022694  0.59069973  1
  H+  H209  1  0.62420861  0.24050645  0.69560903  1
  H+  H210  1  0.48617766  0.35725548  0.85508433  1
  H+  H211  1  0.22903314  0.35255592  0.32868625  1
  H+  H212  1  0.42936853  0.60207127  0.55892243  1
  H+  H213  1  0.13829304  0.62232064  0.82733539  1
  H+  H214  1  0.12863585  0.27218675  0.66617438  1
  H+  H215  1  0.52631414  0.39316692  0.49965092  1
  H+  H216  1  0.80999835  0.06789388  0.87477823  1
  H+  H217  1  1.00998176  0.13742953  0.65772538  1
  H+  H218  1  0.70175597  0.88828315  0.51787003  1
  H+  H219  1  0.39864399  0.36159484  0.85728511  1
  H+  H220  1  0.64324855  0.02997376  0.15883895  1
  H+  H221  1  0.67286635  0.57914988  0.75442937  1
  H+  H222  1  0.10678598  0.35337733  0.34232357  1
  H+  H223  1  0.82436070  0.36174976  0.44079910  1
  H+  H224  1  0.51612283  0.63052591  0.83390626  1
  H+  H225  1  0.87099638  0.71542620  0.47802473  1
  H+  H226  1  0.77744026  0.62637381  0.68759987  1
  H+  H227  1  0.86274154  0.71385529  0.32662891  1
  H+  H228  1  0.26175890  0.38831911  0.49884146  1
  H+  H229  1  0.12118946  0.10335038  0.66075506  1
  H+  H230  1  -0.04779148  0.60154503  -0.00879156  1
  H+  H231  1  0.12560418  1.01656486  0.65677704  1
  H+  H232  1  0.39276642  0.02949208  0.99344230  1
  H+  H233  1  0.16511542  0.57444733  0.55193453  1
  H+  H234  1  0.96931369  0.34016799  0.32618769  1
  H+  H235  1  0.90752875  0.08621469  0.58824207  1
  H+  H236  1  0.11419428  0.62003080  0.47553728  1
  H+  H237  1  0.15043532  0.02511985  0.17473357  1
  H+  H238  1  0.52936754  0.12783764  0.99798221  1
  H+  H239  1  0.39102886  0.78694866  0.16228008  1
  H+  H240  1  0.61247066  0.68717174  0.65012025  1
  H+  H241  1  0.51569089  0.64029205  0.66948636  1
  H+  H242  1  0.48408612  0.86845884  0.49523303  1
  H+  H243  1  0.02344576  0.61597908  0.47446030  1
  H+  H244  1  0.14573260  0.51357749  0.49475637  1
  H+  H245  1  0.03079219  0.37574398  0.50121518  1
  H+  H246  1  0.37937421  0.47458939  0.17209556  1
  H+  H247  1  0.89569623  0.13492022  1.07335740  1
  H+  H248  1  0.10409616  0.53243305  0.34585243  1
  H+  H249  1  0.53417668  0.63672677  0.49226226  1
  H+  H250  1  0.16185668  0.66335333  0.31249499  1
  H+  H251  1  0.27515321  0.62961501  0.48507002  1
  H+  H252  1  0.26981957  0.64052654  0.84864599  1
  H+  H253  1  0.63494353  0.60287221  0.69836850  1
  H+  H254  1  0.61748665  0.73283176  1.00961380  1
  H+  H255  1  0.89457842  0.89298939  0.17133733  1
  H+  H256  1  0.39942465  0.65103313  0.64566307  1
  H+  H257  1  0.52815496  0.38133449  0.15557235  1
  H+  H258  1  0.12798017  -0.00611329  0.85219373  1
  H+  H259  1  0.78734089  0.91184221  0.69627105  1
  H+  H260  1  0.89493443  0.88257054  0.48322131  1
  H+  H261  1  0.50924301  0.13229190  0.33780228  1
  H+  H262  1  0.46623540  0.10597755  0.22324680  1
  H+  H263  1  0.83508972  0.98352008  0.86056093  1
  H+  H264  1  0.13048281  0.77830039  0.84069219  1
  H+  H265  1  0.78090146  0.39926757  0.76114381  1
  H+  H266  1  0.12336328  0.22424210  0.17449697  1
  H+  H267  1  0.99746864  0.85514436  0.49975584  1
  H+  H268  1  0.65749511  0.32241976  0.26754522  1
  H+  H269  1  0.09229906  0.66114497  0.38915354  1
  H+  H270  1  0.09913518  0.39376206  0.83212773  1
  H+  H271  1  0.56362578  0.15610269  0.73426956  1
  H+  H272  1  0.27353633  0.88313535  0.34224938  1
  H+  H273  1  0.86559963  0.22478862  0.33911801  1
  H+  H274  1  0.51924906  0.38266042  0.34071794  1
  H+  H275  1  0.61210396  0.89006559  0.15837651  1
  H+  H276  1  0.80217526  0.86600162  0.48218532  1
  H+  H277  1  0.63548843  0.04028721  0.66398401  1
  H+  H278  1  0.64730764  0.14512803  0.87218319  1
  H+  H279  1  0.50474665  0.12888841  0.15800805  1
  H+  H280  1  0.45677169  0.10215485  0.65492794  1
  H+  H281  1  0.11734244  0.51248577  0.64640262  1
  H+  H282  1  0.10953449  0.13110462  1.02053336  1
  H+  H283  1  0.41978458  0.91114985  0.96705729  1
  H+  H284  1  0.45828266  0.88754967  0.90976387  1
  H+  H285  1  0.38533210  0.52593641  0.85080092  1
  H+  H286  1  0.85204142  0.46956212  0.66704522  1
  H+  H287  1  0.28640861  0.13447596  0.16692711  1
  H+  H288  1  0.17226614  0.33194502  0.23636076  1
  H+  H289  1  0.87721243  1.01528610  0.01589355  1
  H+  H290  1  0.40171843  0.07504588  0.59515179  1
  H+  H291  1  0.83952937  0.65674224  0.06408386  1
  H+  H292  1  0.06217158  0.66487994  0.05948184  1
  H+  H293  1  0.35919894  0.23676058  0.49624787  1
  H+  H294  1  0.38156148  0.10836894  0.50185706  1
  H+  H295  1  0.22327372  0.29136781  0.95838829  1
  H+  H296  1  0.19455888  0.62981827  0.24809132  1
  H+  H297  1  0.85354926  0.66859830  0.73346338  1
  H+  H298  1  0.88876134  0.02759995  0.17265258  1
  H+  H299  1  0.69290931  0.32474880  0.53361882  1
  H+  H300  1  0.62083622  0.82851578  0.55549321  1
  H+  H301  1  0.84187768  0.16743246  0.40588963  1
  H+  H302  1  0.83501657  0.65552106  0.41797550  1
  H+  H303  1  0.90968674  0.32240697  0.61140666  1
  H+  H304  1  0.37980442  0.14141743  0.16322642  1
  H+  H305  1  0.08538258  0.16152076  0.43537999  1
  H+  H306  1  0.65962845  0.83050692  0.93185663  1
  H+  H307  1  0.33517707  0.41157909  0.39522498  1
  H+  H308  1  0.79935282  0.13099255  0.80674439  1
  H+  H309  1  0.97072513  0.95155468  0.21299265  1
  H+  H310  1  0.59574609  0.17493759  0.08776041  1
  H+  H311  1  0.06025516  0.87930389  0.70837455  1
  H+  H312  1  0.65923775  0.11684004  0.93938263  1
  H+  H313  1  0.51845117  0.78797554  0.37423793  1
  H+  H314  1  0.42158955  0.08641546  0.93281510  1
  H+  H315  1  0.96462559  0.36135640  0.17809400  1
  H+  H316  1  0.33956846  0.17273906  0.76913826  1
  H+  H317  1  0.41201442  0.33648039  0.56898086  1
  H+  H318  1  0.66497545  0.57061288  0.23198413  1
  H+  H319  1  0.16958983  0.35431809  0.90910880  1
  H+  H320  1  0.00683371  0.38580265  0.82838390  1
  H+  H321  1  0.68184497  0.60922964  0.93383576  1
  H+  H322  1  0.64193153  0.32941115  0.61588581  1
  H+  H323  1  0.17888001  0.83685639  0.56765567  1
  H+  H324  1  0.64460978  0.62776397  0.99352431  1
  H+  H325  1  0.18143822  0.72936765  0.10367005  1
  H+  H326  1  0.57413514  0.15773818  0.42505379  1
  H+  H327  1  0.34142753  0.16169884  0.07171728  1
  H+  H328  1  0.09306482  0.94426182  0.79180546  1
  H+  H329  1  0.39491255  0.36081596  0.17799093  1
  H+  H330  1  0.09446555  0.92825552  0.10011224  1
  H+  H331  1  0.35356558  0.64456186  0.00052310  1
  H+  H332  1  0.57075455  0.66044174  0.77249938  1
  H+  H333  1  0.90696595  0.33088682  0.90344195  1
  H+  H334  1  0.82668596  0.92750527  0.09293858  1
  H+  H335  1  0.67952924  0.10732925  0.56724004  1
  H+  H336  1  0.06952530  0.41601825  0.73363839  1
  H+  H337  1  0.53289800  0.88690904  0.77389744  1
  H+  H338  1  0.24941861  0.87833285  0.18196485  1
  H+  H339  1  0.48959281  0.12542075  0.84834556  1
  H+  H340  1  0.67248624  0.83801086  0.64709697  1
  H+  H341  1  0.86817730  0.94819603  0.78090379  1
  H+  H342  1  0.33442361  0.91178751  0.43141736  1
  H+  H343  1  0.07840322  0.38787105  0.43734205  1
  H+  H344  1  0.90995620  0.16282467  1.00643538  1
  H+  H345  1  0.17871124  0.09162332  0.94713554  1
  H+  H346  1  0.43452158  0.58205363  0.27210978  1
  H+  H347  1  0.41940712  0.58755206  0.94502906  1
  H+  H348  1  0.92631526  0.80942572  0.55120724  1
  H+  H349  1  0.32730059  0.90761245  0.72764405  1
  H+  H350  1  0.78220160  0.61502489  0.18251074  1
  H+  H351  1  0.82547302  0.42407487  0.36064733  1
  H+  H352  1  0.67298184  0.83393357  0.22776507  1
  H+  H353  1  0.03406644  0.80600298  0.38742823  1
  H+  H354  1  0.90841294  0.31859482  0.26618369  1
  H+  H355  1  0.32917920  0.38873381  0.79233186  1
  H+  H356  1  0.51068032  0.61287789  0.17735785  1
  H+  H357  1  0.18283737  0.83937221  0.26811080  1
  H+  H358  1  0.04055135  0.14239595  0.72338301  1
  H+  H359  1  0.85348965  0.48641567  0.84996019  1
  H+  H360  1  0.84374832  0.37732703  0.84711085  1
  H+  H361  1  0.07031989  0.67189513  0.77415771  1
  H+  H362  1  0.11774681  0.59963057  0.64149116  1
  H+  H363  1  0.09505537  0.43509128  0.34709128  1
  H+  H364  1  0.15241701  0.20903657  0.78069558  1
  H+  H365  1  0.57675137  0.40077513  0.77877623  1
  H+  H366  1  0.33569004  0.66608178  0.39100313  1
  H+  H367  1  0.67248405  0.09391958  0.21558770  1
  H+  H368  1  0.34395298  0.45400529  0.70971534  1
  H+  H369  1  0.41875486  0.32652952  0.26735034  1
  H+  H370  1  0.17993458  0.82254128  0.92766975  1
  H+  H371  1  0.16225755  0.32166674  0.57234548  1
  H+  H372  1  0.72453268  0.87094325  0.98819697  1
  H+  H373  1  0.09494747  0.92003118  0.43817984  1
  H+  H374  1  0.89834572  0.57269781  0.90710027  1
  H+  H375  1  0.09429747  0.16373492  0.11677950  1
  H+  H376  1  0.57321439  0.90673297  0.09756564  1
  H+  H377  1  0.87560384  0.92609988  0.99638100  1
  H+  H378  1  0.54481138  0.89030737  0.42896101  1
  H+  H379  1  0.81517179  0.00076701  0.93153507  1
  H+  H380  1  0.91180636  0.83175009  0.90868028  1
  H+  H381  1  0.64527199  0.25187874  0.81842690  1
  H+  H382  1  0.09541319  0.41699416  0.06134373  1
  H+  H383  1  0.58492980  0.39534159  0.06843228  1
  O2-  O384  1  0.09254002  0.16229129  0.16219326  1
  O2-  O385  1  0.08366348  0.15964778  0.48100695  1
  O2-  O386  1  0.13403084  0.20015229  0.82321870  1
  O2-  O387  1  0.06066043  0.36929955  0.13741464  1
  O2-  O388  1  0.08832872  0.40030423  0.48188434  1
  O2-  O389  1  0.06587460  0.41615081  0.81108627  1
  O2-  O390  1  0.12750323  0.70058005  0.12624241  1
  O2-  O391  1  0.08249060  0.64700149  0.45775312  1
  O2-  O392  1  0.07048384  0.67473730  0.81933722  1
  O2-  O393  1  0.09681854  0.93403476  0.14486217  1
  O2-  O394  1  0.10353812  0.92594509  0.48309869  1
  O2-  O395  1  0.09096666  0.93389953  0.83534569  1
  O2-  O396  1  0.34567949  0.16810674  0.14948944  1
  O2-  O397  1  0.32518316  0.17460349  0.48104725  1
  O2-  O398  1  0.34365753  0.16931855  0.81401817  1
  O2-  O399  1  0.34240654  0.41489050  0.15717220  1
  O2-  O400  1  0.31232582  0.43415803  0.47485733  1
  O2-  O401  1  0.33512879  0.40760493  0.83451385  1
  O2-  O402  1  0.32200563  0.68272290  0.12297989  1
  O2-  O403  1  0.33659466  0.66664718  0.46998879  1
  O2-  O404  1  0.32991172  0.66916877  0.86623183  1
  O2-  O405  1  0.34723430  0.93058707  0.14468368  1
  O2-  O406  1  0.33302682  0.91405156  0.47747405  1
  O2-  O407  1  0.32721428  0.92271712  0.79546759  1
  O2-  O408  1  0.59732174  0.17571465  0.13339377  1
  O2-  O409  1  0.57882636  0.16243825  0.47107437  1
  O2-  O410  1  0.60577827  0.21806815  0.85112170  1
  O2-  O411  1  0.58693522  0.40963262  0.13734280  1
  O2-  O412  1  0.58608975  0.42270377  0.48355085  1
  O2-  O413  1  0.59082045  0.40839950  0.82327378  1
  O2-  O414  1  0.60007972  0.66711252  0.14704227  1
  O2-  O415  1  0.59604943  0.66582667  0.47798047  1
  O2-  O416  1  0.57583327  0.65621291  0.81657487  1
  O2-  O417  1  0.58184951  0.91995929  0.14378594  1
  O2-  O418  1  0.54723067  0.90802272  0.47378507  1
  O2-  O419  1  0.51475052  0.83621163  0.80005353  1
  O2-  O420  1  0.84958937  0.17415574  0.14238966  1
  O2-  O421  1  0.84000003  0.17104689  0.47811454  1
  O2-  O422  1  0.80891606  0.14042159  0.85037501  1
  O2-  O423  1  0.82656650  0.42883286  0.14119006  1
  O2-  O424  1  0.80913972  0.40666476  0.43882012  1
  O2-  O425  1  0.81150007  0.41193863  0.84886190  1
  O2-  O426  1  0.84477560  0.63506934  0.18760314  1
  O2-  O427  1  0.83272753  0.65502488  0.46413628  1
  O2-  O428  1  0.84558225  0.66979907  0.81329600  1
  O2-  O429  1  0.82950222  0.92596055  0.13758741  1
  O2-  O430  1  0.86016246  0.91016448  0.47113945  1
  O2-  O431  1  0.88253165  0.95424821  0.82445966  1
  O2-  O432  1  0.18304853  0.08409618  0.19570844  1
  O2-  O433  1  0.17338432  0.09072934  0.52300236  1
  O2-  O434  1  0.19190462  0.09480663  0.86972673  1
  O2-  O435  1  0.17289023  0.33206925  0.19097765  1
  O2-  O436  1  0.16648661  0.32028552  0.52693802  1
  O2-  O437  1  0.17302812  0.35961578  0.86436645  1
  O2-  O438  1  0.17281398  0.59123930  0.18007575  1
  O2-  O439  1  0.17482550  0.57518943  0.50655213  1
  O2-  O440  1  0.17373004  0.59659117  0.81642108  1
  O2-  O441  1  0.19273966  0.84405684  0.20252117  1
  O2-  O442  1  0.17977356  0.84308523  0.51984742  1
  O2-  O443  1  0.16905890  0.83776878  0.85675185  1
  O2-  O444  1  0.44697032  0.09990155  0.18125328  1
  O2-  O445  1  0.41175972  0.07949740  0.51766554  1
  O2-  O446  1  0.42748790  0.08582640  0.85388279  1
  O2-  O447  1  0.42694516  0.33159951  0.19199877  1
  O2-  O448  1  0.41390874  0.33458170  0.52265393  1
  O2-  O449  1  0.42497880  0.32637637  0.86854924  1
  O2-  O450  1  0.45016441  0.58124782  0.19671803  1
  O2-  O451  1  0.43266230  0.59608941  0.51370291  1
  O2-  O452  1  0.41861944  0.58563625  0.86533804  1
  O2-  O453  1  0.42364447  0.84253033  0.18367389  1
  O2-  O454  1  0.40384064  0.82034824  0.51870548  1
  O2-  O455  1  0.44231715  0.83494516  0.83259461  1
  O2-  O456  1  0.67701496  0.09208024  0.17040958  1
  O2-  O457  1  0.68457270  0.10482160  0.52267235  1
  O2-  O458  1  0.67093850  0.11298422  0.89290598  1
  O2-  O459  1  0.66530492  0.33339718  0.18602205  1
  O2-  O460  1  0.65886757  0.32315486  0.49864578  1
  O2-  O461  1  0.74691780  0.38237831  0.80045073  1
  O2-  O462  1  0.67164879  0.57593190  0.18684468  1
  O2-  O463  1  0.67946140  0.58511566  0.50716805  1
  O2-  O464  1  0.67257912  0.58412398  0.83427144  1
  O2-  O465  1  0.67072853  0.83473984  0.18276352  1
  O2-  O466  1  0.64234195  0.84150672  0.51382763  1
  O2-  O467  1  0.64760771  0.82540882  0.85717738  1
  O2-  O468  1  0.92202530  0.08401709  0.19390522  1
  O2-  O469  1  0.91596393  0.07843193  0.51373317  1
  O2-  O470  1  0.80336455  0.00692847  0.88853464  1
  O2-  O471  1  0.90491721  0.33288059  0.19327157  1
  O2-  O472  1  0.92642361  0.32528854  0.53328627  1
  O2-  O473  1  0.89784877  0.33040202  0.85804249  1
  O2-  O474  1  0.86423646  0.60575354  0.13044584  1
  O2-  O475  1  0.91315796  0.56362322  0.50567198  1
  O2-  O476  1  0.89903147  0.56691713  0.85958325  1
  O2-  O477  1  0.94053548  0.89307001  0.19714380  1
  O2-  O478  1  0.93415548  0.81950586  0.50649692  1
  O2-  O479  1  0.91662429  0.83113554  0.86300167  1
  O2-  O480  1  0.16774349  0.07700274  0.31331316  1
  O2-  O481  1  0.15608591  0.07826104  0.64562186  1
  O2-  O482  1  0.17079918  0.08640644  0.99210588  1
  O2-  O483  1  0.16814819  0.32072208  0.31418592  1
  O2-  O484  1  0.15471402  0.33085668  0.64897364  1
  O2-  O485  1  0.19443838  0.31545678  0.98211588  1
  O2-  O486  1  0.21378230  0.66587415  0.28660529  1
  O2-  O487  1  0.14544485  0.56853925  0.62506418  1
  O2-  O488  1  0.16088174  0.59260260  0.98252201  1
  O2-  O489  1  0.17733848  0.83551986  0.31580079  1
  O2-  O490  1  0.17316659  0.82986977  0.63393405  1
  O2-  O491  1  0.18586583  0.80660453  0.97101183  1
  O2-  O492  1  0.38876528  0.07449689  0.32316681  1
  O2-  O493  1  0.39745417  0.07337278  0.64067860  1
  O2-  O494  1  0.42419167  0.09053275  0.97818687  1
  O2-  O495  1  0.41513705  0.32858020  0.31324010  1
  O2-  O496  1  0.40677562  0.33829129  0.64382281  1
  O2-  O497  1  0.42065404  0.32866396  0.99109487  1
  O2-  O498  1  0.42379744  0.58329225  0.31676605  1
  O2-  O499  1  0.42084902  0.61120482  0.63425400  1
  O2-  O500  1  0.41727517  0.59267903  0.99005961  1
  O2-  O501  1  0.41577343  0.83670724  0.30419503  1
  O2-  O502  1  0.41077496  0.82036172  0.63807394  1
  O2-  O503  1  0.47239190  0.91690052  0.94931489  1
  O2-  O504  1  0.66557493  0.09955986  0.29369337  1
  O2-  O505  1  0.67473184  0.10197526  0.65182704  1
  O2-  O506  1  0.63709439  0.12130595  1.00438381  1
  O2-  O507  1  0.65176508  0.31631168  0.31249217  1
  O2-  O508  1  0.65396014  0.33493745  0.65922476  1
  O2-  O509  1  0.65344274  0.32018708  0.96609056  1
  O2-  O510  1  0.67105141  0.57566452  0.31103239  1
  O2-  O511  1  0.66786745  0.57436381  0.70905850  1
  O2-  O512  1  0.68016226  0.60346953  0.97798239  1
  O2-  O513  1  0.67865854  0.83231777  0.30987198  1
  O2-  O514  1  0.67750607  0.86199791  0.68761090  1
  O2-  O515  1  0.66452022  0.83079788  0.97764630  1
  O2-  O516  1  0.91689835  0.08487896  0.31520446  1
  O2-  O517  1  0.90879414  0.09457093  0.63376089  1
  O2-  O518  1  0.91940441  0.12568401  1.03533289  1
  O2-  O519  1  0.90856865  0.31621427  0.31247306  1
  O2-  O520  1  0.90352080  0.32110267  0.65653016  1
  O2-  O521  1  0.91097490  0.31586509  0.97827270  1
  O2-  O522  1  0.93401198  0.58870024  0.30173813  1
  O2-  O523  1  0.90608706  0.55890418  0.63562925  1
  O2-  O524  1  0.89208563  0.57032741  0.97454494  1
  O2-  O525  1  0.91372769  0.82137806  0.30812277  1
  O2-  O526  1  0.90450711  0.80145722  0.62805484  1
  O2-  O527  1  0.91325879  0.84547141  0.98504732  1
  O2-  O528  1  0.09102184  0.17000418  0.03923267  1
  O2-  O529  1  0.08333036  0.15796043  0.35724367  1
  O2-  O530  1  0.06418739  0.15735966  0.68230827  1
  O2-  O531  1  0.10625946  0.43042481  0.01768677  1
  O2-  O532  1  0.06854053  0.37483115  0.35994161  1
  O2-  O533  1  0.06528936  0.41115337  0.68812232  1
  O2-  O534  1  0.05168573  0.65631689  0.01509423  1
  O2-  O535  1  0.09615492  0.67189456  0.34251613  1
  O2-  O536  1  0.11072537  0.67565635  0.70038419  1
  O2-  O537  1  0.08377673  0.91844744  0.01884259  1
  O2-  O538  1  0.05478493  0.86313015  0.37015436  1
  O2-  O539  1  0.07048978  0.89857248  0.66617083  1
  O2-  O540  1  0.33748646  0.16399275  0.02640167  1
  O2-  O541  1  0.31918593  0.16213465  0.36930701  1
  O2-  O542  1  0.32617125  0.17138910  0.68670428  1
  O2-  O543  1  0.35156287  0.42545321  0.03482380  1
  O2-  O544  1  0.33583434  0.41292462  0.35042514  1
  O2-  O545  1  0.33028514  0.43429861  0.66774978  1
  O2-  O546  1  0.32491865  0.67925835  0.00579571  1
  O2-  O547  1  0.33958477  0.66907032  0.34556044  1
  O2-  O548  1  0.37280987  0.73129158  0.66439693  1
  O2-  O549  1  0.34316165  0.93113918  0.02022278  1
  O2-  O550  1  0.33524040  0.91520691  0.35735416  1
  O2-  O551  1  0.32778653  0.90104582  0.68069971  1
  O2-  O552  1  0.58975543  0.16666459  0.01291394  1
  O2-  O553  1  0.56961264  0.15953521  0.35080653  1
  O2-  O554  1  0.62005822  0.18880074  0.71568694  1
  O2-  O555  1  0.57927650  0.38881760  0.02151301  1
  O2-  O556  1  0.58019972  0.41377396  0.35489821  1
  O2-  O557  1  0.56027533  0.40315031  0.70154942  1
  O2-  O558  1  0.58804059  0.67271128  0.02638640  1
  O2-  O559  1  0.59233373  0.66750848  0.35151739  1
  O2-  O560  1  0.57568086  0.66500302  0.68587669  1
  O2-  O561  1  0.55200781  0.87283115  0.03318290  1
  O2-  O562  1  0.54530761  0.84967913  0.36647905  1
  O2-  O563  1  0.57300681  0.93915417  0.68806271  1
  O2-  O564  1  0.87446296  0.23267620  -0.02581242  1
  O2-  O565  1  0.84239801  0.16496402  0.35919936  1
  O2-  O566  1  0.82679053  0.16546427  0.68572727  1
  O2-  O567  1  0.81668467  0.40109370  0.01652101  1
  O2-  O568  1  0.85251044  0.43494480  0.31976975  1
  O2-  O569  1  0.81562326  0.41001536  0.68659256  1
  O2-  O570  1  0.83780591  0.67315012  0.02146340  1
  O2-  O571  1  0.83846387  0.65417822  0.34298857  1
  O2-  O572  1  0.84144219  0.65960099  0.68882038  1
  O2-  O573  1  0.84054661  0.95397501  0.00362809  1
  O2-  O574  1  0.84436222  0.91734330  0.34675755  1
  O2-  O575  1  0.85124083  0.94838888  0.69927160  1
