# generated using pymatgen
data_H2O
_symmetry_space_group_name_H-M   'P 1'
_cell_length_a   17.99221344
_cell_length_b   17.99219099
_cell_length_c   22.00876214
_cell_angle_alpha   90.02280328
_cell_angle_beta   90.00164867
_cell_angle_gamma   120.00328885
_symmetry_Int_Tables_number   1
_chemical_formula_structural   H2O
_chemical_formula_sum   'H384 O192'
_cell_volume   6169.93306422
_cell_formula_units_Z   192
loop_
 _symmetry_equiv_pos_site_id
 _symmetry_equiv_pos_as_xyz
  1  'x, y, z'
loop_
 _atom_type_symbol
 _atom_type_oxidation_number
  H+  1.0
  O2-  -2.0
loop_
 _atom_site_type_symbol
 _atom_site_label
 _atom_site_symmetry_multiplicity
 _atom_site_fract_x
 _atom_site_fract_y
 _atom_site_fract_z
 _atom_site_occupancy
  H+  H0  1  0.61197816  0.88525754  1.00501515  1
  H+  H1  1  0.01677426  0.13366300  0.67677420  1
  H+  H2  1  0.13158525  0.73776001  0.35069944  1
  H+  H3  1  0.10348124  0.47775941  0.71916797  1
  H+  H4  1  0.86785288  0.47719894  0.81937816  1
  H+  H5  1  0.89721801  0.12320034  0.98335656  1
  H+  H6  1  0.48614833  0.64338365  0.32798676  1
  H+  H7  1  0.77057412  0.88552703  0.67601347  1
  H+  H8  1  0.47944346  0.87029962  0.17078681  1
  H+  H9  1  0.39095891  0.53029425  0.85358739  1
  H+  H10  1  0.60485386  0.21854481  0.50039631  1
  H+  H11  1  0.86741590  -0.03093055  0.34564905  1
  H+  H12  1  0.13950872  0.86917549  0.66257976  1
  H+  H13  1  0.61401696  0.25692364  0.18209995  1
  H+  H14  1  0.89169001  0.76525031  0.35201846  1
  H+  H15  1  0.33275023  0.41427878  0.43669835  1
  H+  H16  1  0.10802063  0.13877484  0.67448581  1
  H+  H17  1  0.70618305  0.13267972  0.55682029  1
  H+  H18  1  0.12679285  0.73900827  1.01360419  1
  H+  H19  1  0.72351558  0.87175931  -0.01608673  1
  H+  H20  1  0.16381942  0.87507544  0.98252783  1
  H+  H21  1  0.62509319  1.01314457  0.34097362  1
  H+  H22  1  0.72360092  0.63423756  0.97957484  1
  H+  H23  1  0.13760986  1.04007155  0.50830471  1
  H+  H24  1  0.62998828  0.39715905  0.96916927  1
  H+  H25  1  0.79031107  0.40651235  0.67014359  1
  H+  H26  1  0.15663011  0.64278007  0.66570449  1
  H+  H27  1  0.61172256  0.48765078  0.82399359  1
  H+  H28  1  0.35459536  0.12725568  0.33803507  1
  H+  H29  1  0.88922069  0.62014545  0.65886818  1
  H+  H30  1  0.72978349  0.87172923  0.83837294  1
  H+  H31  1  0.63905614  0.01618415  0.98256716  1
  H+  H32  1  0.86042122  0.52446728  0.20287423  1
  H+  H33  1  0.63420898  0.61156363  0.50888850  1
  H+  H34  1  0.78642257  0.39686322  -0.00972754  1
  H+  H35  1  0.64046842  0.62776454  0.18503402  1
  H+  H36  1  0.13616061  0.25695878  0.32201936  1
  H+  H37  1  0.86420346  0.64432911  0.18970276  1
  H+  H38  1  0.58426104  0.68028247  0.44430444  1
  H+  H39  1  0.74115924  0.37140763  0.19392119  1
  H+  H40  1  0.86743484  -0.01501210  0.82692181  1
  H+  H41  1  0.15463713  0.64647670  0.16305436  1
  H+  H42  1  0.66451197  0.30540251  0.68813534  1
  H+  H43  1  0.24610639  0.13159401  0.99947065  1
  H+  H44  1  0.14710478  0.84548666  0.20107392  1
  H+  H45  1  0.13637606  0.60005954  0.51393115  1
  H+  H46  1  -0.02381218  0.61930359  0.82706250  1
  H+  H47  1  0.86211125  0.97734114  0.50061512  1
  H+  H48  1  0.42144934  0.32948653  -0.06576636  1
  H+  H49  1  0.76882782  0.63628562  0.66462706  1
  H+  H50  1  0.80514670  0.30498957  0.19514802  1
  H+  H51  1  0.11141145  0.70780723  0.50220350  1
  H+  H52  1  0.85136675  0.72047045  0.50544344  1
  H+  H53  1  0.13892057  0.61457383  -0.01085098  1
  H+  H54  1  0.62675226  0.49300909  0.18994405  1
  H+  H55  1  0.12457999  0.50531532  0.83379564  1
  H+  H56  1  0.59623683  0.12614422  0.34740654  1
  H+  H57  1  0.61228218  0.72742530  0.35396627  1
  H+  H58  1  0.85265502  0.88702576  0.98138434  1
  H+  H59  1  0.74578176  0.38295151  0.35119834  1
  H+  H60  1  0.81969857  0.19726655  0.14409371  1
  H+  H61  1  0.53682111  0.26143437  0.94248732  1
  H+  H62  1  0.16180372  0.08994548  0.60167441  1
  H+  H63  1  0.11910254  0.13563920  0.34493213  1
  H+  H64  1  0.38380972  0.74156478  0.14878896  1
  H+  H65  1  0.15062036  0.05158755  0.99068011  1
  H+  H66  1  0.88573261  0.77500414  0.66403737  1
  H+  H67  1  0.62736719  0.30034227  0.91033816  1
  H+  H68  1  0.51939864  0.64535177  0.83135075  1
  H+  H69  1  0.76436638  0.62672548  0.50220779  1
  H+  H70  1  0.14109374  0.51457047  0.52123111  1
  H+  H71  1  0.71609962  0.35698965  0.51648831  1
  H+  H72  1  0.10623551  0.62819809  0.82503761  1
  H+  H73  1  0.48149802  0.10474673  -0.00693997  1
  H+  H74  1  0.39268387  0.05854690  0.59970903  1
  H+  H75  1  0.45200316  0.09748326  0.65800551  1
  H+  H76  1  0.90563811  0.35191682  0.31005431  1
  H+  H77  1  0.44976024  0.08640708  0.32443022  1
  H+  H78  1  0.48094513  0.35531015  0.18401605  1
  H+  H79  1  0.36211876  0.38598835  0.49710204  1
  H+  H80  1  0.35498782  0.23995017  0.49265924  1
  H+  H81  1  0.90499259  0.87297399  0.22559459  1
  H+  H82  1  0.73343689  0.36893356  0.83067539  1
  H+  H83  1  0.11137347  0.23437012  0.48965031  1
  H+  H84  1  0.36329193  0.72076990  0.49363857  1
  H+  H85  1  0.87665073  0.26528037  0.49506002  1
  H+  H86  1  0.39513505  0.87473805  -0.00079934  1
  H+  H87  1  0.39890566  0.61066851  0.16264431  1
  H+  H88  1  0.60431324  0.20590416  -0.00524237  1
  H+  H89  1  0.02412325  0.88842094  0.67623885  1
  H+  H90  1  0.27416498  0.63109761  0.49868713  1
  H+  H91  1  0.10965929  0.47587246  0.00325096  1
  H+  H92  1  0.13130099  0.34897860  0.32409969  1
  H+  H93  1  0.38063040  0.48457985  0.68459492  1
  H+  H94  1  0.89630781  0.03408128  0.98739714  1
  H+  H95  1  0.47580229  0.87114562  0.84829878  1
  H+  H96  1  0.64679242  0.54165964  0.97576079  1
  H+  H97  1  0.05477138  0.46837260  0.44757375  1
  H+  H98  1  0.29079679  0.65626814  0.67965793  1
  H+  H99  1  0.66704681  0.45965725  -0.08433278  1
  H+  H100  1  0.33733537  0.91350142  0.07064266  1
  H+  H101  1  0.91274451  0.58963480  0.88322452  1
  H+  H102  1  0.14071392  0.37089602  0.84306954  1
  H+  H103  1  0.18231620  0.09642581  0.89779597  1
  H+  H104  1  0.09502572  0.19196989  0.10102417  1
  H+  H105  1  0.60989858  0.23597388  0.80828704  1
  H+  H106  1  0.13389765  0.02662507  0.65965683  1
  H+  H107  1  0.61780057  0.34854769  0.19323879  1
  H+  H108  1  0.92036202  0.58716897  0.56906971  1
  H+  H109  1  0.84213406  0.84974065  0.13632612  1
  H+  H110  1  0.47797621  0.36054227  0.65925815  1
  H+  H111  1  0.61287070  0.73895950  1.00962070  1
  H+  H112  1  0.87598684  0.15264184  0.82988855  1
  H+  H113  1  0.03369244  0.88618821  0.18576430  1
  H+  H114  1  0.14758169  0.28445243  0.84157357  1
  H+  H115  1  0.86171072  0.63750353  0.35940304  1
  H+  H116  1  0.28490536  0.39737080  0.83535200  1
  H+  H117  1  0.77234997  0.12504406  0.67999633  1
  H+  H118  1  0.62065337  -0.04879629  0.50506532  1
  H+  H119  1  0.99127007  0.11354697  0.32793179  1
  H+  H120  1  0.41668610  0.58131248  0.60528768  1
  H+  H121  1  0.59089867  0.21236147  0.34958931  1
  H+  H122  1  0.38798061  0.27246059  0.65813636  1
  H+  H123  1  0.77442575  0.12915080  0.48481011  1
  H+  H124  1  0.38859279  0.86543562  0.16998651  1
  H+  H125  1  0.65773877  0.83134050  0.28177119  1
  H+  H126  1  0.86656377  0.38592509  -0.02956086  1
  H+  H127  1  0.92896033  0.09027411  0.89597499  1
  H+  H128  1  0.36602402  0.13670618  1.01415191  1
  H+  H129  1  0.04501790  0.88223341  0.35116603  1
  H+  H130  1  0.12158644  0.97806063  0.83057211  1
  H+  H131  1  0.97195764  0.41614350  0.18220568  1
  H+  H132  1  0.27565269  0.88527637  0.82843927  1
  H+  H133  1  0.61518132  -0.01483583  0.16287555  1
  H+  H134  1  1.08788207  0.40626391  0.67172920  1
  H+  H135  1  0.89228224  0.52980741  0.34513901  1
  H+  H136  1  0.14434467  0.37064376  0.49975456  1
  H+  H137  1  0.60174432  0.39465965  0.49600295  1
  H+  H138  1  0.34518068  0.67300727  0.74113038  1
  H+  H139  1  0.14889767  0.57375740  0.92616623  1
  H+  H140  1  0.81606113  0.41003207  0.14439460  1
  H+  H141  1  0.60818968  0.63630800  0.35584554  1
  H+  H142  1  0.46663749  0.10438388  0.17110503  1
  H+  H143  1  1.00107910  0.38025265  0.48148172  1
  H+  H144  1  0.15537005  0.63310598  0.32324139  1
  H+  H145  1  0.72224360  0.86061751  0.33810863  1
  H+  H146  1  0.91231474  0.17364049  0.17213036  1
  H+  H147  1  0.38197716  0.00087968  0.50552656  1
  H+  H148  1  0.57241862  0.15806115  0.44052095  1
  H+  H149  1  0.26657184  0.41700115  1.01771379  1
  H+  H150  1  0.60790624  0.64811600  0.00994342  1
  H+  H151  1  0.13483383  0.84547391  0.51202017  1
  H+  H152  1  0.21244430  0.59983646  0.83632726  1
  H+  H153  1  0.37385216  0.66320002  0.04383143  1
  H+  H154  1  0.60199863  0.88024502  0.35106166  1
  H+  H155  1  0.95758247  0.86315913  0.98443179  1
  H+  H156  1  0.23025965  0.36548264  0.50387834  1
  H+  H157  1  0.63385685  0.81283746  0.49154814  1
  H+  H158  1  0.36103693  0.63706018  0.83744276  1
  H+  H159  1  0.02559796  0.64514326  0.67546933  1
  H+  H160  1  0.90557784  0.02429402  0.14841312  1
  H+  H161  1  0.72333576  0.61590731  0.34567807  1
  H+  H162  1  0.63112219  0.62408426  0.83108505  1
  H+  H163  1  0.36988314  0.85279766  0.32424658  1
  H+  H164  1  0.76808751  0.64358297  0.82080437  1
  H+  H165  1  0.36615422  0.62490071  0.34023236  1
  H+  H166  1  0.64220748  0.87540329  0.84084849  1
  H+  H167  1  0.39152709  0.27568734  0.99494087  1
  H+  H168  1  0.89098755  0.78623206  0.19146466  1
  H+  H169  1  0.52945303  0.64303455  0.16476468  1
  H+  H170  1  0.46812390  0.09080907  0.51254524  1
  H+  H171  1  0.39473352  0.61777626  0.66635841  1
  H+  H172  1  0.87220121  0.35355810  0.50189589  1
  H+  H173  1  0.06752565  0.41177816  0.15519413  1
  H+  H174  1  0.88701750  0.77872909  0.82517206  1
  H+  H175  1  0.73119989  0.63170499  0.19228175  1
  H+  H176  1  0.13656027  0.76772913  0.83852759  1
  H+  H177  1  0.28373599  0.88160084  1.00726767  1
  H+  H178  1  0.61164571  0.89482129  0.16541527  1
  H+  H179  1  0.03643521  0.14922691  0.00460371  1
  H+  H180  1  0.38129709  0.38515781  0.16598518  1
  H+  H181  1  0.28031993  0.38190492  0.34163542  1
  H+  H182  1  0.47121158  0.63441400  0.00695868  1
  H+  H183  1  0.35472533  0.96886265  0.67564718  1
  H+  H184  1  0.37571577  0.55348848  1.01011103  1
  H+  H185  1  0.02126226  0.62206970  0.49727203  1
  H+  H186  1  0.89898714  0.28567616  0.83783357  1
  H+  H187  1  0.88570380  0.25484186  0.32393804  1
  H+  H188  1  0.38939350  0.02587959  0.83807889  1
  H+  H189  1  1.02662121  0.35942258  0.32612908  1
  H+  H190  1  0.39411298  0.36826968  0.84066389  1
  H+  H191  1  0.90116167  0.51859370  0.97026998  1
  H+  H192  1  0.60535568  0.46982648  0.35113952  1
  H+  H193  1  0.63025025  0.76584648  0.66611967  1
  H+  H194  1  -0.01406583  0.11780613  0.83605690  1
  H+  H195  1  0.60869861  0.73424093  0.82532191  1
  H+  H196  1  0.62252995  0.51383184  0.50298905  1
  H+  H197  1  0.56086214  0.21526713  0.65522163  1
  H+  H198  1  0.89633988  1.00864026  0.18075018  1
  H+  H199  1  0.99442201  0.37421351  0.83988246  1
  H+  H200  1  0.61731480  0.35773319  0.34558721  1
  H+  H201  1  0.85660354  0.64068296  0.81707982  1
  H+  H202  1  0.36658338  0.38022653  0.34440085  1
  H+  H203  1  0.85711886  0.47615254  0.50592839  1
  H+  H204  1  0.25889977  0.63214551  0.15950703  1
  H+  H205  1  0.63359133  0.61293195  0.65648859  1
  H+  H206  1  0.60395822  0.12951807  0.16295081  1
  H+  H207  1  0.19427750  0.97021505  0.48104452  1
  H+  H208  1  0.38423018  0.60513357  0.51410462  1
  H+  H209  1  0.14450867  0.02834248  0.33653617  1
  H+  H210  1  0.88500708  0.61170424  0.51032510  1
  H+  H211  1  0.40191357  0.52391058  0.17476833  1
  H+  H212  1  0.52225992  0.14709570  0.81388765  1
  H+  H213  1  0.29668439  0.39148840  0.17081923  1
  H+  H214  1  0.07997197  0.92313388  0.04194933  1
  H+  H215  1  0.51640478  0.87900577  0.68568237  1
  H+  H216  1  0.87945131  0.76641027  0.98144888  1
  H+  H217  1  0.04109438  0.18838773  0.16078672  1
  H+  H218  1  0.26868582  0.13873492  0.67126699  1
  H+  H219  1  0.97612651  0.36299456  0.98767925  1
  H+  H220  1  0.13015572  0.15778689  0.00584210  1
  H+  H221  1  0.61738212  0.12417152  -0.00449335  1
  H+  H222  1  0.52159441  0.63704377  0.67105061  1
  H+  H223  1  0.86327583  0.22766963  0.98368844  1
  H+  H224  1  0.12112962  0.14194581  0.82655949  1
  H+  H225  1  0.89690059  0.53442959  0.66108088  1
  H+  H226  1  0.56149338  0.17065646  0.71878588  1
  H+  H227  1  0.23400763  0.11641387  0.83557850  1
  H+  H228  1  0.11636862  0.39004550  0.00314798  1
  H+  H229  1  0.36522621  0.22229377  0.33929432  1
  H+  H230  1  0.74971906  0.78839888  0.11068385  1
  H+  H231  1  0.49043856  0.87558238  0.99490498  1
  H+  H232  1  0.14538735  0.28653654  0.99289091  1
  H+  H233  1  0.86582786  0.13249332  0.49133942  1
  H+  H234  1  0.63359531  0.00691489  0.67856834  1
  H+  H235  1  -0.04281825  0.37363411  0.16649135  1
  H+  H236  1  0.77565676  0.09871642  0.13151775  1
  H+  H237  1  0.36085229  0.88213430  0.67712997  1
  H+  H238  1  0.07567335  0.39256316  0.77845261  1
  H+  H239  1  0.87739413  0.63403644  -0.02040098  1
  H+  H240  1  0.26326838  0.86098773  0.49326899  1
  H+  H241  1  0.86504973  0.89439369  0.82354667  1
  H+  H242  1  0.88720736  0.86493546  0.66632471  1
  H+  H243  1  0.82286521  0.36834553  0.36596609  1
  H+  H244  1  0.39429179  0.26073403  0.17269327  1
  H+  H245  1  0.85614639  0.21665439  0.67238561  1
  H+  H246  1  0.47605942  0.35653156  0.33343768  1
  H+  H247  1  0.86649732  0.88017637  0.34898339  1
  H+  H248  1  0.39060411  0.02112528  0.99354349  1
  H+  H249  1  0.16674674  0.37921025  0.17684894  1
  H+  H250  1  0.98372065  0.61882039  0.34309726  1
  H+  H251  1  0.71422185  0.14679103  0.20367789  1
  H+  H252  1  0.88302411  0.02337165  0.65959151  1
  H+  H253  1  0.15415592  0.28288334  0.17200140  1
  H+  H254  1  0.19418502  0.82862953  0.25821744  1
  H+  H255  1  0.83539121  0.15691119  0.39712697  1
  H+  H256  1  0.38855357  0.85256430  0.50452631  1
  H+  H257  1  0.63932389  0.11846779  0.50565970  1
  H+  H258  1  0.60178393  0.43619446  0.13109473  1
  H+  H259  1  0.86749642  0.85038047  0.51387378  1
  H+  H260  1  0.42128066  0.34111495  0.56276699  1
  H+  H261  1  0.10935172  0.27710128  0.66208809  1
  H+  H262  1  0.87396128  0.39104290  0.82371055  1
  H+  H263  1  0.14035091  0.89259181  0.34593054  1
  H+  H264  1  0.62544855  0.77584330  0.18264198  1
  H+  H265  1  0.65853410  0.83065791  0.61035515  1
  H+  H266  1  0.39296848  0.27818991  0.83294021  1
  H+  H267  1  0.36660911  0.14009508  0.82283772  1
  H+  H268  1  0.64272772  0.37909714  0.67063022  1
  H+  H269  1  0.28089505  0.88630103  0.16736652  1
  H+  H270  1  0.65914750  0.57880658  0.59613196  1
  H+  H271  1  0.23199364  0.11921530  0.33742516  1
  H+  H272  1  0.71243015  0.86243608  0.18396988  1
  H+  H273  1  0.14906207  0.74004381  0.18029477  1
  H+  H274  1  0.41559974  0.83478450  0.26991736  1
  H+  H275  1  0.17115708  0.54103632  0.16204864  1
  H+  H276  1  0.61339728  0.48209602  0.67025687  1
  H+  H277  1  0.64656924  0.37612684  0.82695109  1
  H+  H278  1  0.88801423  0.35645730  0.65443453  1
  H+  H279  1  0.11364713  0.73541084  0.67815517  1
  H+  H280  1  0.85974561  0.12541661  0.33592613  1
  H+  H281  1  0.97720742  0.12021338  0.50800164  1
  H+  H282  1  0.60359682  0.87453442  0.68933137  1
  H+  H283  1  0.16710477  0.02355450  0.19702936  1
  H+  H284  1  0.84743172  0.68454850  0.12913178  1
  H+  H285  1  0.39271401  0.77473327  0.66857176  1
  H+  H286  1  0.35678785  0.72318792  0.83753224  1
  H+  H287  1  0.81666623  0.61854129  0.03377972  1
  H+  H288  1  0.58165581  0.90238511  0.44338921  1
  H+  H289  1  0.58990440  0.68035442  0.10622622  1
  H+  H290  1  0.22309647  0.13271083  0.50668233  1
  H+  H291  1  0.36314616  0.98146463  0.16028603  1
  H+  H292  1  0.08543639  0.17186117  0.40075850  1
  H+  H293  1  0.17741831  0.82924361  0.92605001  1
  H+  H294  1  0.30862391  0.88931647  0.42888225  1
  H+  H295  1  0.11501143  0.68737236  0.11055691  1
  H+  H296  1  0.42011362  0.08496312  0.89709505  1
  H+  H297  1  0.08367747  0.66913915  0.76737173  1
  H+  H298  1  0.99279130  0.58741863  0.94487978  1
  H+  H299  1  0.11636611  0.92860322  0.43659365  1
  H+  H300  1  0.31543975  0.94784156  0.32809586  1
  H+  H301  1  0.66624550  0.59310071  0.28567633  1
  H+  H302  1  0.08787343  0.17105100  0.76846390  1
  H+  H303  1  0.41563861  0.59607869  0.91052024  1
  H+  H304  1  0.84196013  0.17742031  0.77229110  1
  H+  H305  1  0.47724565  0.85123486  0.51088200  1
  H+  H306  1  0.08826620  0.92095777  0.73338061  1
  H+  H307  1  0.66116212  0.59982211  0.89183740  1
  H+  H308  1  0.11037223  0.91616906  0.13951909  1
  H+  H309  1  0.16333109  0.81953278  0.57304552  1
  H+  H310  1  0.18620348  0.09623148  0.24231323  1
  H+  H311  1  0.03831618  0.65224101  0.02414769  1
  H+  H312  1  0.35135689  0.12802550  0.66851541  1
  H+  H313  1  0.34314631  0.16806571  0.07851923  1
  H+  H314  1  0.57465276  0.41663056  0.41640056  1
  H+  H315  1  0.18636792  0.60539682  0.61064664  1
  H+  H316  1  0.37657464  0.39415041  0.68385208  1
  H+  H317  1  0.14151721  0.33288352  0.60278903  1
  H+  H318  1  0.33082194  0.44019929  0.07483851  1
  H+  H319  1  0.29566380  0.14586604  0.16212450  1
  H+  H320  1  0.81572885  0.42054947  0.44645564  1
  H+  H321  1  0.52785044  0.36496362  0.06751395  1
  H+  H322  1  0.52632989  0.39308719  0.82581569  1
  H+  H323  1  0.58533871  0.42644094  0.73231497  1
  H+  H324  1  0.19326061  0.61050865  0.26366533  1
  H+  H325  1  0.91774973  0.09009591  0.56848433  1
  H+  H326  1  0.82839768  0.66489934  0.41887503  1
  H+  H327  1  0.32247317  0.63601495  0.40951292  1
  H+  H328  1  0.33583346  0.91368716  0.76959403  1
  H+  H329  1  0.82460819  0.66580978  0.72578639  1
  H+  H330  1  0.41938990  0.32468122  0.27128650  1
  H+  H331  1  0.58618577  0.92037073  0.06544391  1
  H+  H332  1  0.03465610  0.97667913  0.05258706  1
  H+  H333  1  0.32330583  0.17371567  0.43690344  1
  H+  H334  1  0.07848479  0.39274406  0.38873984  1
  H+  H335  1  0.64085764  0.05120884  0.61663517  1
  H+  H336  1  0.58442414  0.15928509  0.09902162  1
  H+  H337  1  0.11482904  0.43105093  0.09224342  1
  H+  H338  1  0.22677427  0.86382169  0.66531798  1
  H+  H339  1  0.33517669  0.16768279  0.76258071  1
  H+  H340  1  0.88384597  0.11299686  0.66331877  1
  H+  H341  1  0.91363243  0.83233368  0.88630154  1
  H+  H342  1  0.39878051  0.06836087  0.26139253  1
  H+  H343  1  0.57684493  0.91736082  0.77862895  1
  H+  H344  1  0.10981409  0.14452962  0.49271655  1
  H+  H345  1  0.43170684  0.61596161  0.26512604  1
  H+  H346  1  0.64986215  0.07580877  0.24751967  1
  H+  H347  1  0.35059789  0.43047336  0.77889720  1
  H+  H348  1  0.71518667  0.10142717  0.33591738  1
  H+  H349  1  0.93581463  0.05491882  0.27231000  1
  H+  H350  1  0.93460048  0.81256464  0.29117082  1
  H+  H351  1  0.26210588  0.61253921  0.34355589  1
  H+  H352  1  0.09544559  0.66818943  0.40498351  1
  H+  H353  1  0.58003659  0.66670483  0.73132643  1
  H+  H354  1  0.37924239  0.51469631  0.51478410  1
  H+  H355  1  0.38318456  0.11952325  0.16696285  1
  H+  H356  1  0.90515989  0.82532672  0.57041126  1
  H+  H357  1  0.94296613  0.16556021  0.23803135  1
  H+  H358  1  0.51354439  0.88272509  0.34968811  1
  H+  H359  1  0.65865550  0.83503728  0.92870976  1
  H+  H360  1  0.52659026  0.40620518  0.06724658  1
  H+  H361  1  0.83149155  0.92133522  0.73394546  1
  H+  H362  1  0.90240962  0.31749415  0.59389735  1
  H+  H363  1  0.82665651  0.91374044  0.44498363  1
  H+  H364  1  0.90349122  0.46642603  0.07937349  1
  H+  H365  1  0.85120434  0.26544093  0.23319600  1
  H+  H366  1  0.63355401  0.02359145  0.87833225  1
  H+  H367  1  0.17231221  0.32679234  0.25647764  1
  H+  H368  1  0.65744260  0.32634784  0.57444140  1
  H+  H369  1  0.38474576  0.86867737  0.84635253  1
  H+  H370  1  0.90826470  0.59102854  0.25587395  1
  H+  H371  1  0.72541699  0.10348860  -0.03260734  1
  H+  H372  1  0.13840157  0.85911846  0.84025505  1
  H+  H373  1  0.82944996  0.16481798  0.04072065  1
  H+  H374  1  0.17559288  0.34517496  0.93239759  1
  H+  H375  1  0.88824887  0.41893639  0.07904003  1
  H+  H376  1  0.48193339  0.37651196  0.50211756  1
  H+  H377  1  0.92734863  0.33947747  0.92137818  1
  H+  H378  1  0.64234152  0.31943058  0.28677588  1
  H+  H379  1  0.82261743  0.90341725  0.04446755  1
  H+  H380  1  1.03037764  0.89031301  0.82614843  1
  H+  H381  1  0.84863414  0.42600813  0.72848619  1
  H+  H382  1  0.42364755  0.84739561  0.93053462  1
  H+  H383  1  0.41887528  0.83082000  0.60732773  1
  O2-  O384  1  0.09709390  0.19694839  0.14615368  1
  O2-  O385  1  0.07927491  0.17349022  0.47422576  1
  O2-  O386  1  0.09052254  0.17271218  0.81416463  1
  O2-  O387  1  0.12570984  0.43804623  0.13848245  1
  O2-  O388  1  0.05976710  0.41993025  0.46232149  1
  O2-  O389  1  0.08432528  0.40959605  0.82120018  1
  O2-  O390  1  0.12117552  0.68064977  0.15565159  1
  O2-  O391  1  0.08284798  0.64841168  0.48443506  1
  O2-  O392  1  0.08059692  0.66513945  0.81342527  1
  O2-  O393  1  0.09471573  0.90116436  0.18186826  1
  O2-  O394  1  0.13170061  0.93794192  0.48107949  1
  O2-  O395  1  0.09245768  0.91742374  0.81514451  1
  O2-  O396  1  0.35477072  0.17358002  0.14554034  1
  O2-  O397  1  0.31481908  0.17895441  0.48074115  1
  O2-  O398  1  0.33606325  0.17024747  0.80823152  1
  O2-  O399  1  0.35580319  0.42186081  0.15414364  1
  O2-  O400  1  0.32766984  0.41304135  0.48223934  1
  O2-  O401  1  0.34753467  0.42884648  0.82508440  1
  O2-  O402  1  0.35807279  0.68111038  0.13096430  1
  O2-  O403  1  0.33179788  0.65987868  0.47882754  1
  O2-  O404  1  0.32940679  0.66494500  0.82001388  1
  O2-  O405  1  0.33672647  0.91879209  0.14579216  1
  O2-  O406  1  0.32050305  0.89096186  0.47294383  1
  O2-  O407  1  0.33695128  0.91602227  0.81553790  1
  O2-  O408  1  0.57848313  0.16181333  0.14384829  1
  O2-  O409  1  0.57949341  0.15790730  0.48562123  1
  O2-  O410  1  0.57603246  0.17816962  0.79016094  1
  O2-  O411  1  0.60157316  0.43223733  0.17531214  1
  O2-  O412  1  0.57499611  0.42596492  0.47889373  1
  O2-  O413  1  0.58816311  0.42666069  0.81123730  1
  O2-  O414  1  0.59172195  0.67969804  0.15200553  1
  O2-  O415  1  0.59250545  0.68994421  0.48971115  1
  O2-  O416  1  0.57729109  0.67331630  0.81137652  1
  O2-  O417  1  0.58646301  0.92683798  0.14495408  1
  O2-  O418  1  0.58597939  0.89349580  0.48807653  1
  O2-  O419  1  0.57919864  0.92118401  0.82540175  1
  O2-  O420  1  0.82660130  0.15296953  0.12089245  1
  O2-  O421  1  0.83506454  0.15988095  0.47005740  1
  O2-  O422  1  0.84815953  0.18556997  0.81709896  1
  O2-  O423  1  0.80603921  0.40280974  0.18819899  1
  O2-  O424  1  0.82321741  0.41516094  0.49058267  1
  O2-  O425  1  0.83898274  0.41621914  0.80646734  1
  O2-  O426  1  0.84216658  0.68500064  0.17321337  1
  O2-  O427  1  0.82632811  0.65890625  0.48930502  1
  O2-  O428  1  0.82780482  0.67325770  0.80401345  1
  O2-  O429  1  0.79166437  0.84879994  0.11755968  1
  O2-  O430  1  0.82685513  0.91591780  0.48960993  1
  O2-  O431  1  0.83226085  0.92360120  0.81236753  1
  O2-  O432  1  0.18971188  0.08551115  0.19857942  1
  O2-  O433  1  0.16111750  0.09940310  0.52338941  1
  O2-  O434  1  0.17442952  0.08523500  0.85320041  1
  O2-  O435  1  0.18759638  0.34211576  0.19509306  1
  O2-  O436  1  0.16685520  0.33552025  0.51615219  1
  O2-  O437  1  0.17737756  0.34419631  0.85728634  1
  O2-  O438  1  0.19938018  0.60191919  0.17749679  1
  O2-  O439  1  0.17226690  0.57617229  0.53027029  1
  O2-  O440  1  0.15070204  0.56984279  0.84719621  1
  O2-  O441  1  0.18466623  0.82102067  0.20991272  1
  O2-  O442  1  0.15993858  0.81103239  0.52766159  1
  O2-  O443  1  0.16857302  0.82818752  0.85507749  1
  O2-  O444  1  0.40616719  0.07690365  0.18460534  1
  O2-  O445  1  0.40795658  0.05677434  0.52653348  1
  O2-  O446  1  0.41839194  0.08680120  0.85182457  1
  O2-  O447  1  0.41929045  0.32234609  0.19312100  1
  O2-  O448  1  0.41888193  0.34277687  0.51769017  1
  O2-  O449  1  0.42691044  0.33771025  0.84927926  1
  O2-  O450  1  0.42928272  0.58697663  0.18578065  1
  O2-  O451  1  0.40891172  0.57294064  0.53346578  1
  O2-  O452  1  0.41895654  0.59273739  0.86548529  1
  O2-  O453  1  0.41837981  0.83358638  0.18328832  1
  O2-  O454  1  0.41611477  0.82269482  0.52428927  1
  O2-  O455  1  0.41590648  0.84029875  0.86519506  1
  O2-  O456  1  0.66120328  0.08947321  0.20295038  1
  O2-  O457  1  0.67751149  0.09595341  0.52186154  1
  O2-  O458  1  0.62006928  0.01452937  0.83394757  1
  O2-  O459  1  0.64122853  0.31143453  0.20655880  1
  O2-  O460  1  0.65516193  0.32227536  0.52966466  1
  O2-  O461  1  0.67119738  0.34073182  0.84232943  1
  O2-  O462  1  0.67007058  0.59937336  0.20487446  1
  O2-  O463  1  0.65924050  0.57637923  0.52217414  1
  O2-  O464  1  0.66291834  0.59500304  0.84684052  1
  O2-  O465  1  0.65370200  0.83614520  0.19977382  1
  O2-  O466  1  0.66351889  0.77891404  0.49324515  1
  O2-  O467  1  0.66846613  0.84020223  0.85288338  1
  O2-  O468  1  0.96219593  0.19784981  0.20005051  1
  O2-  O469  1  0.91657803  0.08974245  0.52268654  1
  O2-  O470  1  0.92485941  0.08634210  0.85081143  1
  O2-  O471  1  0.80636732  0.25067697  0.20178263  1
  O2-  O472  1  0.90758985  0.32588419  0.51002659  1
  O2-  O473  1  0.92896865  0.34723974  0.85298029  1
  O2-  O474  1  0.89496595  0.58659820  0.21131051  1
  O2-  O475  1  0.91638217  0.58118586  0.52344714  1
  O2-  O476  1  0.91309788  0.59004484  0.83854460  1
  O2-  O477  1  0.92290836  0.85140477  0.19114707  1
  O2-  O478  1  0.89544299  0.81670137  0.52603633  1
  O2-  O479  1  0.91995169  0.83881904  0.84149962  1
  O2-  O480  1  0.16920629  0.08936878  0.32420348  1
  O2-  O481  1  0.16336520  0.08817648  0.64709985  1
  O2-  O482  1  0.18815849  0.11089876  0.97763834  1
  O2-  O483  1  0.16554358  0.31910785  0.30592499  1
  O2-  O484  1  0.12304598  0.33319273  0.64475529  1
  O2-  O485  1  0.17245169  0.34687254  0.97822256  1
  O2-  O486  1  0.18835345  0.60593784  0.30824808  1
  O2-  O487  1  0.20552134  0.63905171  0.64846190  1
  O2-  O488  1  0.14953564  0.57079741  0.97155506  1
  O2-  O489  1  0.19679246  0.84424480  0.32367733  1
  O2-  O490  1  0.16683146  0.83538757  0.64853719  1
  O2-  O491  1  0.18179661  0.83365047  0.97273347  1
  O2-  O492  1  0.39124127  0.06004021  0.30688724  1
  O2-  O493  1  0.38967136  0.06269642  0.64545763  1
  O2-  O494  1  0.42154651  0.08057974  0.97752647  1
  O2-  O495  1  0.41602515  0.32403563  0.31681620  1
  O2-  O496  1  0.41823487  0.33317685  0.64368925  1
  O2-  O497  1  0.43023518  0.33342525  0.97849332  1
  O2-  O498  1  0.43862159  0.64418189  0.30508202  1
  O2-  O499  1  0.42475338  0.58738537  0.65124986  1
  O2-  O500  1  0.41158359  0.61434962  0.99350626  1
  O2-  O501  1  0.41459961  0.83823958  0.31466914  1
  O2-  O502  1  0.42015046  0.83560283  0.65241043  1
  O2-  O503  1  0.42838900  0.84854515  0.97866046  1
  O2-  O504  1  0.65383735  0.07326664  0.32409547  1
  O2-  O505  1  0.66617711  0.06283605  0.65703391  1
  O2-  O506  1  0.66283633  0.06933158  0.95758682  1
  O2-  O507  1  0.64771554  0.32455711  0.33169655  1
  O2-  O508  1  0.67624273  0.34948566  0.65778954  1
  O2-  O509  1  0.59774555  0.28442124  0.95107430  1
  O2-  O510  1  0.66296618  0.58730813  0.33057031  1
  O2-  O511  1  0.66305263  0.58149021  0.64226931  1
  O2-  O512  1  0.66154091  0.60313969  0.97205907  1
  O2-  O513  1  0.66032106  0.83144643  0.32683873  1
  O2-  O514  1  0.65950681  0.82950797  0.65466961  1
  O2-  O515  1  0.66075065  0.83757962  0.97450211  1
  O2-  O516  1  0.93092903  0.08182518  0.30947611  1
  O2-  O517  1  0.91475775  0.08398186  0.64510719  1
  O2-  O518  1  0.93238969  0.09498195  0.97510151  1
  O2-  O519  1  0.92092418  0.30890844  0.29888247  1
  O2-  O520  1  0.88691208  0.30549303  0.63703937  1
  O2-  O521  1  0.91836765  0.33364336  0.96829353  1
  O2-  O522  1  0.92148859  0.59026674  0.33166972  1
  O2-  O523  1  0.92501731  0.59505109  0.64501991  1
  O2-  O524  1  0.94367794  0.58418929  0.96640653  1
  O2-  O525  1  0.92866064  0.82525649  0.33332685  1
  O2-  O526  1  0.92020224  0.83694650  0.65246695  1
  O2-  O527  1  0.90103071  0.82513902  0.96552713  1
  O2-  O528  1  0.09532757  0.18246874  0.02222270  1
  O2-  O529  1  0.08680230  0.16779962  0.35449780  1
  O2-  O530  1  0.07702456  0.16659046  0.69232957  1
  O2-  O531  1  0.08458136  0.41716905  0.02245734  1
  O2-  O532  1  0.08506509  0.38736122  0.34427291  1
  O2-  O533  1  0.06634999  0.44444307  0.68575934  1
  O2-  O534  1  0.09911316  0.68367465  0.03652946  1
  O2-  O535  1  0.09480231  0.67484680  0.35992773  1
  O2-  O536  1  0.08446546  0.67501464  0.69392067  1
  O2-  O537  1  0.05000091  0.94827619  0.02118536  1
  O2-  O538  1  0.10651721  0.92024895  0.36084771  1
  O2-  O539  1  0.08648717  0.92081658  0.68813016  1
  O2-  O540  1  0.33467864  0.16412488  0.03069847  1
  O2-  O541  1  0.33044872  0.16193284  0.35539978  1
  O2-  O542  1  0.32979840  0.16576979  0.68513434  1
  O2-  O543  1  0.31469302  0.46425577  0.04045894  1
  O2-  O544  1  0.33757611  0.41143008  0.35988470  1
  O2-  O545  1  0.35578411  0.42835903  0.70568604  1
  O2-  O546  1  0.35060746  0.69662597  0.06613183  1
  O2-  O547  1  0.31024764  0.60871831  0.36715390  1
  O2-  O548  1  0.35096541  0.67711747  0.69599591  1
  O2-  O549  1  0.34254984  0.91329163  0.02474319  1
  O2-  O550  1  0.28843459  0.88802039  0.34478729  1
  O2-  O551  1  0.32821794  0.90908501  0.69393646  1
  O2-  O552  1  0.58849952  0.15186633  0.01706905  1
  O2-  O553  1  0.56051843  0.15065798  0.36174238  1
  O2-  O554  1  0.55275729  0.16225429  0.67301304  1
  O2-  O555  1  0.66350153  0.45931390  -0.04007104  1
  O2-  O556  1  0.57519494  0.41015092  0.36649342  1
  O2-  O557  1  0.58634970  0.42183894  0.68707209  1
  O2-  O558  1  0.58422123  0.68146190  0.02997659  1
  O2-  O559  1  0.57753553  0.66727339  0.36922452  1
  O2-  O560  1  0.58389130  0.66794481  0.68615222  1
  O2-  O561  1  0.58257003  0.91718779  0.02008547  1
  O2-  O562  1  0.57318126  0.91136725  0.36716739  1
  O2-  O563  1  0.57380533  0.90397710  0.70670339  1
  O2-  O564  1  0.83229337  0.16514836  -0.00430538  1
  O2-  O565  1  0.83217786  0.15747122  0.35092091  1
  O2-  O566  1  0.83365370  0.15886736  0.69238639  1
  O2-  O567  1  0.83845365  0.42260214  -0.03408609  1
  O2-  O568  1  0.80882443  0.41397420  0.36507155  1
  O2-  O569  1  0.85108546  0.43348805  0.68326044  1
  O2-  O570  1  0.84119165  0.65511623  -0.00180235  1
  O2-  O571  1  0.83141863  0.66850994  0.37209169  1
  O2-  O572  1  0.82924123  0.66657373  0.68055173  1
  O2-  O573  1  0.83000845  0.92142009  0.00125708  1
  O2-  O574  1  0.83243832  0.90846904  0.35796734  1
  O2-  O575  1  0.83189007  0.91763293  0.68854423  1
