# generated using pymatgen
data_H2O
_symmetry_space_group_name_H-M   'P 1'
_cell_length_a   17.95694594
_cell_length_b   17.94721970
_cell_length_c   21.97263035
_cell_angle_alpha   89.95870399
_cell_angle_beta   89.97295676
_cell_angle_gamma   119.98401954
_symmetry_Int_Tables_number   1
_chemical_formula_structural   H2O
_chemical_formula_sum   'H384 O192'
_cell_volume   6133.55034125
_cell_formula_units_Z   192
loop_
 _symmetry_equiv_pos_site_id
 _symmetry_equiv_pos_as_xyz
  1  'x, y, z'
loop_
 _atom_type_symbol
 _atom_type_oxidation_number
  H+  1.0
  O2-  -2.0
loop_
 _atom_site_type_symbol
 _atom_site_label
 _atom_site_symmetry_multiplicity
 _atom_site_fract_x
 _atom_site_fract_y
 _atom_site_fract_z
 _atom_site_occupancy
  H+  H0  1  0.77842127  0.65370198  0.50232536  1
  H+  H1  1  0.48305119  0.86388477  0.17907077  1
  H+  H2  1  0.60362791  0.61343828  0.48596243  1
  H+  H3  1  0.63514100  0.36455981  0.35464601  1
  H+  H4  1  0.38967284  0.51900806  0.16585222  1
  H+  H5  1  0.68046007  0.10376618  0.92548974  1
  H+  H6  1  0.53233869  0.99260044  0.05147259  1
  H+  H7  1  0.38846134  0.03549472  0.99590138  1
  H+  H8  1  0.63731493  0.78919479  0.65472791  1
  H+  H9  1  0.36932613  0.23016948  0.15869997  1
  H+  H10  1  0.78131154  0.15402841  0.00252442  1
  H+  H11  1  0.52834914  0.14626239  0.00475986  1
  H+  H12  1  0.11107680  0.38996565  0.34171587  1
  H+  H13  1  0.77698072  0.64416990  0.16534531  1
  H+  H14  1  0.36610529  0.88732976  0.49392522  1
  H+  H15  1  0.89250958  0.78141044  0.50347886  1
  H+  H16  1  0.03481392  0.15934199  0.33837118  1
  H+  H17  1  0.27614857  0.39107217  0.69802154  1
  H+  H18  1  0.88195405  0.23534228  0.71940583  1
  H+  H19  1  0.14715182  0.36848434  0.17833877  1
  H+  H20  1  0.37705220  0.27392047  0.66196359  1
  H+  H21  1  0.13522771  0.61245526  0.00385479  1
  H+  H22  1  0.46169012  0.11668559  0.66023494  1
  H+  H23  1  -0.01893473  0.62451948  0.17823322  1
  H+  H24  1  0.54029124  0.62903428  0.85208399  1
  H+  H25  1  0.89384371  0.87081128  0.50141514  1
  H+  H26  1  -0.02597822  0.02956199  0.79617364  1
  H+  H27  1  0.89357320  0.61693387  0.85260195  1
  H+  H28  1  0.58071390  0.92366947  0.10754816  1
  H+  H29  1  0.38794041  0.76953100  0.50677759  1
  H+  H30  1  0.77760385  0.12562576  0.48646807  1
  H+  H31  1  0.13678745  0.01871730  0.49793846  1
  H+  H32  1  0.10553046  0.38172102  0.49591388  1
  H+  H33  1  0.97569798  0.37468358  0.52605669  1
  H+  H34  1  0.12026903  0.98550458  0.16686057  1
  H+  H35  1  0.86595005  0.97548210  0.48473561  1
  H+  H36  1  0.03156122  0.39177231  0.17121811  1
  H+  H37  1  0.24719511  0.15375053  0.31355621  1
  H+  H38  1  0.66057981  1.05112145  0.83350543  1
  H+  H39  1  0.13307106  -0.01677107  0.31208366  1
  H+  H40  1  0.88127122  0.76916909  0.65062880  1
  H+  H41  1  0.48312992  0.36488247  0.17415328  1
  H+  H42  1  0.93969524  0.59517432  0.64598213  1
  H+  H43  1  0.73207006  0.11402102  0.17414073  1
  H+  H44  1  0.12479498  0.40501865  0.84256784  1
  H+  H45  1  0.51904708  0.88687085  0.34250183  1
  H+  H46  1  0.38627777  0.52415062  0.50854864  1
  H+  H47  1  0.86453652  0.39663323  0.00435988  1
  H+  H48  1  0.98090272  0.10582560  0.64558571  1
  H+  H49  1  0.67276972  0.68017694  0.79868886  1
  H+  H50  1  0.27885140  0.88693381  0.16239087  1
  H+  H51  1  0.36909507  0.72438569  0.16772910  1
  H+  H52  1  0.22502906  0.10898157  0.49884894  1
  H+  H53  1  0.65917526  0.50166998  0.03432643  1
  H+  H54  1  0.97209869  0.59892378  0.32391020  1
  H+  H55  1  0.49528022  0.35762231  0.86438336  1
  H+  H56  1  0.11486412  0.88087644  0.49209280  1
  H+  H57  1  1.02284326  0.87765139  0.66589754  1
  H+  H58  1  0.83308302  0.62745434  0.64878730  1
  H+  H59  1  0.02121650  0.36424475  0.04866720  1
  H+  H60  1  0.62015696  0.15007850  0.00035326  1
  H+  H61  1  0.61320584  0.98716646  0.34023882  1
  H+  H62  1  0.69939243  0.27582680  0.54754271  1
  H+  H63  1  0.87589195  0.72241155  0.83293793  1
  H+  H64  1  0.15924092  0.15710365  0.31537769  1
  H+  H65  1  -0.01971627  0.61099694  0.00254612  1
  H+  H66  1  0.35423735  0.22354967  0.49178258  1
  H+  H67  1  0.62692562  0.28879990  0.84818837  1
  H+  H68  1  0.97305889  0.61536301  0.49814468  1
  H+  H69  1  0.62169672  0.63621402  0.64896403  1
  H+  H70  1  0.77483603  0.39742111  1.01033537  1
  H+  H71  1  0.38743169  0.13207521  0.84291397  1
  H+  H72  1  0.79562802  0.00790845  0.27495697  1
  H+  H73  1  -0.01877992  0.88338397  -0.02065658  1
  H+  H74  1  0.21450973  0.76544319  0.28284729  1
  H+  H75  1  0.35976919  0.62674952  0.33960271  1
  H+  H76  1  0.64201647  0.61781978  0.16689054  1
  H+  H77  1  0.02674660  0.88449223  0.49151793  1
  H+  H78  1  0.27306988  0.63199879  0.01724445  1
  H+  H79  1  0.33650258  0.40096167  0.09453877  1
  H+  H80  1  0.36568616  -0.02748776  0.66520786  1
  H+  H81  1  0.61430638  0.88358923  0.49027779  1
  H+  H82  1  0.03177616  0.98013745  0.04843673  1
  H+  H83  1  0.72193744  0.10938625  0.32701068  1
  H+  H84  1  0.10854642  0.12587245  0.66204268  1
  H+  H85  1  0.10162964  0.38046482  1.00664986  1
  H+  H86  1  0.67348048  0.83967161  0.55950794  1
  H+  H87  1  0.10553021  0.70826541  0.34000654  1
  H+  H88  1  0.98516195  0.86667565  0.17490513  1
  H+  H89  1  0.64732076  0.44994244  0.86366772  1
  H+  H90  1  0.11590709  0.13477403  0.48998661  1
  H+  H91  1  0.75665409  0.64810858  0.64734385  1
  H+  H92  1  0.37433635  0.50369951  0.32473119  1
  H+  H93  1  0.35434743  0.88694241  0.01239634  1
  H+  H94  1  0.74021038  0.35894489  0.50676363  1
  H+  H95  1  0.60202557  0.36295415  0.51738764  1
  H+  H96  1  0.27515280  0.63429542  0.34270196  1
  H+  H97  1  0.13514909  0.01802322  0.65197316  1
  H+  H98  1  -0.01570271  0.11578541  0.16523770  1
  H+  H99  1  0.52142353  0.39467841  0.33061829  1
  H+  H100  1  0.27403760  0.15391679  0.82861471  1
  H+  H101  1  0.67928853  0.89195721  0.83685409  1
  H+  H102  1  0.73443198  0.84494699  0.31813657  1
  H+  H103  1  0.64761601  0.13335073  0.83605900  1
  H+  H104  1  0.44553912  0.54658037  0.84789590  1
  H+  H105  1  0.07554861  0.41295642  0.40198601  1
  H+  H106  1  0.08713351  0.93009072  0.10709574  1
  H+  H107  1  0.10518462  0.62039285  0.34285873  1
  H+  H108  1  0.88762330  0.10830408  0.49666485  1
  H+  H109  1  0.27657073  0.39383583  0.49187539  1
  H+  H110  1  0.96994488  0.35778761  0.32930240  1
  H+  H111  1  0.10774505  0.58512353  0.65789254  1
  H+  H112  1  0.47830452  0.85951321  0.50972268  1
  H+  H113  1  0.40046172  0.40853624  0.83465527  1
  H+  H114  1  0.11568985  0.01214694  1.01042278  1
  H+  H115  1  0.86754118  0.24450908  1.00437329  1
  H+  H116  1  0.85824022  0.47966668  0.48735702  1
  H+  H117  1  0.24582535  0.84786326  0.32274467  1
  H+  H118  1  0.37937444  0.29488289  1.00519370  1
  H+  H119  1  0.25112250  0.62663643  0.66784703  1
  H+  H120  1  0.14414585  0.27780227  0.17474006  1
  H+  H121  1  0.96408829  0.35946506  0.84215803  1
  H+  H122  1  0.89892462  0.04966267  0.98495603  1
  H+  H123  1  0.88820439  0.52371261  0.85024956  1
  H+  H124  1  0.22840961  0.85724735  0.49996311  1
  H+  H125  1  0.76080758  0.17767204  0.64004915  1
  H+  H126  1  0.11696967  0.50229307  0.66441625  1
  H+  H127  1  0.03357311  0.15420289  0.00233938  1
  H+  H128  1  0.13666464  0.26905337  0.50586258  1
  H+  H129  1  0.85833198  0.22249859  0.33388900  1
  H+  H130  1  0.22560687  0.61139390  0.50718256  1
  H+  H131  1  0.14068628  0.52999415  0.18255076  1
  H+  H132  1  0.11994140  0.14329970  0.15444715  1
  H+  H133  1  0.64194765  0.28198265  1.00214703  1
  H+  H134  1  0.51298735  0.39897979  0.64810856  1
  H+  H135  1  0.78667744  0.91168587  -0.00912032  1
  H+  H136  1  0.13620578  0.61704943  0.85644283  1
  H+  H137  1  0.28429822  0.43294528  0.85835085  1
  H+  H138  1  0.15708516  0.30825053  0.74979315  1
  H+  H139  1  0.73465546  0.86863009  0.65059123  1
  H+  H140  1  0.67630037  0.09257158  0.55746862  1
  H+  H141  1  0.79089036  0.16282064  0.79474159  1
  H+  H142  1  0.37744958  0.76249013  1.00806103  1
  H+  H143  1  0.51586921  0.13103224  0.33275215  1
  H+  H144  1  0.10909694  0.47218100  0.49419693  1
  H+  H145  1  0.36259951  0.39299320  0.67858691  1
  H+  H146  1  0.26998310  0.89467233  0.01454488  1
  H+  H147  1  0.27895744  0.87968457  0.66516577  1
  H+  H148  1  0.10712762  0.72523096  0.01389601  1
  H+  H149  1  0.11951294  0.09198045  0.83398231  1
  H+  H150  1  0.15072005  0.27725420  0.83527714  1
  H+  H151  1  0.12920947  0.86418559  1.00504673  1
  H+  H152  1  0.47771431  0.60841471  0.52011722  1
  H+  H153  1  0.37772470  0.36276440  0.50377597  1
  H+  H154  1  0.13697339  0.77007052  0.85771845  1
  H+  H155  1  0.14143055  0.87004391  0.17164370  1
  H+  H156  1  0.01540879  0.36390122  0.69195065  1
  H+  H157  1  0.87966340  0.50945293  0.31951197  1
  H+  H158  1  0.57846485  0.41397961  0.56630683  1
  H+  H159  1  0.89851008  0.13771829  0.99297001  1
  H+  H160  1  0.09541857  0.84342848  0.34207069  1
  H+  H161  1  0.38067509  0.04182062  0.83692752  1
  H+  H162  1  0.24771912  0.61632332  0.82855538  1
  H+  H163  1  0.36962481  0.10250571  0.65682079  1
  H+  H164  1  0.61895044  0.54892418  0.62938307  1
  H+  H165  1  0.39302965  0.86291720  0.17788253  1
  H+  H166  1  0.82173897  0.91964937  0.81314559  1
  H+  H167  1  0.39247995  0.36331485  0.16906856  1
  H+  H168  1  0.86213773  0.96310201  0.32839733  1
  H+  H169  1  0.97528602  0.38512223  0.98111512  1
  H+  H170  1  0.11490670  0.72936409  0.16067098  1
  H+  H171  1  0.17290746  0.81851464  0.59056872  1
  H+  H172  1  0.88210557  0.51235627  1.00303583  1
  H+  H173  1  0.92066472  0.07616678  0.57919942  1
  H+  H174  1  0.12607661  0.28288938  0.98265681  1
  H+  H175  1  -0.01372248  0.14527783  0.83242985  1
  H+  H176  1  0.36641808  0.24096329  0.83202652  1
  H+  H177  1  0.02174890  0.63313702  0.85195766  1
  H+  H178  1  0.58703595  0.25765863  0.68455408  1
  H+  H179  1  0.64245389  0.77028299  0.50724635  1
  H+  H180  1  0.50307913  0.90562262  1.01826653  1
  H+  H181  1  0.12957071  0.35219492  0.69962544  1
  H+  H182  1  0.86765252  0.13762167  0.15364535  1
  H+  H183  1  0.61222317  0.63797596  0.55436289  1
  H+  H184  1  0.37451977  0.88925897  0.34159752  1
  H+  H185  1  0.52361307  0.15160878  0.83776129  1
  H+  H186  1  -0.01904731  0.11126978  0.49813774  1
  H+  H187  1  0.88180693  0.17035872  0.80190175  1
  H+  H188  1  0.37784454  0.23902978  0.33592594  1
  H+  H189  1  0.38943700  0.85139973  0.86769659  1
  H+  H190  1  0.36466093  0.75745497  0.65725529  1
  H+  H191  1  0.36772237  0.13994512  0.15563652  1
  H+  H192  1  0.36561082  0.63279038  0.16649572  1
  H+  H193  1  0.63364198  0.40543287  0.02130035  1
  H+  H194  1  0.17501973  0.34449289  0.26993197  1
  H+  H195  1  0.64354046  0.36078866  0.17914780  1
  H+  H196  1  0.08993280  0.17441403  0.43309198  1
  H+  H197  1  0.89333762  0.77505695  0.17418421  1
  H+  H198  1  0.38039389  0.85967617  0.65811834  1
  H+  H199  1  0.52587551  0.13146817  0.15964817  1
  H+  H200  1  0.26756124  0.13549284  0.67295330  1
  H+  H201  1  0.43455293  0.88968108  0.86965987  1
  H+  H202  1  0.39062909  0.37191794  0.32311478  1
  H+  H203  1  0.22999991  0.61865409  0.18098152  1
  H+  H204  1  0.75282790  0.63882613  0.34248956  1
  H+  H205  1  0.16571189  0.24610976  0.82675094  1
  H+  H206  1  0.89861906  0.86674302  0.32340412  1
  H+  H207  1  0.89332915  0.88142109  -0.02606479  1
  H+  H208  1  0.38578477  0.11613749  0.32366306  1
  H+  H209  1  0.76801624  0.39945367  0.83002730  1
  H+  H210  1  0.50171033  0.22648848  0.72121681  1
  H+  H211  1  0.64831068  0.91964222  0.67047918  1
  H+  H212  1  0.62845233  0.72142970  0.00322419  1
  H+  H213  1  0.71896386  0.37308216  0.67066188  1
  H+  H214  1  0.13247343  0.52243077  1.00583446  1
  H+  H215  1  0.37223562  0.15794360  0.00449392  1
  H+  H216  1  0.61438383  0.97405585  0.49452147  1
  H+  H217  1  0.27834743  0.38359037  0.15459666  1
  H+  H218  1  0.63807214  0.76895787  0.31485058  1
  H+  H219  1  0.89211321  0.36233155  0.17521747  1
  H+  H220  1  0.13486494  0.52001130  0.33303965  1
  H+  H221  1  0.61407293  0.48645746  0.47988925  1
  H+  H222  1  0.58223262  0.92284952  0.40635853  1
  H+  H223  1  0.11306601  0.99538075  0.33742198  1
  H+  H224  1  0.28072594  0.48228250  0.91480365  1
  H+  H225  1  0.62015123  -0.02270371  0.16741299  1
  H+  H226  1  0.88977661  0.62638751  0.17972288  1
  H+  H227  1  0.15645027  1.02937614  0.83414447  1
  H+  H228  1  -0.03238575  0.65020533  0.73618969  1
  H+  H229  1  0.33590377  0.66482442  0.43627381  1
  H+  H230  1  0.61702588  0.47619794  0.17034809  1
  H+  H231  1  0.14268113  0.76060684  0.65093398  1
  H+  H232  1  0.61543097  0.72558489  0.15471053  1
  H+  H233  1  0.37776077  0.52827327  0.66738023  1
  H+  H234  1  0.40506176  0.56326514  0.26448394  1
  H+  H235  1  0.89264777  0.89202459  0.80734064  1
  H+  H236  1  0.36555391  0.63689444  0.49689542  1
  H+  H237  1  0.27037129  0.90023972  0.82483261  1
  H+  H238  1  0.16680901  0.07904553  0.59324591  1
  H+  H239  1  0.34343602  0.63006765  0.66993497  1
  H+  H240  1  0.65887788  0.75751842  0.81681665  1
  H+  H241  1  0.65003412  0.57221278  0.88601915  1
  H+  H242  1  0.14311675  0.86101044  0.84821150  1
  H+  H243  1  0.36580330  0.58229042  0.99480706  1
  H+  H244  1  0.64582189  0.86410521  0.16690737  1
  H+  H245  1  0.63478916  0.10741996  0.49745811  1
  H+  H246  1  0.36142608  0.43659186  0.99484988  1
  H+  H247  1  0.39485940  0.76980383  0.33057625  1
  H+  H248  1  0.46089108  0.35172641  0.51518752  1
  H+  H249  1  0.88421281  0.31352856  0.60804190  1
  H+  H250  1  0.73755515  0.81218714  0.91280795  1
  H+  H251  1  0.87089404  0.88574279  0.65767794  1
  H+  H252  1  -0.00714830  0.85953003  0.83114512  1
  H+  H253  1  0.64060652  0.11062990  0.17366671  1
  H+  H254  1  0.88472609  0.61959205  0.49581199  1
  H+  H255  1  0.66295401  0.13606101  0.65395270  1
  H+  H256  1  0.60792028  0.21652139  0.48221093  1
  H+  H257  1  0.85623437  0.37988699  0.33759710  1
  H+  H258  1  0.36230011  0.67334810  0.82207960  1
  H+  H259  1  0.64234507  0.27213310  0.17632034  1
  H+  H260  1  0.62448178  0.61269101  0.31930214  1
  H+  H261  1  0.12462618  0.15643249  0.00073893  1
  H+  H262  1  0.93143877  0.84476580  0.88823687  1
  H+  H263  1  -0.02118719  0.83685794  0.32814099  1
  H+  H264  1  0.11185929  0.87758019  0.65886223  1
  H+  H265  1  0.47217756  0.10976192  0.50085979  1
  H+  H266  1  0.56629032  0.90658155  0.81860743  1
  H+  H267  1  0.50386067  0.62366731  0.33346456  1
  H+  H268  1  0.23244720  0.37408435  0.33233699  1
  H+  H269  1  0.35997028  0.13672983  0.48895002  1
  H+  H270  1  0.89118611  0.38166951  0.52047529  1
  H+  H271  1  0.77875222  0.88673411  0.14919972  1
  H+  H272  1  0.33872558  0.17971516  0.06515405  1
  H+  H273  1  0.38278178  1.02433374  0.32421496  1
  H+  H274  1  0.63145192  0.52667861  0.31599971  1
  H+  H275  1  0.68465890  0.55680926  0.43566218  1
  H+  H276  1  0.79129979  0.63103163  0.84529573  1
  H+  H277  1  0.33388028  0.41990307  0.43059026  1
  H+  H278  1  0.59288811  0.42094384  0.11078939  1
  H+  H279  1  0.38930500  0.02403703  0.17149805  1
  H+  H280  1  0.64226387  0.04425841  -0.01433048  1
  H+  H281  1  0.42410419  0.34648711  0.91286000  1
  H+  H282  1  0.10809301  0.63130106  0.49347833  1
  H+  H283  1  0.86831233  0.88804168  0.14931595  1
  H+  H284  1  0.66734381  0.34446601  0.94416618  1
  H+  H285  1  0.60815202  0.41078381  0.65409248  1
  H+  H286  1  0.23074889  0.11743027  0.16334180  1
  H+  H287  1  0.45192866  0.75326475  0.88258046  1
  H+  H288  1  0.23909792  0.13246257  0.98980646  1
  H+  H289  1  0.16704232  0.58290065  0.27415509  1
  H+  H290  1  0.33903882  0.91875240  0.10426924  1
  H+  H291  1  0.11623619  0.92497032  0.75292680  1
  H+  H292  1  0.88838685  0.00982694  0.64394881  1
  H+  H293  1  0.10848666  0.48111861  0.83861387  1
  H+  H294  1  0.50994134  0.65244080  0.67566286  1
  H+  H295  1  0.66827641  1.01635891  0.67590595  1
  H+  H296  1  0.84838446  0.12809795  0.32654783  1
  H+  H297  1  0.46258910  0.67596086  0.85587281  1
  H+  H298  1  0.07726046  0.65722416  0.43255088  1
  H+  H299  1  0.07906574  0.41654018  0.74632831  1
  H+  H300  1  0.17679870  0.09634987  0.93022177  1
  H+  H301  1  0.91889393  0.58007603  0.93945546  1
  H+  H302  1  0.10303984  0.21068769  0.68218682  1
  H+  H303  1  0.83941416  0.37090191  0.67674189  1
  H+  H304  1  0.57675153  0.19118239  0.77813973  1
  H+  H305  1  0.56585154  0.66330873  0.39051384  1
  H+  H306  1  0.85131961  0.92481967  0.71648324  1
  H+  H307  1  -0.03253250  0.56435560  0.73602951  1
  H+  H308  1  0.66849166  0.34217718  0.60819460  1
  H+  H309  1  0.04299402  0.10557351  0.75463852  1
  H+  H310  1  0.83738663  0.41209702  0.10957578  1
  H+  H311  1  0.63251007  0.27432870  0.35445486  1
  H+  H312  1  0.84741680  0.71957108  0.34194794  1
  H+  H313  1  0.47772818  0.60872529  0.17055613  1
  H+  H314  1  0.41709411  0.09319553  0.93543703  1
  H+  H315  1  0.82484036  0.42404810  0.76951190  1
  H+  H316  1  0.76860008  0.38340518  0.35225512  1
  H+  H317  1  0.83611087  0.17430263  0.09919776  1
  H+  H318  1  0.89558945  0.02489839  0.15678421  1
  H+  H319  1  0.29973083  0.64428897  0.75726320  1
  H+  H320  1  0.58733587  0.16392488  0.10115870  1
  H+  H321  1  0.09802435  0.42831056  0.11538838  1
  H+  H322  1  0.63108398  0.94794754  0.76278579  1
  H+  H323  1  0.91600015  0.32980469  0.26740584  1
  H+  H324  1  0.83773986  0.92659148  0.05359847  1
  H+  H325  1  0.40369741  0.58309554  0.60505399  1
  H+  H326  1  0.83438617  0.67057146  0.10578309  1
  H+  H327  1  0.65679577  0.65320101  1.01595237  1
  H+  H328  1  0.33752358  0.91585064  0.39885428  1
  H+  H329  1  0.58067251  0.44975165  0.38652369  1
  H+  H330  1  0.90788817  0.34340442  0.92609169  1
  H+  H331  1  0.11406242  0.63926750  0.16607467  1
  H+  H332  1  0.36349020  0.97576911  0.49222795  1
  H+  H333  1  0.41240652  0.08227219  0.56089297  1
  H+  H334  1  0.89705376  0.27535898  0.17445991  1
  H+  H335  1  0.58740422  0.66316304  0.09731536  1
  H+  H336  1  0.36975153  0.44060743  0.77596850  1
  H+  H337  1  0.84823227  0.46463790  0.66366100  1
  H+  H338  1  0.17823578  0.10722530  0.22385313  1
  H+  H339  1  0.67901066  0.83160037  0.22317123  1
  H+  H340  1  0.89325373  0.56700457  0.58171689  1
  H+  H341  1  0.71577474  0.57555009  0.93309852  1
  H+  H342  1  0.33985290  0.17565171  0.39407886  1
  H+  H343  1  0.41715812  0.08618842  0.22894917  1
  H+  H344  1  0.13764753  0.76683968  0.49931762  1
  H+  H345  1  0.83433925  0.41450140  0.43160660  1
  H+  H346  1  0.17420444  0.36499480  0.93568334  1
  H+  H347  1  0.42519745  0.83137109  0.27094422  1
  H+  H348  1  0.07620689  0.66192499  0.79184558  1
  H+  H349  1  0.60554842  0.13023645  0.33357170  1
  H+  H350  1  0.67102309  0.59373531  0.22909597  1
  H+  H351  1  0.29721914  0.33495941  0.37005787  1
  H+  H352  1  0.91733269  0.58342016  0.24977215  1
  H+  H353  1  0.16039790  0.57559161  0.56402151  1
  H+  H354  1  0.77659330  0.88537330  0.48456798  1
  H+  H355  1  0.39399194  0.32806522  0.60054444  1
  H+  H356  1  0.88796396  0.06161284  0.24682688  1
  H+  H357  1  0.92671627  0.83365125  0.25593456  1
  H+  H358  1  0.07901698  0.66390572  0.07251108  1
  H+  H359  1  0.82044976  0.67452431  0.43449672  1
  H+  H360  1  0.77700103  0.37662456  0.16792370  1
  H+  H361  1  0.06237845  0.86518610  0.40376028  1
  H+  H362  1  0.31882769  0.93118232  0.76022816  1
  H+  H363  1  0.16109088  0.83635507  0.94605983  1
  H+  H364  1  0.41966053  0.34043389  0.26210424  1
  H+  H365  1  0.57354858  0.15430038  0.42466716  1
  H+  H366  1  0.66405493  0.07602964  0.26601359  1
  H+  H367  1  0.94131365  0.14973930  0.89224471  1
  H+  H368  1  0.16626839  0.32935563  0.56409525  1
  H+  H369  1  0.12068281  0.25175813  0.34037878  1
  H+  H370  1  0.33571991  0.66039575  0.07485116  1
  H+  H371  1  0.42302629  0.57051849  0.94457922  1
  H+  H372  1  0.32718109  0.16988405  0.73320551  1
  H+  H373  1  0.92301289  0.83582765  0.59511689  1
  H+  H374  1  0.83608454  0.15513711  0.42750389  1
  H+  H375  1  0.17198849  0.58470043  0.91218279  1
  H+  H376  1  0.39895110  0.82368824  0.94954519  1
  H+  H377  1  0.87997231  0.36832547  0.83867908  1
  H+  H378  1  0.17339669  0.83356769  0.22723842  1
  H+  H379  1  0.58255270  0.68565553  0.72874879  1
  H+  H380  1  0.20343287  0.95196720  0.78789749  1
  H+  H381  1  0.84643538  0.91276262  0.39316450  1
  H+  H382  1  0.09171157  0.17929393  0.09719912  1
  H+  H383  1  0.40907001  0.82279642  0.59454030  1
  O2-  O384  1  0.08817888  0.17404810  0.14277097  1
  O2-  O385  1  0.08656653  0.16796794  0.47850879  1
  O2-  O386  1  0.02991697  0.08452174  0.79727915  1
  O2-  O387  1  0.09488728  0.42595660  0.16046405  1
  O2-  O388  1  0.07418553  0.41089890  0.48139872  1
  O2-  O389  1  0.08520191  0.42118213  0.82361063  1
  O2-  O390  1  0.08188336  0.66706392  0.14903539  1
  O2-  O391  1  0.07890492  0.66271599  0.47810740  1
  O2-  O392  1  0.08364224  0.66570773  0.83639685  1
  O2-  O393  1  0.08887860  0.92336066  0.15192932  1
  O2-  O394  1  0.08545073  0.90952333  0.47257849  1
  O2-  O395  1  0.14262685  0.93738248  0.79459533  1
  O2-  O396  1  0.33758994  0.17065073  0.14082053  1
  O2-  O397  1  0.32761042  0.16464105  0.47341772  1
  O2-  O398  1  0.33461043  0.18262338  0.81313501  1
  O2-  O399  1  0.33872623  0.41307693  0.13870635  1
  O2-  O400  1  0.33723713  0.42442841  0.47794794  1
  O2-  O401  1  0.37963693  0.44792781  0.82078313  1
  O2-  O402  1  0.33512568  0.66400670  0.15265762  1
  O2-  O403  1  0.33533277  0.66765274  0.48180450  1
  O2-  O404  1  0.30149653  0.63082092  0.80204273  1
  O2-  O405  1  0.34052229  0.91562096  0.14971039  1
  O2-  O406  1  0.33453215  0.91481469  0.47678792  1
  O2-  O407  1  0.30179263  0.95030479  0.79744795  1
  O2-  O408  1  0.58710864  0.15742281  0.14621329  1
  O2-  O409  1  0.57521519  0.15512284  0.47095474  1
  O2-  O410  1  0.58418598  0.18662477  0.82257072  1
  O2-  O411  1  0.58585375  0.41527762  0.15675874  1
  O2-  O412  1  0.57420836  0.39780533  0.52170693  1
  O2-  O413  1  0.61169910  0.39101960  0.84584205  1
  O2-  O414  1  0.58252311  0.66368765  0.14272922  1
  O2-  O415  1  0.59213142  0.64934968  0.51462133  1
  O2-  O416  1  0.62825476  0.69581877  0.80296483  1
  O2-  O417  1  0.58756336  0.91653857  0.15165148  1
  O2-  O418  1  0.58192155  0.91350969  0.47776315  1
  O2-  O419  1  0.62753222  0.94122051  0.80964290  1
  O2-  O420  1  0.83559316  0.16838693  0.14453499  1
  O2-  O421  1  0.83787700  0.15082740  0.47251625  1
  O2-  O422  1  0.83992380  0.16887086  0.77082292  1
  O2-  O423  1  0.83848578  0.40368223  0.15364173  1
  O2-  O424  1  0.83151929  0.41717530  0.47725959  1
  O2-  O425  1  0.82820003  0.42780668  0.81486163  1
  O2-  O426  1  0.83941130  0.67500196  0.15122179  1
  O2-  O427  1  0.83290651  0.67700335  0.48058276  1
  O2-  O428  1  0.84834719  0.65948860  0.82514721  1
  O2-  O429  1  0.83934939  0.91802866  0.13234634  1
  O2-  O430  1  0.83728055  0.91475023  0.46934590  1
  O2-  O431  1  0.87469295  0.93275802  0.79056703  1
  O2-  O432  1  0.17035462  0.08894195  0.17928987  1
  O2-  O433  1  0.16440457  0.07822567  0.51494537  1
  O2-  O434  1  0.16769327  0.08550608  0.85106350  1
  O2-  O435  1  0.17846820  0.33792640  0.19056514  1
  O2-  O436  1  0.16514260  0.33088161  0.51980395  1
  O2-  O437  1  0.24281690  0.44114571  0.88340661  1
  O2-  O438  1  0.16941228  0.59172433  0.19628105  1
  O2-  O439  1  0.16359147  0.58072425  0.51907927  1
  O2-  O440  1  0.16846236  0.58603343  0.86649683  1
  O2-  O441  1  0.17050083  0.83623656  0.18222903  1
  O2-  O442  1  0.16863505  0.82656832  0.51701419  1
  O2-  O443  1  0.16854425  0.83156700  0.87127209  1
  O2-  O444  1  0.41933095  0.08593863  0.18345723  1
  O2-  O445  1  0.41113318  0.08041199  0.51555963  1
  O2-  O446  1  0.41557802  0.09881288  0.85681851  1
  O2-  O447  1  0.42048364  0.33235843  0.18707191  1
  O2-  O448  1  0.39805802  0.32478882  0.52273792  1
  O2-  O449  1  0.43418459  0.34145441  0.86865058  1
  O2-  O450  1  0.41687011  0.57684047  0.18573883  1
  O2-  O451  1  0.41484176  0.58325583  0.52754869  1
  O2-  O452  1  0.48173137  0.60284396  0.86975690  1
  O2-  O453  1  0.42238798  0.83234443  0.19467918  1
  O2-  O454  1  0.41749805  0.82936982  0.52505768  1
  O2-  O455  1  0.44749568  0.72273237  0.84492124  1
  O2-  O456  1  0.67188932  0.08145503  0.19061575  1
  O2-  O457  1  0.66630322  0.07862979  0.51328607  1
  O2-  O458  1  0.68576653  0.11094325  0.84888595  1
  O2-  O459  1  0.67545906  0.33142313  0.19194897  1
  O2-  O460  1  0.68480383  0.31676288  0.52967192  1
  O2-  O461  1  0.66137126  0.34956859  0.86504800  1
  O2-  O462  1  0.67585260  0.59189547  0.18377579  1
  O2-  O463  1  0.62678983  0.53555343  0.45155811  1
  O2-  O464  1  0.69654156  0.55934866  0.88972897  1
  O2-  O465  1  0.67859361  0.83437702  0.17728727  1
  O2-  O466  1  0.67048900  0.83331833  0.51378257  1
  O2-  O467  1  0.71196518  0.85984986  0.84378649  1
  O2-  O468  1  0.92139042  0.08277429  0.17641026  1
  O2-  O469  1  0.91983747  0.07786812  0.51309408  1
  O2-  O470  1  0.95548807  0.17276164  0.85048640  1
  O2-  O471  1  0.92747187  0.33518376  0.19060956  1
  O2-  O472  1  0.92440525  0.36623429  0.54880292  1
  O2-  O473  1  0.90498856  0.33574278  0.85770615  1
  O2-  O474  1  0.92159686  0.59736806  0.19587547  1
  O2-  O475  1  0.91051101  0.58443547  0.50948022  1
  O2-  O476  1  0.92221246  0.58245309  0.86905665  1
  O2-  O477  1  0.92434189  0.83610002  0.19100608  1
  O2-  O478  1  0.92546839  0.84232805  0.51799378  1
  O2-  O479  1  0.93243194  0.83510308  0.84216197  1
  O2-  O480  1  0.19911325  0.14954565  0.28869360  1
  O2-  O481  1  0.16501769  0.07959223  0.63900290  1
  O2-  O482  1  0.17763532  0.10115821  0.97554318  1
  O2-  O483  1  0.17036916  0.34676473  0.31518385  1
  O2-  O484  1  0.16099323  0.31918995  0.70584428  1
  O2-  O485  1  0.12656415  0.33432488  0.96528840  1
  O2-  O486  1  0.16694527  0.58235201  0.31987921  1
  O2-  O487  1  0.14497055  0.56234243  0.64638566  1
  O2-  O488  1  0.16582547  0.58182374  0.98964403  1
  O2-  O489  1  0.19368475  0.80204431  0.29983008  1
  O2-  O490  1  0.17479427  0.82010543  0.63696242  1
  O2-  O491  1  0.15997407  0.83483836  0.99211394  1
  O2-  O492  1  0.41391491  0.08367505  0.30752157  1
  O2-  O493  1  0.40461053  0.07669459  0.64216342  1
  O2-  O494  1  0.42084906  0.09572407  0.98090899  1
  O2-  O495  1  0.42307062  0.34307780  0.30804958  1
  O2-  O496  1  0.40271484  0.33383389  0.64583133  1
  O2-  O497  1  0.40505248  0.35619642  0.99078156  1
  O2-  O498  1  0.40287908  0.56400721  0.31015614  1
  O2-  O499  1  0.40117812  0.58792593  0.65058403  1
  O2-  O500  1  0.37134049  0.53910530  0.97019281  1
  O2-  O501  1  0.42608115  0.83165393  0.31701917  1
  O2-  O502  1  0.40195370  0.81932391  0.64176103  1
  O2-  O503  1  0.40249029  0.82469715  0.99397881  1
  O2-  O504  1  0.66053959  0.07424787  0.31208100  1
  O2-  O505  1  0.70449247  0.12398149  0.63437364  1
  O2-  O506  1  0.67827192  0.10403971  0.97145833  1
  O2-  O507  1  0.66631727  0.33486873  0.36786954  1
  O2-  O508  1  0.66002932  0.34888676  0.65204835  1
  O2-  O509  1  0.67478983  0.34376297  0.98897770  1
  O2-  O510  1  0.66177161  0.58973405  0.30491794  1
  O2-  O511  1  0.64785717  0.61176697  0.62082874  1
  O2-  O512  1  0.73324482  0.61462617  1.00703751  1
  O2-  O513  1  0.67843697  0.82697326  0.29886061  1
  O2-  O514  1  0.67459517  0.84704853  0.63607966  1
  O2-  O515  1  0.70954797  0.84726896  0.91125806  1
  O2-  O516  1  0.85584092  0.04254312  0.28710324  1
  O2-  O517  1  0.92008757  0.07285028  0.62743017  1
  O2-  O518  1  0.93151364  0.11177589  0.97500026  1
  O2-  O519  1  0.90997834  0.32571296  0.31306844  1
  O2-  O520  1  0.85220279  0.28667855  0.64866498  1
  O2-  O521  1  0.91338749  0.34942207  0.97323691  1
  O2-  O522  1  0.91375969  0.57139393  0.30447302  1
  O2-  O523  1  0.88298752  0.56024568  0.62724406  1
  O2-  O524  1  0.91898393  0.57843255  0.98623472  1
  O2-  O525  1  0.92420240  0.83067362  0.30484024  1
  O2-  O526  1  0.92014509  0.83274847  0.64068123  1
  O2-  O527  1  0.92562436  0.85407083  0.95799598  1
  O2-  O528  1  0.09382388  0.18434487  0.01885882  1
  O2-  O529  1  0.09186168  0.18962993  0.35647623  1
  O2-  O530  1  0.06960177  0.14671538  0.67839995  1
  O2-  O531  1  0.07610146  0.41132740  0.03407723  1
  O2-  O532  1  0.07715268  0.41706265  0.35647103  1
  O2-  O533  1  0.07689214  0.40829080  0.70096179  1
  O2-  O534  1  0.07851489  0.66352926  0.02653979  1
  O2-  O535  1  0.07123721  0.64900379  0.35594520  1
  O2-  O536  1  0.00203476  0.62450277  0.72326564  1
  O2-  O537  1  0.06943397  0.95963696  0.03306989  1
  O2-  O538  1  0.04357517  0.83103050  0.36444979  1
  O2-  O539  1  0.08567254  0.90930524  0.67736607  1
  O2-  O540  1  0.33986999  0.18601930  0.01945979  1
  O2-  O541  1  0.34494304  0.17718946  0.34881881  1
  O2-  O542  1  0.32838396  0.16576104  0.68781411  1
  O2-  O543  1  0.34001180  0.37788863  0.01212366  1
  O2-  O544  1  0.32098315  0.39610847  0.36138909  1
  O2-  O545  1  0.33981107  0.42766894  0.69889733  1
  O2-  O546  1  0.33492676  0.66137801  0.02905237  1
  O2-  O547  1  0.33681227  0.66342728  0.35584363  1
  O2-  O548  1  0.31128385  0.66076227  0.68398752  1
  O2-  O549  1  0.33182052  0.92463800  0.02639739  1
  O2-  O550  1  0.33852505  0.91502530  0.35316463  1
  O2-  O551  1  0.33921423  0.91178558  0.68118610  1
  O2-  O552  1  0.58834266  0.17542792  0.02109071  1
  O2-  O553  1  0.57492650  0.15837824  0.35114930  1
  O2-  O554  1  0.53964070  0.20609189  0.70628070  1
  O2-  O555  1  0.61243684  0.44186531  0.03950807  1
  O2-  O556  1  0.58306262  0.42867398  0.34567273  1
  O2-  O557  1  0.57518755  0.43747125  0.63783624  1
  O2-  O558  1  0.60856446  0.66476124  0.02088253  1
  O2-  O559  1  0.56609733  0.65978047  0.34628647  1
  O2-  O560  1  0.57286215  0.68592130  0.68430729  1
  O2-  O561  1  0.55455824  0.95639798  0.03616213  1
  O2-  O562  1  0.58030864  0.92514649  0.35948565  1
  O2-  O563  1  0.63245534  0.95810391  0.69263989  1
  O2-  O564  1  0.84043901  0.18453650  0.02032617  1
  O2-  O565  1  0.82455510  0.16037045  0.34761498  1
  O2-  O566  1  0.91650308  0.27585829  0.68327911  1
  O2-  O567  1  0.83757180  0.42902292  0.02300676  1
  O2-  O568  1  0.83386869  0.41685692  0.35396464  1
  O2-  O569  1  0.82203946  0.41303987  0.69110207  1
  O2-  O570  1  0.81306887  0.66121992  0.02676487  1
  O2-  O571  1  0.80877844  0.66818250  0.36549358  1
  O2-  O572  1  0.81535843  0.66826410  0.66337254  1
  O2-  O573  1  0.84425876  0.93672882  0.00851969  1
  O2-  O574  1  0.84984945  0.90759277  0.34765092  1
  O2-  O575  1  0.84317244  0.92054138  0.67095564  1
