# generated using pymatgen
data_H2O
_symmetry_space_group_name_H-M   'P 1'
_cell_length_a   17.97959924
_cell_length_b   17.98406525
_cell_length_c   21.99724949
_cell_angle_alpha   89.98812403
_cell_angle_beta   90.00006811
_cell_angle_gamma   119.98733782
_symmetry_Int_Tables_number   1
_chemical_formula_structural   H2O
_chemical_formula_sum   'H384 O192'
_cell_volume   6160.58955557
_cell_formula_units_Z   192
loop_
 _symmetry_equiv_pos_site_id
 _symmetry_equiv_pos_as_xyz
  1  'x, y, z'
loop_
 _atom_type_symbol
 _atom_type_oxidation_number
  H+  1.0
  O2-  -2.0
loop_
 _atom_site_type_symbol
 _atom_site_label
 _atom_site_symmetry_multiplicity
 _atom_site_fract_x
 _atom_site_fract_y
 _atom_site_fract_z
 _atom_site_occupancy
  H+  H0  1  0.12102096  0.32605313  0.17148459  1
  H+  H1  1  0.06837109  0.96026650  0.46939101  1
  H+  H2  1  0.37217684  0.10949740  0.63977755  1
  H+  H3  1  0.61036605  0.38503311  0.80963084  1
  H+  H4  1  0.20883705  0.32456120  0.17056097  1
  H+  H5  1  0.22888836  0.88636164  0.66121733  1
  H+  H6  1  0.37039338  0.22731008  0.85125141  1
  H+  H7  1  0.52533799  0.65839500  0.37541363  1
  H+  H8  1  0.14096135  0.10875296  0.84154223  1
  H+  H9  1  0.71859267  0.35232555  0.50130263  1
  H+  H10  1  0.56708772  0.22530963  0.38115925  1
  H+  H11  1  0.85484742  0.13184461  1.00481131  1
  H+  H12  1  0.61258009  0.23008424  0.14512023  1
  H+  H13  1  0.66806762  0.08736748  0.88735852  1
  H+  H14  1  1.00576510  0.86220661  0.68781998  1
  H+  H15  1  0.13558056  0.35440471  0.99193071  1
  H+  H16  1  0.52887992  0.11627492  0.50961582  1
  H+  H17  1  0.63364838  0.52355126  0.15688409  1
  H+  H18  1  0.09770705  0.62815079  0.47667990  1
  H+  H19  1  0.61176120  0.11423971  0.66316840  1
  H+  H20  1  0.22699763  0.35565176  0.32830746  1
  H+  H21  1  0.11246331  0.37757263  0.32567614  1
  H+  H22  1  0.15421226  0.83289327  0.26264421  1
  H+  H23  1  0.24994676  0.63815707  0.16186970  1
  H+  H24  1  0.52112024  0.38790971  0.15225931  1
  H+  H25  1  0.43836173  0.32608890  0.69956788  1
  H+  H26  1  0.85162838  0.46085393  0.99115220  1
  H+  H27  1  0.26683929  0.89796814  0.83651723  1
  H+  H28  1  0.96543061  0.34873074  0.16537398  1
  H+  H29  1  0.14625354  0.27755282  0.49234679  1
  H+  H30  1  0.61457925  0.64920534  0.82413878  1
  H+  H31  1  0.39627021  0.99431116  0.13216580  1
  H+  H32  1  0.38908842  0.77674732  0.16375663  1
  H+  H33  1  0.31441917  0.61402904  0.56237726  1
  H+  H34  1  0.89216411  0.60396041  0.31457364  1
  H+  H35  1  0.61546895  0.44541122  0.72160095  1
  H+  H36  1  0.14044793  0.01859205  0.83621967  1
  H+  H37  1  0.20859091  0.85956590  0.50268689  1
  H+  H38  1  0.92739323  0.84499640  0.91062067  1
  H+  H39  1  0.86010934  0.96315024  0.01599356  1
  H+  H40  1  0.64848576  0.87377389  0.99378657  1
  H+  H41  1  0.58978502  0.75008987  0.02569134  1
  H+  H42  1  0.86656229  0.88697967  0.34655821  1
  H+  H43  1  0.46121703  0.85538454  0.33113682  1
  H+  H44  1  0.17222034  0.07258668  0.26457563  1
  H+  H45  1  0.02337275  0.88715456  0.34006506  1
  H+  H46  1  0.04892518  0.41773660  0.73993670  1
  H+  H47  1  0.73205183  0.35600590  0.64753137  1
  H+  H48  1  0.24889061  0.87117522  0.34597411  1
  H+  H49  1  0.38918284  0.53473144  0.33196249  1
  H+  H50  1  0.72445999  0.11730851  0.82558898  1
  H+  H51  1  0.73909677  0.37576680  0.32010227  1
  H+  H52  1  0.27527793  0.21974472  0.39320307  1
  H+  H53  1  0.32513186  0.16443265  0.57069387  1
  H+  H54  1  0.83350288  0.65301141  0.37445261  1
  H+  H55  1  0.10091568  0.94043764  0.06958015  1
  H+  H56  1  0.66458990  0.59323408  0.98814924  1
  H+  H57  1  0.98494021  0.86737532  1.00429948  1
  H+  H58  1  0.53013727  0.88662260  0.00053648  1
  H+  H59  1  0.28290058  0.13628250  0.85629719  1
  H+  H60  1  0.12106153  0.97617235  0.33515648  1
  H+  H61  1  0.71305526  0.34025805  0.98501334  1
  H+  H62  1  0.74926372  0.58672081  0.32102240  1
  H+  H63  1  0.37795366  0.65348948  0.15425310  1
  H+  H64  1  0.12445938  0.98654408  0.00575626  1
  H+  H65  1  0.36607932  0.38925713  0.33106277  1
  H+  H66  1  0.92586717  0.84031907  0.27904490  1
  H+  H67  1  0.38497417  1.00406396  0.50708198  1
  H+  H68  1  0.05142500  0.94191399  0.17305076  1
  H+  H69  1  0.74137385  0.61479992  0.15615997  1
  H+  H70  1  0.87065693  0.13724067  0.33802490  1
  H+  H71  1  0.65457338  0.89120157  0.84588704  1
  H+  H72  1  0.82569369  0.16267238  0.09689397  1
  H+  H73  1  0.64840124  0.77794528  0.85150673  1
  H+  H74  1  0.13783674  0.86809125  0.83606809  1
  H+  H75  1  0.87210348  0.60350028  0.64179901  1
  H+  H76  1  0.91707907  0.32666973  0.92735765  1
  H+  H77  1  0.36306320  0.48190996  0.82177806  1
  H+  H78  1  0.32062725  0.16985100  0.41305490  1
  H+  H79  1  0.76972476  0.87550625  1.01440213  1
  H+  H80  1  0.93719240  0.09264662  0.62261210  1
  H+  H81  1  0.36785864  0.34454365  0.67369455  1
  H+  H82  1  0.81313369  0.88336881  0.43494506  1
  H+  H83  1  0.22517113  0.35488154  -0.00963755  1
  H+  H84  1  0.62880900  0.73605406  0.16974097  1
  H+  H85  1  0.86044336  0.38348480  0.14915128  1
  H+  H86  1  0.47366308  0.38296195  0.48617004  1
  H+  H87  1  0.43969361  0.81072650  0.87782778  1
  H+  H88  1  0.84407256  0.40497768  0.58789015  1
  H+  H89  1  0.51574243  0.63321710  0.82714947  1
  H+  H90  1  0.11264606  0.87519037  0.33158256  1
  H+  H91  1  0.89592035  0.60768531  0.98714219  1
  H+  H92  1  0.52703432  0.53944799  0.30041399  1
  H+  H93  1  0.63850622  0.96773450  0.82897946  1
  H+  H94  1  0.83600489  0.41281164  0.39770461  1
  H+  H95  1  0.61076036  0.13285121  0.81761283  1
  H+  H96  1  0.77198626  0.38805947  0.82272349  1
  H+  H97  1  0.14826937  0.88987273  0.17743018  1
  H+  H98  1  0.11185692  0.22005373  0.00508049  1
  H+  H99  1  1.02029229  0.64748881  0.82221514  1
  H+  H100  1  0.61646284  0.75613060  0.68345980  1
  H+  H101  1  0.37194788  0.76230393  0.53998339  1
  H+  H102  1  0.15104318  0.11579730  0.98950085  1
  H+  H103  1  0.76591127  0.13329961  0.15685528  1
  H+  H104  1  0.11965147  0.77600100  0.49962469  1
  H+  H105  1  0.38299866  0.26597946  0.16581172  1
  H+  H106  1  0.88014772  0.27395656  0.83159668  1
  H+  H107  1  0.97538180  0.10369292  0.99658978  1
  H+  H108  1  0.38837845  0.36781904  0.83001581  1
  H+  H109  1  0.86962134  0.47257570  0.33745377  1
  H+  H110  1  0.86053176  0.81900899  0.69948738  1
  H+  H111  1  0.72970681  0.86555119  0.18200675  1
  H+  H112  1  0.63301252  0.02429359  0.17199226  1
  H+  H113  1  0.10216902  0.19644665  0.16076311  1
  H+  H114  1  0.77012472  0.86808164  0.84606362  1
  H+  H115  1  0.10842646  0.63050388  0.68110646  1
  H+  H116  1  0.59648482  0.08046971  0.36189317  1
  H+  H117  1  0.87995101  0.11198314  0.17109392  1
  H+  H118  1  0.86050646  0.12372099  0.52284224  1
  H+  H119  1  0.39264343  0.53983253  0.67580796  1
  H+  H120  1  0.12027163  0.08281783  0.16318434  1
  H+  H121  1  0.89046187  0.85700696  1.00569663  1
  H+  H122  1  0.35295483  0.64345414  0.32785444  1
  H+  H123  1  0.64367238  0.67557248  0.98968875  1
  H+  H124  1  0.87239735  0.22773494  0.33469731  1
  H+  H125  1  0.09966801  0.54127185  0.54793946  1
  H+  H126  1  0.77464543  0.88191094  0.34191873  1
  H+  H127  1  0.34842424  0.86821823  0.50383417  1
  H+  H128  1  0.63303873  0.11351663  0.16773410  1
  H+  H129  1  0.74133205  0.12091880  0.32385464  1
  H+  H130  1  0.97622675  0.12095128  0.83956424  1
  H+  H131  1  0.76028493  0.85748769  0.49925175  1
  H+  H132  1  0.90759675  0.78119937  0.34170491  1
  H+  H133  1  0.87434713  0.24225975  0.48831657  1
  H+  H134  1  0.36331453  -0.01248308  0.68698089  1
  H+  H135  1  0.63034898  0.02355141  0.98675721  1
  H+  H136  1  0.11852299  0.22890816  0.84392768  1
  H+  H137  1  0.36257409  0.11152076  0.49321808  1
  H+  H138  1  0.85506215  0.97665509  0.16071515  1
  H+  H139  1  0.46357276  0.84656854  0.52359490  1
  H+  H140  1  0.88760929  0.35901349  0.32205126  1
  H+  H141  1  0.47271172  0.35586215  0.32284482  1
  H+  H142  1  0.62034314  0.63139636  0.53794045  1
  H+  H143  1  0.36583610  0.38518298  0.99708932  1
  H+  H144  1  0.74355386  0.61710296  0.61477042  1
  H+  H145  1  0.19623737  0.09931380  0.63613138  1
  H+  H146  1  0.60849913  0.36930788  0.00136721  1
  H+  H147  1  0.57369574  0.11321236  -0.01167730  1
  H+  H148  1  0.02233211  0.37829931  0.32420536  1
  H+  H149  1  0.85460776  0.03378028  0.53673920  1
  H+  H150  1  0.12215810  0.46796302  -0.00119036  1
  H+  H151  1  0.65832690  0.37908807  0.65572078  1
  H+  H152  1  0.67869382  0.82663428  0.94200540  1
  H+  H153  1  0.07613099  0.10636759  0.66308163  1
  H+  H154  1  0.02766427  0.64865509  0.15122965  1
  H+  H155  1  0.62555904  0.46390160  0.99545595  1
  H+  H156  1  0.57329179  0.16536430  0.08842613  1
  H+  H157  1  0.61555860  0.39681663  0.33368602  1
  H+  H158  1  0.29778147  0.13898440  -0.00628164  1
  H+  H159  1  0.31928240  0.41596872  0.63114395  1
  H+  H160  1  0.37154048  0.60705834  0.99208715  1
  H+  H161  1  0.29258706  0.71335252  0.03251076  1
  H+  H162  1  0.39641281  0.27817980  0.98249416  1
  H+  H163  1  0.71149874  0.10801966  0.51771094  1
  H+  H164  1  0.39192759  0.14824338  0.00143914  1
  H+  H165  1  0.36345071  0.89811205  0.69319102  1
  H+  H166  1  0.79577181  0.63265351  0.00101417  1
  H+  H167  1  0.24315444  0.60642804  0.99136061  1
  H+  H168  1  0.52265486  0.65968882  0.67924241  1
  H+  H169  1  0.89499218  0.62975138  0.83003596  1
  H+  H170  1  0.60661963  0.64964729  -0.03152486  1
  H+  H171  1  0.32266264  0.83503982  0.31050873  1
  H+  H172  1  0.87197871  0.95520145  0.68855049  1
  H+  H173  1  0.64920719  0.99323167  0.34986619  1
  H+  H174  1  0.44291826  0.08921406  0.90939441  1
  H+  H175  1  0.86429220  0.47197118  0.49158072  1
  H+  H176  1  0.11303066  0.21627968  0.34138719  1
  H+  H177  1  0.22688907  0.35903443  0.83443390  1
  H+  H178  1  0.26594438  0.12818886  0.14303698  1
  H+  H179  1  0.60945519  0.00973025  0.67090975  1
  H+  H180  1  0.52416737  0.38878520  0.80763274  1
  H+  H181  1  0.11580828  0.73960870  0.82111216  1
  H+  H182  1  0.52563228  0.88535615  0.16502687  1
  H+  H183  1  0.08043800  0.15607641  0.89336105  1
  H+  H184  1  0.40486535  0.86287444  -0.02894958  1
  H+  H185  1  0.88453454  0.75069745  0.83471218  1
  H+  H186  1  0.87943742  0.36165782  0.83905051  1
  H+  H187  1  0.32645633  0.43496929  0.15393023  1
  H+  H188  1  0.25393554  0.62170478  0.32125735  1
  H+  H189  1  0.11885739  0.76405465  0.31953498  1
  H+  H190  1  0.75488815  0.66910043  0.83926970  1
  H+  H191  1  0.39396053  -0.00958407  0.98673906  1
  H+  H192  1  0.88496900  0.01868966  0.32862815  1
  H+  H193  1  0.63527512  0.76760959  0.53266373  1
  H+  H194  1  0.66931696  0.83334068  0.24162275  1
  H+  H195  1  0.42085503  0.55391769  0.18833145  1
  H+  H196  1  0.63340314  0.27118197  0.82890160  1
  H+  H197  1  0.46958712  0.11713190  0.15631871  1
  H+  H198  1  1.02090120  0.63519733  0.67544298  1
  H+  H199  1  0.12374541  0.66584426  0.15361614  1
  H+  H200  1  0.55054959  0.20756304  0.34980747  1
  H+  H201  1  0.15270342  0.59343557  -0.02725707  1
  H+  H202  1  0.63303226  0.85543090  0.52192962  1
  H+  H203  1  0.46218363  0.05872099  0.37520463  1
  H+  H204  1  0.87625721  0.60201052  0.50110731  1
  H+  H205  1  1.04223240  0.54787727  1.03951024  1
  H+  H206  1  0.03790743  0.13615176  0.49772819  1
  H+  H207  1  0.85047571  0.73059547  0.67504657  1
  H+  H208  1  0.41438470  0.48018550  0.49402607  1
  H+  H209  1  0.36744786  -0.00547260  0.84347441  1
  H+  H210  1  -0.00718139  0.37091200  0.48823037  1
  H+  H211  1  1.01094134  0.40138620  0.80515343  1
  H+  H212  1  0.09865067  0.24593937  0.65539377  1
  H+  H213  1  0.88741840  0.35576301  0.98657608  1
  H+  H214  1  0.40680434  0.08538391  0.33297072  1
  H+  H215  1  0.61315934  0.96345160  0.51466796  1
  H+  H216  1  0.86234030  0.22409732  0.00109083  1
  H+  H217  1  0.36324754  0.65073467  0.69929957  1
  H+  H218  1  0.89079596  0.52523115  0.64061197  1
  H+  H219  1  1.01237948  0.63238309  0.47667961  1
  H+  H220  1  0.34826580  0.21924316  0.63125133  1
  H+  H221  1  0.61183533  0.47472231  0.65230822  1
  H+  H222  1  0.10416700  0.88610345  0.67528527  1
  H+  H223  1  0.72832883  0.87113084  0.67802955  1
  H+  H224  1  0.13346103  0.79533681  0.16746962  1
  H+  H225  1  0.92497921  0.89876774  0.49355643  1
  H+  H226  1  0.47186451  0.82335489  0.31714952  1
  H+  H227  1  0.77450794  0.38932743  0.14790629  1
  H+  H228  1  0.35282394  0.42181264  0.39372998  1
  H+  H229  1  0.02782330  0.89179721  0.83263640  1
  H+  H230  1  0.12520380  0.51041570  0.30605008  1
  H+  H231  1  0.39963625  0.77371779  0.98647703  1
  H+  H232  1  0.37655827  0.10614080  0.15024664  1
  H+  H233  1  0.27228725  0.64247836  0.70456122  1
  H+  H234  1  0.74646736  0.57312735  0.67379772  1
  H+  H235  1  0.14101362  0.10283272  0.50030814  1
  H+  H236  1  0.01030049  0.11395567  0.15583518  1
  H+  H237  1  0.48272093  0.36740053  0.98566956  1
  H+  H238  1  0.50553524  0.64153469  0.18330002  1
  H+  H239  1  0.57904436  0.68117188  0.74573672  1
  H+  H240  1  0.74035841  0.56223854  0.35069107  1
  H+  H241  1  0.12125678  0.50789461  0.48797045  1
  H+  H242  1  0.90619188  0.90226900  0.18493997  1
  H+  H243  1  0.24156268  0.88040385  -0.02148680  1
  H+  H244  1  0.07556142  0.65796760  0.38497138  1
  H+  H245  1  0.23692336  0.62068058  0.53477281  1
  H+  H246  1  0.10963046  0.43978761  0.15919564  1
  H+  H247  1  0.87442592  0.38756764  0.48988981  1
  H+  H248  1  0.85098550  0.16602873  0.64655813  1
  H+  H249  1  0.65190547  0.86816008  0.33888804  1
  H+  H250  1  0.38902108  0.61568471  0.84849241  1
  H+  H251  1  0.15203719  0.87668305  0.98938635  1
  H+  H252  1  0.74488762  0.05862846  0.55624310  1
  H+  H253  1  0.15829433  0.57074898  0.13765184  1
  H+  H254  1  0.46365719  0.11811417  0.65939249  1
  H+  H255  1  0.32231738  0.73910901  0.30123919  1
  H+  H256  1  0.07801854  0.91300534  0.76795784  1
  H+  H257  1  0.61593292  0.88859844  0.16558298  1
  H+  H258  1  0.33349567  0.16874336  0.08725974  1
  H+  H259  1  0.35093235  0.36062709  0.15713603  1
  H+  H260  1  0.61816357  0.25498735  0.98110126  1
  H+  H261  1  0.73565609  0.61714784  0.50115493  1
  H+  H262  1  0.33927678  0.67714932  0.08870321  1
  H+  H263  1  0.89417153  0.87490045  0.85130120  1
  H+  H264  1  0.34504280  0.95225400  0.35661359  1
  H+  H265  1  0.60540798  0.23085649  0.66986632  1
  H+  H266  1  0.49495681  0.61133625  0.52923185  1
  H+  H267  1  0.16995254  0.85458379  0.60085623  1
  H+  H268  1  0.64092835  0.77427517  0.34363298  1
  H+  H269  1  0.40375850  0.59548346  0.50656178  1
  H+  H270  1  0.37914040  0.52257147  0.99619435  1
  H+  H271  1  0.10726469  0.62975506  0.32404311  1
  H+  H272  1  0.58551861  0.92018063  0.06264696  1
  H+  H273  1  0.97563023  0.10582080  0.32613286  1
  H+  H274  1  0.85484324  0.62376003  0.15810462  1
  H+  H275  1  0.89131684  0.52203383  0.15907184  1
  H+  H276  1  0.89864307  0.26514001  0.65891153  1
  H+  H277  1  0.11423794  0.01183347  0.65875203  1
  H+  H278  1  0.60251381  0.37179760  0.48857970  1
  H+  H279  1  0.98088372  0.60572673  0.31578421  1
  H+  H280  1  0.71302998  0.11576558  0.98784165  1
  H+  H281  1  0.40201974  0.87311038  0.15832079  1
  H+  H282  1  0.22113250  0.11068949  0.32935143  1
  H+  H283  1  0.63827032  0.36902348  0.16248316  1
  H+  H284  1  0.10852745  0.12502616  0.33830491  1
  H+  H285  1  0.51517316  0.89402025  0.68080308  1
  H+  H286  1  0.39469341  0.11723724  0.86116930  1
  H+  H287  1  0.85790446  0.73737627  0.52556556  1
  H+  H288  1  0.90444139  0.13142529  0.87321607  1
  H+  H289  1  0.87382066  0.26464484  0.16677367  1
  H+  H290  1  0.17650694  0.08158173  0.93016981  1
  H+  H291  1  0.30712434  0.14306197  0.72559604  1
  H+  H292  1  0.23814684  0.36166844  0.66966042  1
  H+  H293  1  0.82787161  0.90539374  0.75046200  1
  H+  H294  1  0.20592517  0.60572033  0.62438356  1
  H+  H295  1  0.90991848  0.08140468  0.23108398  1
  H+  H296  1  0.50869502  0.84075300  0.82671561  1
  H+  H297  1  0.16872082  0.83917928  0.89684639  1
  H+  H298  1  0.95016529  0.80754685  0.57198213  1
  H+  H299  1  0.61781495  0.46662924  0.48866237  1
  H+  H300  1  0.40719157  0.83527478  0.62179519  1
  H+  H301  1  0.26846894  0.10286932  0.49124084  1
  H+  H302  1  0.84204770  0.17604742  0.43221089  1
  H+  H303  1  0.32692864  0.39926749  0.05824215  1
  H+  H304  1  0.37840116  0.27424714  0.32805639  1
  H+  H305  1  0.46099455  0.97356995  0.09827258  1
  H+  H306  1  0.38223505  0.78237423  0.68486632  1
  H+  H307  1  0.56142579  0.90989030  0.35765321  1
  H+  H308  1  0.32828350  0.14868213  0.75604656  1
  H+  H309  1  0.69867102  0.59274218  0.92443163  1
  H+  H310  1  0.58441356  0.50753168  0.33095490  1
  H+  H311  1  0.57745946  0.40828885  0.39724122  1
  H+  H312  1  0.33843072  0.61594463  0.44548762  1
  H+  H313  1  0.82913013  0.90810321  0.10601220  1
  H+  H314  1  0.16775286  0.33649436  0.54887899  1
  H+  H315  1  0.71378173  0.71712458  0.87555295  1
  H+  H316  1  0.67344937  0.34253664  0.22016142  1
  H+  H317  1  0.97359876  0.58969311  0.98196850  1
  H+  H318  1  0.97172621  0.96098809  0.23392941  1
  H+  H319  1  0.08063179  0.15378772  0.06184432  1
  H+  H320  1  0.46384303  0.03069621  0.25603205  1
  H+  H321  1  0.83336891  0.65840549  0.09708399  1
  H+  H322  1  0.41106380  0.06264447  0.56709256  1
  H+  H323  1  0.91796955  0.58662081  0.55996610  1
  H+  H324  1  0.52256213  0.13375474  0.82498889  1
  H+  H325  1  0.61165273  0.90382641  0.68009883  1
  H+  H326  1  0.12390221  0.38801891  0.47405805  1
  H+  H327  1  0.67146638  0.84464495  0.61624332  1
  H+  H328  1  0.91122106  0.06028190  0.94131376  1
  H+  H329  1  0.50062373  0.66039988  0.02624670  1
  H+  H330  1  0.08021214  0.39675521  0.09356025  1
  H+  H331  1  0.08056182  0.67167216  0.75514654  1
  H+  H332  1  0.08379792  0.15540301  0.43318860  1
  H+  H333  1  0.64658688  0.29444498  0.31605125  1
  H+  H334  1  0.36486590  0.66383226  0.45037874  1
  H+  H335  1  0.85515357  0.14002503  0.79536951  1
  H+  H336  1  0.65749801  0.32821098  0.88829728  1
  H+  H337  1  0.57864802  0.68479935  0.10931572  1
  H+  H338  1  0.41954940  0.57997427  0.90193682  1
  H+  H339  1  0.91999373  0.57617984  0.22079184  1
  H+  H340  1  0.89428978  0.40023733  0.64356399  1
  H+  H341  1  0.66107312  0.32705613  0.56083357  1
  H+  H342  1  0.81028815  0.76954354  0.48255281  1
  H+  H343  1  0.67411794  0.08622124  0.26730747  1
  H+  H344  1  0.09185056  0.41672725  0.41309783  1
  H+  H345  1  0.41277132  0.32403685  0.22685093  1
  H+  H346  1  0.07749709  0.64271870  0.05984214  1
  H+  H347  1  0.22307236  0.58059513  0.88760368  1
  H+  H348  1  0.02619275  0.38323035  -0.00108295  1
  H+  H349  1  0.83063430  0.18635509  0.74438479  1
  H+  H350  1  0.86141798  0.47530623  0.81942441  1
  H+  H351  1  0.58074692  0.41525019  0.09204409  1
  H+  H352  1  0.32939998  0.42521078  0.76112439  1
  H+  H353  1  0.57289799  0.17012018  0.72967104  1
  H+  H354  1  0.96947928  0.85543281  0.53630222  1
  H+  H355  1  0.88004132  0.72609445  0.00904919  1
  H+  H356  1  0.33538671  0.93436078  0.77672257  1
  H+  H357  1  0.64341021  0.62202449  0.16043051  1
  H+  H358  1  0.17109482  0.33391554  0.89502244  1
  H+  H359  1  0.91055828  0.32853954  0.25927596  1
  H+  H360  1  0.42023116  0.58844917  0.61260227  1
  H+  H361  1  0.42597044  0.34733111  0.88937313  1
  H+  H362  1  0.43375618  0.60483180  0.27947005  1
  H+  H363  1  0.35794466  0.92232977  0.03815787  1
  H+  H364  1  0.16602467  0.31502264  0.26945577  1
  H+  H365  1  0.32038391  0.88935098  0.43993429  1
  H+  H366  1  0.33222305  0.68018687  0.80094793  1
  H+  H367  1  0.13420295  0.52249926  0.65972926  1
  H+  H368  1  0.87640069  0.71649664  0.42700395  1
  H+  H369  1  0.61322149  0.20617718  0.50072324  1
  H+  H370  1  0.49217230  0.07847429  0.25892851  1
  H+  H371  1  0.57302737  0.09671686  0.42947167  1
  H+  H372  1  0.59466938  0.66279452  0.47160282  1
  H+  H373  1  0.36121233  0.81482930  0.24291667  1
  H+  H374  1  0.82692613  0.40775785  0.05311217  1
  H+  H375  1  0.59109590  0.91685185  0.45132776  1
  H+  H376  1  0.59632448  0.63647102  0.36472189  1
  H+  H377  1  0.65977969  0.08270954  0.61111948  1
  H+  H378  1  0.91948974  0.58964077  0.88709532  1
  H+  H379  1  0.85267547  0.97006401  0.83375368  1
  H+  H380  1  0.10447212  0.33719397  0.64928686  1
  H+  H381  1  0.95400263  0.35324007  0.55523244  1
  H+  H382  1  0.15819788  0.57712985  0.24890958  1
  H+  H383  1  0.86208298  0.71896861  0.76814654  1
  O2-  O384  1  0.07115126  0.13780814  0.14193184  1
  O2-  O385  1  0.09408993  0.16315306  0.47825604  1
  O2-  O386  1  0.08149486  0.16241026  0.84926655  1
  O2-  O387  1  0.07456925  0.38482683  0.13892066  1
  O2-  O388  1  0.09244254  0.41791226  0.45866161  1
  O2-  O389  1  0.05716611  0.44494171  0.77977038  1
  O2-  O390  1  0.08664906  0.68510535  0.13405427  1
  O2-  O391  1  0.07133513  0.66061668  0.45927650  1
  O2-  O392  1  0.08225763  0.67834949  0.80564970  1
  O2-  O393  1  0.11055556  0.96775884  0.15440470  1
  O2-  O394  1  0.12434969  1.00733405  0.45120611  1
  O2-  O395  1  0.08635620  0.91705068  0.81389904  1
  O2-  O396  1  0.32701412  0.16676487  0.13285887  1
  O2-  O397  1  0.33104740  0.14322820  0.48448459  1
  O2-  O398  1  0.34534448  0.16703483  0.86523157  1
  O2-  O399  1  0.30934883  0.37787408  0.13871494  1
  O2-  O400  1  0.41678897  0.44472695  0.46029060  1
  O2-  O401  1  0.33409924  0.42194234  0.80531117  1
  O2-  O402  1  0.34433750  0.67931188  0.13922968  1
  O2-  O403  1  0.28948313  0.65122535  0.56106431  1
  O2-  O404  1  0.32499259  0.66067796  0.84419207  1
  O2-  O405  1  0.40148185  0.94498454  0.11216282  1
  O2-  O406  1  0.32196516  0.89927433  0.48437989  1
  O2-  O407  1  0.33087110  0.93277793  0.82404581  1
  O2-  O408  1  0.58184036  0.16850039  0.13309443  1
  O2-  O409  1  0.59089132  0.14361205  0.49833865  1
  O2-  O410  1  0.57986297  0.16385039  0.80447136  1
  O2-  O411  1  0.58166348  0.42110498  0.13762961  1
  O2-  O412  1  0.57868431  0.40765702  0.47228170  1
  O2-  O413  1  0.58267783  0.41486788  0.79002427  1
  O2-  O414  1  0.59687362  0.67621512  0.15213906  1
  O2-  O415  1  0.58939884  0.66302868  0.51654513  1
  O2-  O416  1  0.57388943  0.66623505  0.80667112  1
  O2-  O417  1  0.58546824  0.91778335  0.14894175  1
  O2-  O418  1  0.57817618  0.90591067  0.49540554  1
  O2-  O419  1  0.62214046  0.90802270  0.81872462  1
  O2-  O420  1  0.82720582  0.16303664  0.14250830  1
  O2-  O421  1  0.83873745  0.18036807  0.47719909  1
  O2-  O422  1  0.82508359  0.17244178  0.78908260  1
  O2-  O423  1  0.83495195  0.41750139  0.13232112  1
  O2-  O424  1  0.83510276  0.41036493  0.47917562  1
  O2-  O425  1  0.83312882  0.41351984  0.81054008  1
  O2-  O426  1  0.82231366  0.65173489  0.14230292  1
  O2-  O427  1  0.82136779  0.71995016  0.48893870  1
  O2-  O428  1  0.85314802  0.69577352  0.81059305  1
  O2-  O429  1  0.83076836  0.91402776  0.15184429  1
  O2-  O430  1  0.81054374  0.86121406  0.47699796  1
  O2-  O431  1  0.83238525  0.91004293  0.82283617  1
  O2-  O432  1  0.15576639  0.05670849  0.17855701  1
  O2-  O433  1  0.16207567  0.06115110  0.50480534  1
  O2-  O434  1  0.17196933  0.07832104  0.85376407  1
  O2-  O435  1  0.15078494  0.29744239  0.18995192  1
  O2-  O436  1  0.17192050  0.33862311  0.50434315  1
  O2-  O437  1  0.16746399  0.32564016  0.85036455  1
  O2-  O438  1  0.18506774  0.60970236  0.17174404  1
  O2-  O439  1  0.13414023  0.56259960  0.51097139  1
  O2-  O440  1  0.23998204  0.58235909  0.84405885  1
  O2-  O441  1  0.16406340  0.84795274  0.19245118  1
  O2-  O442  1  0.14928232  0.83315572  0.51853539  1
  O2-  O443  1  0.17000049  0.83826013  0.85013941  1
  O2-  O444  1  0.40773122  0.07612891  0.16285734  1
  O2-  O445  1  0.41805176  0.06468261  0.52204342  1
  O2-  O446  1  0.42602619  0.08271532  0.86441618  1
  O2-  O447  1  0.41258367  0.32670897  0.18128038  1
  O2-  O448  1  0.41327501  0.37115413  0.49228114  1
  O2-  O449  1  0.42156530  0.34039960  0.84429180  1
  O2-  O450  1  0.44415813  0.61368120  0.19978915  1
  O2-  O451  1  0.42863432  0.57428085  0.53679262  1
  O2-  O452  1  0.41967822  0.58269147  0.85652334  1
  O2-  O453  1  0.41498354  0.83494151  0.18454453  1
  O2-  O454  1  0.40630387  0.82570130  0.54243722  1
  O2-  O455  1  0.44627519  0.80357496  0.83426307  1
  O2-  O456  1  0.66412483  0.08577321  0.18545230  1
  O2-  O457  1  0.69172143  0.06071904  0.54711965  1
  O2-  O458  1  0.66513215  0.08305721  0.84227518  1
  O2-  O459  1  0.66979675  0.33895165  0.17493167  1
  O2-  O460  1  0.65824607  0.32280417  0.51544125  1
  O2-  O461  1  0.66131328  0.33191528  0.84327825  1
  O2-  O462  1  0.67106398  0.58540722  0.17024826  1
  O2-  O463  1  0.69241695  0.56125330  0.51930112  1
  O2-  O464  1  0.70331821  0.65867205  0.86385932  1
  O2-  O465  1  0.66850629  0.83491828  0.19623727  1
  O2-  O466  1  0.66771195  0.83150808  0.54023214  1
  O2-  O467  1  0.69841783  0.81254672  0.87725001  1
  O2-  O468  1  0.90935727  0.08029784  0.18557672  1
  O2-  O469  1  0.85561323  0.08265746  0.55668326  1
  O2-  O470  1  0.91196534  0.09336813  0.84552967  1
  O2-  O471  1  0.90618519  0.32641882  0.18072467  1
  O2-  O472  1  0.93718727  0.34703871  0.51104051  1
  O2-  O473  1  0.90889718  0.32944620  0.85359575  1
  O2-  O474  1  0.91992884  0.58202452  0.17569823  1
  O2-  O475  1  0.91257986  0.57888253  0.51391027  1
  O2-  O476  1  0.92423619  0.59693517  0.84198031  1
  O2-  O477  1  0.95596725  0.90874856  0.21087762  1
  O2-  O478  1  0.97857988  0.89712246  0.49854567  1
  O2-  O479  1  0.92909088  0.84796124  0.86529291  1
  O2-  O480  1  0.16471193  0.07143954  0.30923003  1
  O2-  O481  1  0.13336451  0.06950330  0.64140026  1
  O2-  O482  1  0.18189287  0.08590905  0.97576981  1
  O2-  O483  1  0.16588711  0.32080306  0.31454233  1
  O2-  O484  1  0.13691970  0.30620973  0.64277691  1
  O2-  O485  1  0.16358985  0.32173815  0.97736852  1
  O2-  O486  1  0.15203566  0.57236929  0.29381522  1
  O2-  O487  1  0.17120087  0.58615730  0.66184287  1
  O2-  O488  1  0.18852501  0.56686244  0.96685546  1
  O2-  O489  1  0.14867730  0.82692969  0.30911557  1
  O2-  O490  1  0.17007688  0.86195238  0.64556968  1
  O2-  O491  1  0.17940769  0.84817960  0.96817441  1
  O2-  O492  1  0.40227484  0.04966588  0.36745819  1
  O2-  O493  1  0.40420082  0.07736917  0.64513889  1
  O2-  O494  1  0.45500976  0.10063401  0.98282055  1
  O2-  O495  1  0.41307666  0.32907073  0.30548766  1
  O2-  O496  1  0.40626577  0.32214788  0.66286162  1
  O2-  O497  1  0.42268461  0.33970452  0.96983606  1
  O2-  O498  1  0.42155580  0.59758017  0.32394109  1
  O2-  O499  1  0.42085019  0.59746402  0.65783252  1
  O2-  O500  1  0.40840085  0.58306726  0.98138285  1
  O2-  O501  1  0.31856659  0.79020419  0.27875743  1
  O2-  O502  1  0.41181703  0.84152468  0.66695753  1
  O2-  O503  1  0.43618918  0.83065826  0.96634929  1
  O2-  O504  1  0.67947136  0.08426999  0.31219168  1
  O2-  O505  1  0.64259389  0.08054616  0.65494571  1
  O2-  O506  1  0.65448627  0.08342012  0.97034355  1
  O2-  O507  1  0.68101396  0.35296790  0.30039254  1
  O2-  O508  1  0.67011152  0.33328991  0.64032741  1
  O2-  O509  1  0.65297928  0.31683255  0.97010713  1
  O2-  O510  1  0.58484391  0.56012978  0.31577866  1
  O2-  O511  1  0.65874403  0.58956298  0.56955003  1
  O2-  O512  1  0.69576977  0.56955481  0.96661585  1
  O2-  O513  1  0.67220986  0.83005926  0.32108265  1
  O2-  O514  1  0.66773547  0.84688948  0.66188902  1
  O2-  O515  1  0.67322399  0.83559069  0.98823457  1
  O2-  O516  1  0.91555214  0.07760033  0.31021751  1
  O2-  O517  1  0.95282677  0.06226555  0.65274382  1
  O2-  O518  1  0.91274370  0.07104411  0.98509116  1
  O2-  O519  1  0.91738451  0.32957831  0.30454383  1
  O2-  O520  1  0.97532280  0.36952112  0.63061657  1
  O2-  O521  1  0.92081849  0.32782657  0.97359300  1
  O2-  O522  1  0.91888143  0.57128834  0.30059709  1
  O2-  O523  1  0.91771687  0.58832463  0.63367952  1
  O2-  O524  1  0.91526921  0.57130202  0.96570929  1
  O2-  O525  1  0.92777673  0.84035521  0.32404574  1
  O2-  O526  1  0.88585932  0.78091522  0.70149466  1
  O2-  O527  1  0.92466346  0.83146337  0.98920040  1
  O2-  O528  1  0.08143349  0.15740584  0.01652587  1
  O2-  O529  1  0.07980706  0.15518132  0.35570218  1
  O2-  O530  1  0.03626370  0.12934711  0.67674016  1
  O2-  O531  1  0.08484842  0.40999936  0.01794703  1
  O2-  O532  1  0.08437201  0.41182204  0.33650455  1
  O2-  O533  1  0.05811511  0.40576412  0.65079728  1
  O2-  O534  1  0.06545966  0.60557677  0.02292543  1
  O2-  O535  1  0.07646568  0.65979314  0.33888286  1
  O2-  O536  1  0.07798980  0.66098089  0.69517907  1
  O2-  O537  1  0.09280831  0.92845005  0.02560665  1
  O2-  O538  1  0.08785180  0.91376467  0.34939624  1
  O2-  O539  1  0.06631110  0.90672423  0.69492682  1
  O2-  O540  1  0.35531689  0.17419270  0.01259138  1
  O2-  O541  1  0.30194549  0.18903164  0.37531943  1
  O2-  O542  1  0.31754711  0.15932881  0.61531767  1
  O2-  O543  1  0.33130863  0.41055560  0.01394909  1
  O2-  O544  1  0.33623029  0.41779189  0.35008283  1
  O2-  O545  1  0.30257661  0.40031474  0.67351370  1
  O2-  O546  1  0.32258015  0.68088523  0.02827751  1
  O2-  O547  1  0.31346585  0.66688002  0.33257944  1
  O2-  O548  1  0.33344606  0.67953484  0.71604977  1
  O2-  O549  1  0.35482033  0.92681381  -0.00674813  1
  O2-  O550  1  0.30818866  0.88643777  0.35810070  1
  O2-  O551  1  0.33500560  0.93028856  0.70826938  1
  O2-  O552  1  0.54714958  0.14634437  0.00516950  1
  O2-  O553  1  0.54953396  0.06098811  0.39178555  1
  O2-  O554  1  0.57002817  0.16997360  0.68378458  1
  O2-  O555  1  0.58642041  0.40821532  0.01539865  1
  O2-  O556  1  0.57365668  0.41098686  0.35154984  1
  O2-  O557  1  0.64585151  0.46205288  0.68066154  1
  O2-  O558  1  0.54379442  0.70636044  0.05254534  1
  O2-  O559  1  0.58565788  0.67907448  0.38732222  1
  O2-  O560  1  0.58248181  0.69146145  0.69667746  1
  O2-  O561  1  0.58978190  0.92412830  0.01776707  1
  O2-  O562  1  0.62143836  0.93528833  0.37076256  1
  O2-  O563  1  0.57846823  0.93334340  0.68834973  1
  O2-  O564  1  0.82692446  0.16454928  0.01815241  1
  O2-  O565  1  0.84182075  0.16899248  0.35302191  1
  O2-  O566  1  0.84679755  0.20974809  0.66982857  1
  O2-  O567  1  0.82310864  0.40134351  0.00788688  1
  O2-  O568  1  0.83638682  0.41195823  0.35223621  1
  O2-  O569  1  0.84930579  0.41447465  0.63183803  1
  O2-  O570  1  0.85222089  0.66428182  0.02232348  1
  O2-  O571  1  0.88959963  0.70122252  0.38604078  1
  O2-  O572  1  0.78532579  0.62253115  0.64796546  1
  O2-  O573  1  0.83085360  0.90312238  0.03114933  1
  O2-  O574  1  0.83433050  0.91601598  0.35938432  1
  O2-  O575  1  0.82633979  0.89949825  0.70416612  1
