# generated using pymatgen
data_H2O
_symmetry_space_group_name_H-M   'P 1'
_cell_length_a   17.99868103
_cell_length_b   17.98990676
_cell_length_c   21.98547179
_cell_angle_alpha   89.98825029
_cell_angle_beta   90.01034065
_cell_angle_gamma   120.01184778
_symmetry_Int_Tables_number   1
_chemical_formula_structural   H2O
_chemical_formula_sum   'H384 O192'
_cell_volume   6164.30533737
_cell_formula_units_Z   192
loop_
 _symmetry_equiv_pos_site_id
 _symmetry_equiv_pos_as_xyz
  1  'x, y, z'
loop_
 _atom_type_symbol
 _atom_type_oxidation_number
  H+  1.0
  O2-  -2.0
loop_
 _atom_site_type_symbol
 _atom_site_label
 _atom_site_symmetry_multiplicity
 _atom_site_fract_x
 _atom_site_fract_y
 _atom_site_fract_z
 _atom_site_occupancy
  H+  H0  1  -0.01903551  0.86959261  0.66100916  1
  H+  H1  1  0.92095728  0.83678380  0.59969619  1
  H+  H2  1  0.89119115  0.87246674  0.98468951  1
  H+  H3  1  0.64793463  0.78126543  0.64855546  1
  H+  H4  1  0.85927644  0.14209967  0.99681174  1
  H+  H5  1  0.03701365  0.14233730  0.49790832  1
  H+  H6  1  0.12863496  0.61525087  0.51552241  1
  H+  H7  1  -0.00896936  0.11211896  0.83792819  1
  H+  H8  1  0.12521067  0.48762293  0.67826433  1
  H+  H9  1  0.27982800  0.89349470  0.84035727  1
  H+  H10  1  0.24892879  0.28335759  0.03540040  1
  H+  H11  1  0.09558567  0.88735022  0.33326073  1
  H+  H12  1  0.61137053  0.33437489  0.51882156  1
  H+  H13  1  0.08950663  0.84765130  0.52332501  1
  H+  H14  1  0.40322953  0.11077543  0.66932257  1
  H+  H15  1  0.48498215  1.11008197  0.50993689  1
  H+  H16  1  0.17295744  0.57642128  0.89191270  1
  H+  H17  1  0.23256681  0.60877131  0.35188062  1
  H+  H18  1  0.21932757  0.34093662  0.32168532  1
  H+  H19  1  0.86555373  0.64155021  0.65250488  1
  H+  H20  1  0.67596724  0.25619165  0.17060758  1
  H+  H21  1  0.77120455  0.78413184  0.78129449  1
  H+  H22  1  0.10566488  0.47125555  0.49976030  1
  H+  H23  1  0.37870130  0.32112914  0.32730046  1
  H+  H24  1  0.35625566  0.38033786  0.67891625  1
  H+  H25  1  0.13154061  0.62468121  0.14432837  1
  H+  H26  1  0.91654443  0.09592029  0.92445229  1
  H+  H27  1  0.22889380  0.60706967  -0.01227781  1
  H+  H28  1  0.77652247  0.88127278  0.44336453  1
  H+  H29  1  0.07189442  0.55304596  0.36606968  1
  H+  H30  1  0.74592496  0.87248105  0.98980170  1
  H+  H31  1  0.87072915  0.46710070  0.34250484  1
  H+  H32  1  0.13635641  0.98215976  0.83249410  1
  H+  H33  1  0.39734085  0.11838554  0.86183970  1
  H+  H34  1  0.97862033  0.15727145  0.97442941  1
  H+  H35  1  0.51191892  0.63331712  0.51832109  1
  H+  H36  1  0.58433050  0.61489844  0.31223473  1
  H+  H37  1  0.53522494  0.95841722  0.78776906  1
  H+  H38  1  0.77501038  0.39068941  0.81559178  1
  H+  H39  1  -0.01476788  0.37693251  0.65782075  1
  H+  H40  1  0.60574325  0.12759730  0.14593164  1
  H+  H41  1  0.52166060  0.13534468  0.84368574  1
  H+  H42  1  -0.03188795  0.86404540  0.50920812  1
  H+  H43  1  0.65081464  0.58331146  0.92444270  1
  H+  H44  1  0.39434177  0.26766962  0.66874159  1
  H+  H45  1  0.63577678  0.09801432  0.49596075  1
  H+  H46  1  0.32716415  0.92340139  0.39787469  1
  H+  H47  1  0.11737245  0.10386836  0.32793485  1
  H+  H48  1  0.86699957  0.88734286  0.66376562  1
  H+  H49  1  0.40302125  0.54246903  0.98256498  1
  H+  H50  1  0.87484013  0.39217396  0.65862446  1
  H+  H51  1  0.38755250  0.32961919  0.99370450  1
  H+  H52  1  0.62607601  0.09678913  0.31764232  1
  H+  H53  1  0.83733829  0.15084173  0.25719953  1
  H+  H54  1  0.35655050  0.71244522  0.49523343  1
  H+  H55  1  0.73404931  0.45563375  0.13256820  1
  H+  H56  1  0.74806014  0.38975290  0.48671463  1
  H+  H57  1  0.39846094  0.85565461  0.51243927  1
  H+  H58  1  0.88581158  0.77016907  0.51301523  1
  H+  H59  1  0.74323680  0.12050144  0.98684398  1
  H+  H60  1  0.71974541  0.61410270  0.97814294  1
  H+  H61  1  0.63342498  0.86671535  0.84275491  1
  H+  H62  1  0.89194200  0.85470291  0.83262998  1
  H+  H63  1  0.53349998  0.37641189  0.32972402  1
  H+  H64  1  0.13635769  0.64245588  0.67320195  1
  H+  H65  1  0.13331213  0.35114083  0.83891229  1
  H+  H66  1  0.75114447  0.11256804  0.14441877  1
  H+  H67  1  0.59635422  0.72360123  0.81887544  1
  H+  H68  1  0.49102045  0.10822182  0.66734316  1
  H+  H69  1  0.51799038  0.38309878  0.66767535  1
  H+  H70  1  0.36706976  0.22073990  0.14242942  1
  H+  H71  1  0.99865814  0.88060064  0.33685682  1
  H+  H72  1  0.52795851  0.13261577  0.33730915  1
  H+  H73  1  0.37904006  0.81387075  0.28686531  1
  H+  H74  1  0.37722061  0.59977089  0.50080930  1
  H+  H75  1  0.13815098  0.26325136  0.84030302  1
  H+  H76  1  0.57178456  0.66982079  0.57566314  1
  H+  H77  1  0.38439802  0.86043655  0.84113635  1
  H+  H78  1  0.88415402  0.76768125  0.33113213  1
  H+  H79  1  0.42275048  0.08506477  0.26323806  1
  H+  H80  1  0.58932707  0.70452992  0.31480205  1
  H+  H81  1  0.35616279  0.88988508  0.17340383  1
  H+  H82  1  0.53993396  0.37905502  0.15119947  1
  H+  H83  1  0.13066747  0.73432748  0.68890369  1
  H+  H84  1  0.24761270  0.10406213  0.15279689  1
  H+  H85  1  0.65349340  0.88618031  0.17784540  1
  H+  H86  1  0.14643711  0.11974038  0.50732248  1
  H+  H87  1  0.14158512  0.06744537  0.92723065  1
  H+  H88  1  0.26570766  0.37391736  0.84650349  1
  H+  H89  1  0.60919164  0.38632795  0.82298021  1
  H+  H90  1  0.11741052  0.89351643  0.68013203  1
  H+  H91  1  0.61046635  0.96164298  0.33728983  1
  H+  H92  1  0.90696752  0.77542720  0.83297058  1
  H+  H93  1  0.47170649  0.36554678  0.83532921  1
  H+  H94  1  0.15650542  1.02620575  0.65920900  1
  H+  H95  1  0.13424637  0.75925067  0.16944302  1
  H+  H96  1  0.39728085  0.78787035  0.18507936  1
  H+  H97  1  0.15099459  0.81962437  0.22766213  1
  H+  H98  1  0.41381027  0.91320573  0.01676474  1
  H+  H99  1  0.89900378  0.28794909  0.64974590  1
  H+  H100  1  0.50087038  0.86349261  0.11588283  1
  H+  H101  1  0.21830929  0.04629310  0.89060404  1
  H+  H102  1  0.87964997  0.99469812  0.00021328  1
  H+  H103  1  0.35007081  0.92414201  0.74823496  1
  H+  H104  1  0.64380810  0.51918110  0.32069663  1
  H+  H105  1  0.36967630  0.37434613  0.84526731  1
  H+  H106  1  0.02759034  0.62825984  0.82358901  1
  H+  H107  1  0.13366513  0.85966716  0.83781790  1
  H+  H108  1  0.63727657  0.85446155  0.33526391  1
  H+  H109  1  0.73586485  0.62150006  0.66203287  1
  H+  H110  1  0.02734393  0.38651368  0.82597329  1
  H+  H111  1  0.62790497  0.76827497  0.51338142  1
  H+  H112  1  0.93671235  0.62244819  0.18005085  1
  H+  H113  1  0.64273568  1.01313518  0.64696202  1
  H+  H114  1  0.76069445  0.86799228  0.34867611  1
  H+  H115  1  0.11519719  0.78220283  0.33332590  1
  H+  H116  1  0.37006327  0.98152531  0.84835144  1
  H+  H117  1  0.78705338  0.13790376  0.65988269  1
  H+  H118  1  0.10649458  0.22015147  0.33505470  1
  H+  H119  1  0.87753429  0.85440476  0.33395634  1
  H+  H120  1  0.01500738  0.87493227  -0.00138215  1
  H+  H121  1  1.01927321  0.13048538  0.34644688  1
  H+  H122  1  0.09641962  0.45552478  0.15479191  1
  H+  H123  1  0.76257281  0.39211206  0.15656543  1
  H+  H124  1  0.28193926  0.86188490  0.57589024  1
  H+  H125  1  0.60578984  1.00354375  0.15692232  1
  H+  H126  1  0.15172323  0.28146780  0.50108550  1
  H+  H127  1  0.83555039  0.65003303  0.16024047  1
  H+  H128  1  0.65533585  0.78176194  -0.00556365  1
  H+  H129  1  0.38884889  0.10508115  0.32538996  1
  H+  H130  1  0.01255250  0.09999720  0.68430124  1
  H+  H131  1  0.35568564  0.59798867  0.31562752  1
  H+  H132  1  0.12856439  0.12689776  0.83987719  1
  H+  H133  1  0.11369391  0.84772149  0.98993296  1
  H+  H134  1  0.37086156  0.73227187  0.99604392  1
  H+  H135  1  0.13862996  0.51466986  0.83399366  1
  H+  H136  1  0.62544953  0.26726572  0.98726039  1
  H+  H137  1  0.26941761  0.88841316  0.15810478  1
  H+  H138  1  0.61421119  0.47930731  -0.00080770  1
  H+  H139  1  0.09436596  0.44542734  0.34677108  1
  H+  H140  1  0.27616283  0.04856204  0.37362820  1
  H+  H141  1  0.29140244  0.13351633  0.67858314  1
  H+  H142  1  0.86327987  0.38937340  0.81538192  1
  H+  H143  1  0.77633850  0.63563819  0.33795811  1
  H+  H144  1  0.37532700  0.60474132  0.82409954  1
  H+  H145  1  0.36594792  0.12871290  0.50121222  1
  H+  H146  1  0.63732900  0.27951249  0.83615712  1
  H+  H147  1  0.39471308  0.62622260  0.98561024  1
  H+  H148  1  0.58204293  0.17275153  0.09072465  1
  H+  H149  1  0.88669348  0.64625130  0.81696135  1
  H+  H150  1  0.06005320  0.13480654  0.17277346  1
  H+  H151  1  0.61952113  0.52035939  0.83689647  1
  H+  H152  1  0.26954277  0.62985378  0.81109925  1
  H+  H153  1  0.91315002  0.34103591  0.89375620  1
  H+  H154  1  0.44570365  0.59463910  0.16370182  1
  H+  H155  1  0.03791331  0.03547523  0.71220175  1
  H+  H156  1  0.15232488  0.01258580  0.15506417  1
  H+  H157  1  0.16814073  0.84252179  0.74262332  1
  H+  H158  1  0.50970945  0.63415366  0.81125285  1
  H+  H159  1  0.62113649  0.21812943  0.33662175  1
  H+  H160  1  0.07989371  0.65142938  0.05481159  1
  H+  H161  1  0.31846404  0.13446318  0.40966953  1
  H+  H162  1  0.87527345  0.60550421  0.52610457  1
  H+  H163  1  0.07440783  0.31626695  0.98972865  1
  H+  H164  1  0.15460330  0.11081851  0.66263397  1
  H+  H165  1  0.48746669  0.35972300  0.98622330  1
  H+  H166  1  0.88652240  1.02354584  0.65840682  1
  H+  H167  1  0.88270752  0.09438556  0.32106131  1
  H+  H168  1  0.33445242  0.83723181  0.33864722  1
  H+  H169  1  0.11136954  0.98343446  0.49618254  1
  H+  H170  1  0.64995979  0.02050397  0.97606555  1
  H+  H171  1  0.01424626  0.35280505  0.34846487  1
  H+  H172  1  0.47130385  1.06873985  0.01709232  1
  H+  H173  1  0.64717587  0.10362998  0.64505113  1
  H+  H174  1  0.37648736  0.65630003  0.15371749  1
  H+  H175  1  0.87765596  0.14964661  0.81563844  1
  H+  H176  1  0.10551505  0.87166460  0.15274047  1
  H+  H177  1  0.00470115  0.38323686  0.00356591  1
  H+  H178  1  0.60028884  0.49019537  0.48935771  1
  H+  H179  1  0.24680377  0.09907345  -0.00605483  1
  H+  H180  1  0.35537240  0.71843885  0.82023332  1
  H+  H181  1  0.88277709  0.78972441  0.17397630  1
  H+  H182  1  0.11629900  0.75145713  -0.01300930  1
  H+  H183  1  0.75604895  0.38156142  0.99514695  1
  H+  H184  1  0.13589850  0.28338535  0.67619133  1
  H+  H185  1  0.03814024  0.89294695  0.82587126  1
  H+  H186  1  0.44493559  0.60021650  0.30298306  1
  H+  H187  1  0.24737282  0.54075514  0.17048525  1
  H+  H188  1  0.73842950  0.87132743  0.64881702  1
  H+  H189  1  0.65107118  0.35319118  0.31785307  1
  H+  H190  1  0.65182196  0.34766627  0.67521985  1
  H+  H191  1  0.87562357  0.90625607  0.15855640  1
  H+  H192  1  0.09750814  -0.01312885  0.33218631  1
  H+  H193  1  0.87777981  0.52268770  0.16878940  1
  H+  H194  1  0.38692056  0.35465833  0.16976345  1
  H+  H195  1  0.14876451  0.36893805  0.50393276  1
  H+  H196  1  0.10821780  1.01071029  -0.01256161  1
  H+  H197  1  0.49067757  0.86222000  0.97816582  1
  H+  H198  1  0.66999754  0.58062669  0.26354566  1
  H+  H199  1  0.73948257  0.35432330  0.32802889  1
  H+  H200  1  0.87557921  0.51383186  0.98515975  1
  H+  H201  1  0.52388729  0.87204406  0.50282257  1
  H+  H202  1  0.11764748  0.35741944  0.16899792  1
  H+  H203  1  1.02460536  0.88644529  0.15678976  1
  H+  H204  1  0.61538216  0.47490241  0.15400135  1
  H+  H205  1  0.89742494  1.03224451  0.82965109  1
  H+  H206  1  0.92476748  1.04500554  0.17442152  1
  H+  H207  1  0.48339980  0.11831298  0.16818991  1
  H+  H208  1  0.46792237  0.35829892  0.50963802  1
  H+  H209  1  0.60891682  0.41606444  0.63748337  1
  H+  H210  1  0.63894398  0.22523562  0.67194421  1
  H+  H211  1  0.83847296  0.20023325  0.15161424  1
  H+  H212  1  0.61650993  0.60764905  0.83387751  1
  H+  H213  1  0.78832556  0.14867703  0.81694704  1
  H+  H214  1  0.71228666  0.09414424  0.30402780  1
  H+  H215  1  0.89971631  0.11915475  0.65961768  1
  H+  H216  1  0.13871101  0.60320889  -0.01517338  1
  H+  H217  1  0.89105067  0.60984858  -0.01490876  1
  H+  H218  1  0.38709786  0.51528094  0.49578377  1
  H+  H219  1  0.21703021  0.61196648  0.51109707  1
  H+  H220  1  0.74607146  0.36252911  0.65793343  1
  H+  H221  1  0.13577798  0.68750885  0.37074390  1
  H+  H222  1  0.46738047  0.84967838  0.83592082  1
  H+  H223  1  0.36352495  0.22090360  0.83228785  1
  H+  H224  1  0.64597394  0.12495949  0.83563232  1
  H+  H225  1  0.39469289  0.98276876  0.48957190  1
  H+  H226  1  0.29076811  0.37355672  0.00340452  1
  H+  H227  1  0.84298293  0.42698821  0.71542457  1
  H+  H228  1  0.03670991  0.60712619  0.15465770  1
  H+  H229  1  0.34914987  0.97574436  0.33536939  1
  H+  H230  1  0.37777071  -0.02548468  0.68451327  1
  H+  H231  1  0.74652583  0.84484986  0.81545377  1
  H+  H232  1  0.86556473  0.63622274  0.33987070  1
  H+  H233  1  0.21820916  0.36259198  0.16867617  1
  H+  H234  1  0.37414806  0.13662559  0.14774479  1
  H+  H235  1  0.08250244  0.71936729  0.51559344  1
  H+  H236  1  0.65132901  1.03961467  0.82916778  1
  H+  H237  1  0.12143167  0.39628315  0.67820890  1
  H+  H238  1  0.15208545  0.11325637  0.16477672  1
  H+  H239  1  0.41530541  0.81821098  0.57385018  1
  H+  H240  1  0.20086177  0.09251137  0.32654321  1
  H+  H241  1  0.25896996  0.27137979  0.38107549  1
  H+  H242  1  0.12162145  0.22414848  0.01700941  1
  H+  H243  1  0.71108197  0.97078842  0.21193380  1
  H+  H244  1  0.13512417  0.76790102  0.83771392  1
  H+  H245  1  0.70900832  0.61849664  0.16397841  1
  H+  H246  1  0.88773218  0.74669882  0.00405118  1
  H+  H247  1  0.62337371  0.64822134  0.66720187  1
  H+  H248  1  0.00728403  0.62382537  0.51050235  1
  H+  H249  1  0.58411182  0.70081580  0.16304116  1
  H+  H250  1  0.26134086  0.81616676  0.56528171  1
  H+  H251  1  0.20291696  0.86989079  0.32692377  1
  H+  H252  1  0.87394996  0.26520637  0.46589234  1
  H+  H253  1  0.46999391  0.60603217  0.65454914  1
  H+  H254  1  0.76884331  0.11328029  0.48060840  1
  H+  H255  1  0.01631026  0.62006184  -0.00373496  1
  H+  H256  1  0.13514335  0.35330742  0.32628270  1
  H+  H257  1  0.88642025  0.34379438  0.34207689  1
  H+  H258  1  0.87174857  0.73279338  0.66372453  1
  H+  H259  1  0.87145056  0.36529811  0.99001140  1
  H+  H260  1  0.63567619  0.89246252  0.98879485  1
  H+  H261  1  0.61760168  0.64384502  0.00440664  1
  H+  H262  1  -0.07011781  0.34208669  0.17313061  1
  H+  H263  1  0.88546194  1.00944844  0.33965026  1
  H+  H264  1  0.89137422  0.52090634  0.82798016  1
  H+  H265  1  0.36267302  0.37937643  0.49375854  1
  H+  H266  1  0.90245585  0.11292356  0.50376132  1
  H+  H267  1  0.64236286  0.53568745  0.66764562  1
  H+  H268  1  0.38593014  0.26311605  0.51108001  1
  H+  H269  1  0.62796458  0.86535456  0.50184583  1
  H+  H270  1  0.98304895  0.61982141  0.33593319  1
  H+  H271  1  0.24440062  0.64571575  0.65439492  1
  H+  H272  1  0.61547341  0.21285906  0.49346398  1
  H+  H273  1  0.40284261  0.25013597  0.31441586  1
  H+  H274  1  0.22867842  0.36743416  0.67407277  1
  H+  H275  1  0.79841573  0.92600786  0.15877755  1
  H+  H276  1  0.63679211  0.61774587  0.52068858  1
  H+  H277  1  0.85487692  0.20774736  0.31493267  1
  H+  H278  1  0.38410240  0.57264980  0.22348828  1
  H+  H279  1  0.47066457  0.87909914  0.21058901  1
  H+  H280  1  0.42810296  0.07764421  0.57101161  1
  H+  H281  1  0.61287238  0.59688131  0.17153701  1
  H+  H282  1  -0.04601104  0.35341999  0.47894295  1
  H+  H283  1  0.61919220  0.88168768  0.66230144  1
  H+  H284  1  0.61345371  0.96622006  0.49561870  1
  H+  H285  1  0.87805521  0.51868158  0.62380850  1
  H+  H286  1  0.39253870  0.02948372  0.17159496  1
  H+  H287  1  0.77093136  0.63260709  0.49753940  1
  H+  H288  1  0.95351638  0.08347292  0.24045087  1
  H+  H289  1  0.84364310  0.17559820  0.72032469  1
  H+  H290  1  0.41317747  0.32274972  0.60723520  1
  H+  H291  1  0.09377347  0.16891908  0.43722877  1
  H+  H292  1  0.20402645  0.55888637  0.22430086  1
  H+  H293  1  0.44204441  0.10170850  0.92045720  1
  H+  H294  1  0.35894416  0.46943716  0.67571487  1
  H+  H295  1  0.14976885  0.81861689  0.92521202  1
  H+  H296  1  0.04274670  0.78475371  0.57727378  1
  H+  H297  1  0.89266407  0.28323966  0.83358136  1
  H+  H298  1  0.82494857  0.12676023  0.42240883  1
  H+  H299  1  0.08998894  0.92618750  0.73666753  1
  H+  H300  1  0.67016706  0.58082550  0.57112006  1
  H+  H301  1  0.90769396  0.32133242  0.27621158  1
  H+  H302  1  0.14485756  0.14970653  0.01460262  1
  H+  H303  1  0.15784980  0.33345818  0.23410818  1
  H+  H304  1  0.68195889  0.09262385  0.91973349  1
  H+  H305  1  0.42210529  0.33344537  0.90216243  1
  H+  H306  1  0.08278672  0.40840221  0.44261891  1
  H+  H307  1  0.10754095  0.28702286  0.93217606  1
  H+  H308  1  0.11859497  0.62935910  0.82598599  1
  H+  H309  1  0.40598335  0.56823894  0.59925590  1
  H+  H310  1  0.27644742  0.13026970  0.50026006  1
  H+  H311  1  0.58552840  0.90739819  0.39904800  1
  H+  H312  1  0.67054973  0.07090290  0.55472361  1
  H+  H313  1  0.17239710  0.59770591  0.60182791  1
  H+  H314  1  0.83577223  0.47475599  0.49531227  1
  H+  H315  1  0.31786329  0.36612446  0.40317720  1
  H+  H316  1  0.94122591  0.71952982  0.04472956  1
  H+  H317  1  0.93529137  0.09259312  0.56538331  1
  H+  H318  1  0.27720767  0.38605972  0.48564706  1
  H+  H319  1  0.07574434  0.89997217  0.05933501  1
  H+  H320  1  0.17617227  0.08676989  0.56637000  1
  H+  H321  1  0.07508110  0.92200907  0.43774247  1
  H+  H322  1  0.29807670  0.67023424  0.15143735  1
  H+  H323  1  0.07280301  0.68035946  0.42366151  1
  H+  H324  1  0.31141002  0.38620175  0.10397181  1
  H+  H325  1  0.37745418  0.84200597  0.67712668  1
  H+  H326  1  0.67822942  0.84394911  0.56170486  1
  H+  H327  1  0.09342736  0.65936994  0.74075553  1
  H+  H328  1  0.92033996  0.57627658  0.88972257  1
  H+  H329  1  0.12553005  0.17462691  0.11318159  1
  H+  H330  1  0.81886949  0.15894782  0.05903515  1
  H+  H331  1  0.31373890  0.65044276  0.43711290  1
  H+  H332  1  0.59072795  0.92329957  0.03938758  1
  H+  H333  1  0.53447683  0.65332363  0.00128576  1
  H+  H334  1  0.82778457  0.41285601  0.40121450  1
  H+  H335  1  0.41364449  0.58951215  0.88586465  1
  H+  H336  1  0.34115983  0.46290033  0.15461708  1
  H+  H337  1  0.91838377  0.84369392  0.23485776  1
  H+  H338  1  0.58736808  0.15831155  0.43104099  1
  H+  H339  1  0.24028242  0.86826517  0.69412570  1
  H+  H340  1  0.44809687  0.95771586  0.44701252  1
  H+  H341  1  0.41701981  0.83261459  0.92890011  1
  H+  H342  1  0.58803008  0.92563074  0.75329160  1
  H+  H343  1  0.83405034  0.65940423  0.44074655  1
  H+  H344  1  0.66651538  0.83395351  0.89860555  1
  H+  H345  1  0.38190406  0.94097097  0.07740987  1
  H+  H346  1  0.64517299  0.16564513  0.72217009  1
  H+  H347  1  0.85268790  0.93735728  0.06046442  1
  H+  H348  1  0.70787199  0.30896467  0.23324378  1
  H+  H349  1  0.52291625  0.46255179  0.44542000  1
  H+  H350  1  0.91776111  0.83585857  0.92475904  1
  H+  H351  1  0.87270251  0.27694709  0.98862197  1
  H+  H352  1  0.31939019  0.11817363  0.03937029  1
  H+  H353  1  0.83012595  0.30992762  0.19032592  1
  H+  H354  1  0.66772230  0.33915778  0.89391203  1
  H+  H355  1  0.85995535  0.67845569  0.75784017  1
  H+  H356  1  0.64098831  0.05584961  0.22173524  1
  H+  H357  1  0.31682565  0.70142596  0.34692884  1
  H+  H358  1  0.58998791  0.41439561  0.38854260  1
  H+  H359  1  0.65939017  0.31763183  0.57307741  1
  H+  H360  1  0.56988497  0.65871688  0.09743055  1
  H+  H361  1  0.59146692  0.41988815  0.05909923  1
  H+  H362  1  0.55912850  0.16072908  0.77711715  1
  H+  H363  1  0.58167917  0.67759386  0.71901181  1
  H+  H364  1  0.68084414  0.84505334  0.27597415  1
  H+  H365  1  0.35719084  0.71294576  0.71966530  1
  H+  H366  1  0.35659497  0.46977480  0.83651129  1
  H+  H367  1  0.08829460  0.41599792  0.76703170  1
  H+  H368  1  0.05985992  0.39574733  0.09679385  1
  H+  H369  1  0.83336114  0.68801236  0.09672019  1
  H+  H370  1  0.34537182  0.67847478  0.05687256  1
  H+  H371  1  0.49621920  0.94112124  0.08524388  1
  H+  H372  1  0.41953870  0.31992830  0.22311630  1
  H+  H373  1  0.93173590  0.57919867  0.27379295  1
  H+  H374  1  0.28000702  0.12611452  0.83153441  1
  H+  H375  1  0.63211149  0.36098188  0.98467161  1
  H+  H376  1  0.08413628  0.55469597  0.29626709  1
  H+  H377  1  0.09086060  0.13931296  0.77816992  1
  H+  H378  1  0.34688947  0.16061818  0.74055864  1
  H+  H379  1  0.80885677  0.42324902  0.05627821  1
  H+  H380  1  0.58061109  0.41454457  0.76296157  1
  H+  H381  1  0.10285326  0.45947013  0.00317274  1
  H+  H382  1  0.82220938  0.89941846  0.72209791  1
  H+  H383  1  0.52495822  0.87086839  0.66875173  1
  O2-  O384  1  0.12182675  0.15998269  0.15755342  1
  O2-  O385  1  0.09879406  0.17110514  0.48215889  1
  O2-  O386  1  0.09680338  0.15369411  0.82258906  1
  O2-  O387  1  0.06038608  0.39501248  0.14280953  1
  O2-  O388  1  0.08088810  0.41051291  0.48749780  1
  O2-  O389  1  0.08841557  0.41123231  0.81295581  1
  O2-  O390  1  0.09301105  0.64697816  0.13530230  1
  O2-  O391  1  0.06640644  0.66291470  0.49468402  1
  O2-  O392  1  0.08993485  0.66160824  0.81008711  1
  O2-  O393  1  0.08079269  0.90630507  0.13593400  1
  O2-  O394  1  0.07521582  0.92221546  0.48241744  1
  O2-  O395  1  0.09809627  0.91806680  0.81066813  1
  O2-  O396  1  0.33990398  0.16009329  0.12832550  1
  O2-  O397  1  0.33697136  0.15871128  0.48341978  1
  O2-  O398  1  0.34305479  0.16111969  0.81897978  1
  O2-  O399  1  0.30995085  0.39918684  0.14827856  1
  O2-  O400  1  0.33986960  0.41038624  0.46968509  1
  O2-  O401  1  0.32894981  0.40520298  0.83594387  1
  O2-  O402  1  0.35905696  0.69925372  0.13998296  1
  O2-  O403  1  0.31986945  0.65183675  0.48251928  1
  O2-  O404  1  0.33050362  0.66390691  0.79679510  1
  O2-  O405  1  0.33193491  0.91983846  0.14970890  1
  O2-  O406  1  0.39063708  0.93412281  0.46431512  1
  O2-  O407  1  0.34120582  0.92399583  0.82797096  1
  O2-  O408  1  0.58623486  0.16911568  0.13788603  1
  O2-  O409  1  0.58586102  0.15336424  0.47663269  1
  O2-  O410  1  0.57749259  0.16356121  0.81935167  1
  O2-  O411  1  0.59861188  0.41790939  0.13581269  1
  O2-  O412  1  0.55621079  0.43978055  0.46485651  1
  O2-  O413  1  0.57458318  0.41222281  0.80746213  1
  O2-  O414  1  0.55575587  0.64568197  0.14201054  1
  O2-  O415  1  0.57528862  0.66979607  0.53111092  1
  O2-  O416  1  0.57089002  0.66759776  0.79761207  1
  O2-  O417  1  0.53712697  0.92398157  0.10557163  1
  O2-  O418  1  0.58352585  0.90205531  0.48477647  1
  O2-  O419  1  0.57549807  0.93805320  0.79591044  1
  O2-  O420  1  0.81138390  0.14496761  0.12953985  1
  O2-  O421  1  0.82905874  0.14143944  0.46532948  1
  O2-  O422  1  0.84792188  0.18007831  0.80078471  1
  O2-  O423  1  0.78520200  0.44936509  0.13457162  1
  O2-  O424  1  0.79318612  0.43925622  0.46448040  1
  O2-  O425  1  0.83430841  0.42001859  0.79844591  1
  O2-  O426  1  0.81645428  0.68614458  0.14054679  1
  O2-  O427  1  0.83251489  0.65869013  0.48588388  1
  O2-  O428  1  0.86586528  0.68491456  0.80257683  1
  O2-  O429  1  0.85364984  0.94164180  0.13901919  1
  O2-  O430  1  0.83094516  0.88972206  0.42687206  1
  O2-  O431  1  0.79411872  0.84443564  0.79209624  1
  O2-  O432  1  0.18699454  0.07197393  0.17167273  1
  O2-  O433  1  0.17467395  0.08572888  0.52093937  1
  O2-  O434  1  0.18580505  0.05976397  0.86123218  1
  O2-  O435  1  0.15643200  0.33605656  0.18693893  1
  O2-  O436  1  0.18702545  0.34420343  0.50836439  1
  O2-  O437  1  0.16100764  0.32102905  0.85927770  1
  O2-  O438  1  0.20341431  0.55624886  0.17983279  1
  O2-  O439  1  0.15840266  0.58423139  0.52977566  1
  O2-  O440  1  0.16955987  0.57708768  0.84660553  1
  O2-  O441  1  0.15642439  0.81925821  0.18266151  1
  O2-  O442  1  0.09193634  0.80417564  0.55023247  1
  O2-  O443  1  0.16336474  0.82754898  0.85474906  1
  O2-  O444  1  0.42407455  0.08999943  0.18623031  1
  O2-  O445  1  0.42465070  0.07818565  0.52573863  1
  O2-  O446  1  0.42884830  0.08889548  0.87640241  1
  O2-  O447  1  0.41956406  0.32515811  0.17815617  1
  O2-  O448  1  0.41081279  0.32224962  0.52854576  1
  O2-  O449  1  0.41328388  0.33610160  0.85474623  1
  O2-  O450  1  0.38447484  0.57133382  0.17563447  1
  O2-  O451  1  0.41224031  0.57384570  0.51434570  1
  O2-  O452  1  0.40634436  0.57609044  0.84168026  1
  O2-  O453  1  0.40881737  0.84020238  0.20891253  1
  O2-  O454  1  0.42308006  0.82115760  0.52910162  1
  O2-  O455  1  0.40851186  0.82231647  0.85213389  1
  O2-  O456  1  0.64960082  0.05739679  0.17644677  1
  O2-  O457  1  0.66435526  0.06481454  0.50920551  1
  O2-  O458  1  0.68206138  0.09868205  0.84641334  1
  O2-  O459  1  0.72763694  0.30328254  0.19183380  1
  O2-  O460  1  0.64954236  0.31207711  0.52809498  1
  O2-  O461  1  0.66854111  0.34087803  0.84786298  1
  O2-  O462  1  0.65366871  0.57723562  0.18329287  1
  O2-  O463  1  0.66511945  0.58266084  0.52577428  1
  O2-  O464  1  0.64384018  0.57862202  0.85466784  1
  O2-  O465  1  0.70445370  0.91430147  0.20347526  1
  O2-  O466  1  0.66577996  0.83395568  0.51547094  1
  O2-  O467  1  0.65652570  0.82948198  0.85339340  1
  O2-  O468  1  0.96502239  0.09790322  0.19682492  1
  O2-  O469  1  0.94031028  0.09285608  0.52058731  1
  O2-  O470  1  0.92816244  0.09067543  0.84551382  1
  O2-  O471  1  0.87995899  0.30081435  0.19699045  1
  O2-  O472  1  0.89690445  0.32699394  0.46009275  1
  O2-  O473  1  0.91949393  0.34351956  0.84856122  1
  O2-  O474  1  0.93365066  0.56765856  0.18794991  1
  O2-  O475  1  0.90324621  0.57239491  0.54192473  1
  O2-  O476  1  0.92720312  0.58059918  0.84473649  1
  O2-  O477  1  0.92162760  0.84855045  0.18964688  1
  O2-  O478  1  0.91228336  0.82895741  0.52999495  1
  O2-  O479  1  0.92966935  0.83575660  0.85109151  1
  O2-  O480  1  0.14040127  0.06552928  0.31302066  1
  O2-  O481  1  0.18935520  0.08735493  0.64512745  1
  O2-  O482  1  0.12353187  0.06741929  0.97076142  1
  O2-  O483  1  0.16296865  0.32516122  0.30265040  1
  O2-  O484  1  0.16605077  0.34225305  0.66175221  1
  O2-  O485  1  0.07667903  0.26650387  0.97172343  1
  O2-  O486  1  0.10900273  0.55031306  0.33463052  1
  O2-  O487  1  0.18181899  0.60652962  0.64778108  1
  O2-  O488  1  0.16899877  0.57219757  0.97257374  1
  O2-  O489  1  0.14303910  0.83727674  0.31024133  1
  O2-  O490  1  0.17575753  0.83676428  0.69914111  1
  O2-  O491  1  0.14302243  0.81377336  0.97200019  1
  O2-  O492  1  0.42187641  0.07910386  0.30893494  1
  O2-  O493  1  0.43088033  0.07762547  0.65360576  1
  O2-  O494  1  0.48946055  0.12535541  0.99832447  1
  O2-  O495  1  0.42154636  0.31019931  0.30594326  1
  O2-  O496  1  0.42022490  0.32747032  0.65244215  1
  O2-  O497  1  0.42928448  0.32466432  0.96747856  1
  O2-  O498  1  0.38266242  0.57141010  0.29146774  1
  O2-  O499  1  0.40901495  0.57084855  0.64411028  1
  O2-  O500  1  0.42969487  0.60145137  0.96781084  1
  O2-  O501  1  0.36059353  0.80169552  0.32975244  1
  O2-  O502  1  0.40700465  0.81159413  0.65984604  1
  O2-  O503  1  0.42727349  0.83566731  0.97384892  1
  O2-  O504  1  0.64881414  0.06159504  0.29832831  1
  O2-  O505  1  0.67625976  0.07252600  0.63021802  1
  O2-  O506  1  0.68003161  0.08456403  0.96559041  1
  O2-  O507  1  0.68122715  0.32113038  0.30812965  1
  O2-  O508  1  0.67970207  0.32359582  0.65015399  1
  O2-  O509  1  0.66052091  0.32898344  0.96931974  1
  O2-  O510  1  0.67190359  0.58078268  0.30878048  1
  O2-  O511  1  0.67363699  0.59355779  0.64909257  1
  O2-  O512  1  0.65811366  0.58687411  0.97134358  1
  O2-  O513  1  0.66984526  0.82567489  0.31864397  1
  O2-  O514  1  0.67741710  0.84191606  0.63221286  1
  O2-  O515  1  0.68527752  0.83964951  0.97451632  1
  O2-  O516  1  0.91982664  0.06804713  0.32192019  1
  O2-  O517  1  0.92759790  0.08474952  0.64823425  1
  O2-  O518  1  0.92104690  0.10557541  0.96926836  1
  O2-  O519  1  0.91261344  0.31323527  0.32049905  1
  O2-  O520  1  0.92656381  0.34973623  0.64009168  1
  O2-  O521  1  0.90424386  0.33761303  0.97451447  1
  O2-  O522  1  0.92540759  0.58245160  0.31816927  1
  O2-  O523  1  0.90025351  0.57872185  0.60856866  1
  O2-  O524  1  0.91521666  0.57458718  0.97024420  1
  O2-  O525  1  0.91204610  0.82945627  0.31621480  1
  O2-  O526  1  0.92046779  0.83833727  0.64655577  1
  O2-  O527  1  0.91622522  0.83655656  0.97094154  1
  O2-  O528  1  0.15405913  0.20077180  0.03950914  1
  O2-  O529  1  0.08256808  0.16345533  0.35565534  1
  O2-  O530  1  0.06070584  0.09699221  0.70654061  1
  O2-  O531  1  0.06357631  0.40155163  0.02018452  1
  O2-  O532  1  0.07663766  0.38648094  0.36014418  1
  O2-  O533  1  0.09040041  0.42786051  0.69221238  1
  O2-  O534  1  0.07821552  0.65534478  0.00966894  1
  O2-  O535  1  0.08194294  0.68720759  0.37728173  1
  O2-  O536  1  0.10023602  0.66932701  0.69400451  1
  O2-  O537  1  0.07539695  0.89643162  0.01357525  1
  O2-  O538  1  0.06457074  0.91761468  0.34985363  1
  O2-  O539  1  0.08842125  0.92637584  0.69035949  1
  O2-  O540  1  0.29480318  0.08907223  0.00067530  1
  O2-  O541  1  0.30243047  0.11044139  0.36676851  1
  O2-  O542  1  0.35129960  0.16224889  0.69491053  1
  O2-  O543  1  0.30346330  0.34208491  0.03387724  1
  O2-  O544  1  0.29735132  0.32869346  0.36478517  1
  O2-  O545  1  0.32720673  0.41074338  0.69384355  1
  O2-  O546  1  0.34068287  0.67162412  0.01207595  1
  O2-  O547  1  0.29449602  0.63966093  0.35987679  1
  O2-  O548  1  0.35174838  0.71965529  0.67486629  1
  O2-  O549  1  0.43039937  0.95817412  0.04847243  1
  O2-  O550  1  0.30442908  0.92265998  0.35638252  1
  O2-  O551  1  0.34652758  0.91576302  0.70320448  1
  O2-  O552  1  0.57847976  0.17776389  0.01993725  1
  O2-  O553  1  0.58799185  0.15772713  0.35261788  1
  O2-  O554  1  0.61075902  0.16352914  0.68712340  1
  O2-  O555  1  0.58833110  0.41897702  0.01342324  1
  O2-  O556  1  0.59389927  0.40941707  0.34403433  1
  O2-  O557  1  0.58314385  0.41751185  0.67616161  1
  O2-  O558  1  0.59137599  0.67745193  0.02167789  1
  O2-  O559  1  0.55139693  0.64396020  0.30360507  1
  O2-  O560  1  0.59158300  0.68027165  0.67387767  1
  O2-  O561  1  0.60224943  0.92343109  -0.00498543  1
  O2-  O562  1  0.58855738  0.90331860  0.35460824  1
  O2-  O563  1  0.58646679  0.90932581  0.67860207  1
  O2-  O564  1  0.82290908  0.16634133  0.01238799  1
  O2-  O565  1  0.82473495  0.14565335  0.30076060  1
  O2-  O566  1  0.84657937  0.17301872  0.67517066  1
  O2-  O567  1  0.81689261  0.41637688  0.01246126  1
  O2-  O568  1  0.83924338  0.40708543  0.35706066  1
  O2-  O569  1  0.83928747  0.42115151  0.67032080  1
  O2-  O570  1  0.88292220  0.69675119  0.02918713  1
  O2-  O571  1  0.83644787  0.66740213  0.35448020  1
  O2-  O572  1  0.84061959  0.67059442  0.67623881  1
  O2-  O573  1  0.85065298  0.93443767  0.01484283  1
  O2-  O574  1  0.82501448  0.90165996  0.36106248  1
  O2-  O575  1  0.83311635  0.91523637  0.67829983  1
