# generated using pymatgen
data_H2O
_symmetry_space_group_name_H-M   'P 1'
_cell_length_a   18.00070130
_cell_length_b   18.00109863
_cell_length_c   22.01304500
_cell_angle_alpha   90.00719528
_cell_angle_beta   89.99219202
_cell_angle_gamma   120.00766470
_symmetry_Int_Tables_number   1
_chemical_formula_structural   H2O
_chemical_formula_sum   'H384 O192'
_cell_volume   6176.82983539
_cell_formula_units_Z   192
loop_
 _symmetry_equiv_pos_site_id
 _symmetry_equiv_pos_as_xyz
  1  'x, y, z'
loop_
 _atom_type_symbol
 _atom_type_oxidation_number
  H+  1.0
  O2-  -2.0
loop_
 _atom_site_type_symbol
 _atom_site_label
 _atom_site_symmetry_multiplicity
 _atom_site_fract_x
 _atom_site_fract_y
 _atom_site_fract_z
 _atom_site_occupancy
  H+  H0  1  0.75483801  0.87676071  0.50066869  1
  H+  H1  1  0.80067334  0.90555643  0.15576258  1
  H+  H2  1  0.11266703  0.46754799  0.34272834  1
  H+  H3  1  0.65074936  0.87145549  0.17289832  1
  H+  H4  1  0.40229956  0.83101177  0.89881868  1
  H+  H5  1  0.27165812  0.39378691  0.00116748  1
  H+  H6  1  0.98040049  0.35374984  0.51198713  1
  H+  H7  1  0.38701714  0.75237864  0.17932272  1
  H+  H8  1  -0.03718648  0.09381990  0.53055219  1
  H+  H9  1  0.83088357  0.62288422  0.66719271  1
  H+  H10  1  0.59921204  0.62311503  0.17260017  1
  H+  H11  1  0.09089815  0.87751059  0.66809215  1
  H+  H12  1  0.64075263  0.26658876  0.33576829  1
  H+  H13  1  0.86870633  0.92969133  0.40803075  1
  H+  H14  1  0.58773698  0.63461750  0.50231765  1
  H+  H15  1  0.63318294  0.85694112  0.98652366  1
  H+  H16  1  -0.00076019  0.09845577  0.82606717  1
  H+  H17  1  0.34877224  0.62861825  0.83100893  1
  H+  H18  1  0.47558998  0.36915957  0.15910084  1
  H+  H19  1  0.36598615  0.23020349  0.15141844  1
  H+  H20  1  0.29338037  0.91284498  0.80258647  1
  H+  H21  1  0.87726206  0.09671946  0.51477066  1
  H+  H22  1  0.26586957  0.63210629  0.16739787  1
  H+  H23  1  0.06498728  0.93413594  0.46987371  1
  H+  H24  1  0.13553989  0.85333315  0.49700251  1
  H+  H25  1  0.48591073  0.35818999  0.31720626  1
  H+  H26  1  0.14419289  0.02853622  0.16920387  1
  H+  H27  1  0.87588104  0.38984222  0.34845653  1
  H+  H28  1  0.03150276  0.38598187  0.00287012  1
  H+  H29  1  0.22675210  0.61211022  0.66432008  1
  H+  H30  1  0.12250302  0.63479061  0.50270542  1
  H+  H31  1  0.48369406  0.37530272  0.50352080  1
  H+  H32  1  0.12075230  0.47085591  0.00556865  1
  H+  H33  1  0.73003495  0.35971837  0.99697515  1
  H+  H34  1  0.26991607  0.38399992  0.15723879  1
  H+  H35  1  0.60995452  0.65050702  0.34415417  1
  H+  H36  1  0.48605594  0.62370286  0.15315240  1
  H+  H37  1  0.47846972  0.37886440  0.66938908  1
  H+  H38  1  0.38225858  0.85871895  0.83386588  1
  H+  H39  1  0.61389704  -0.02907145  0.99340502  1
  H+  H40  1  0.92668020  0.61448671  0.18210289  1
  H+  H41  1  0.36811191  0.21906080  0.32735290  1
  H+  H42  1  0.58131415  0.16272702  0.40429018  1
  H+  H43  1  0.27507697  0.37688622  0.33900759  1
  H+  H44  1  0.72476668  0.61335059  0.83356601  1
  H+  H45  1  0.29937921  0.24581032  0.01882290  1
  H+  H46  1  0.89857027  0.76497848  0.48732279  1
  H+  H47  1  0.24293533  0.87505841  -0.01447112  1
  H+  H48  1  0.09369522  0.12686972  0.67400164  1
  H+  H49  1  0.90247303  0.58270157  0.60154697  1
  H+  H50  1  0.11683462  0.24283051  0.84236071  1
  H+  H51  1  0.84825457  0.36780699  0.82249773  1
  H+  H52  1  0.72668841  0.11502772  0.50512047  1
  H+  H53  1  -0.00557482  0.86872484  0.16509152  1
  H+  H54  1  0.60482715  0.47689316  0.49350007  1
  H+  H55  1  0.30456711  0.15607183  0.51409374  1
  H+  H56  1  0.97577436  0.85088164  0.30943671  1
  H+  H57  1  0.50537581  0.61895876  0.68261659  1
  H+  H58  1  0.88092148  0.15461388  0.33686483  1
  H+  H59  1  0.38076706  0.78064266  -0.00406471  1
  H+  H60  1  0.36288799  0.98036598  0.49586978  1
  H+  H61  1  0.70553462  0.60276144  0.66830563  1
  H+  H62  1  0.37595730  0.52836472  0.52076249  1
  H+  H63  1  0.35947203  0.39444274  0.67100890  1
  H+  H64  1  0.11296882  0.64224172  0.68017784  1
  H+  H65  1  0.61221252  0.90818228  0.68220786  1
  H+  H66  1  0.85818739  0.98319699  0.00013292  1
  H+  H67  1  0.83478125  0.93001929  0.77139475  1
  H+  H68  1  0.89174196  0.54231415  0.02223121  1
  H+  H69  1  0.64801559  0.00472361  0.33442933  1
  H+  H70  1  0.37165646  0.14416419  0.16052676  1
  H+  H71  1  0.88141179  0.32479886  0.50649714  1
  H+  H72  1  0.84753260  0.63800292  0.33701490  1
  H+  H73  1  0.39207702  0.78707306  0.67321061  1
  H+  H74  1  0.62126172  0.77597638  0.51570840  1
  H+  H75  1  0.62769295  0.43559146  0.14780231  1
  H+  H76  1  0.12919782  0.73535969  0.99494458  1
  H+  H77  1  0.64118212  0.13033650  0.32493955  1
  H+  H78  1  0.87223191  0.20800935  0.50042853  1
  H+  H79  1  0.35253653  0.63719640  0.50448467  1
  H+  H80  1  0.40132902  0.02558098  0.67377307  1
  H+  H81  1  0.67147879  0.30820274  0.24235931  1
  H+  H82  1  0.33504381  0.28649005  1.00565472  1
  H+  H83  1  0.72454784  0.85965948  0.83781392  1
  H+  H84  1  0.14763809  0.27353316  0.32215994  1
  H+  H85  1  0.86784314  0.86925662  0.51630449  1
  H+  H86  1  0.13439562  0.52499582  0.66290336  1
  H+  H87  1  0.39552257  0.51766839  0.33173268  1
  H+  H88  1  0.52058937  0.64830458  0.34037204  1
  H+  H89  1  0.92620829  0.34531292  0.27805197  1
  H+  H90  1  0.13995809  0.01458817  0.31553622  1
  H+  H91  1  0.63469419  0.51820492  0.83488884  1
  H+  H92  1  0.11355363  0.72307693  0.33341258  1
  H+  H93  1  0.39594144  0.24514001  0.51206371  1
  H+  H94  1  0.22160522  0.36203118  0.66357030  1
  H+  H95  1  0.38168063  0.77779865  0.51178777  1
  H+  H96  1  0.13092982  0.89767993  0.16491505  1
  H+  H97  1  0.47538860  0.60631344  0.98227503  1
  H+  H98  1  0.28151672  0.12955912  0.33041235  1
  H+  H99  1  0.76845952  0.40284356  0.49984490  1
  H+  H100  1  0.61057568  0.63030383  0.82736219  1
  H+  H101  1  0.39857842  0.36013385  0.31317365  1
  H+  H102  1  0.95059288  0.10931960  0.67080821  1
  H+  H103  1  0.22855551  0.86213031  0.50343104  1
  H+  H104  1  0.88779730  0.50685118  0.34089473  1
  H+  H105  1  0.12175331  0.14290029  0.16232543  1
  H+  H106  1  0.21081910  0.09822980  0.00073261  1
  H+  H107  1  0.36747648  0.13770905  0.82423553  1
  H+  H108  1  0.27402056  0.64358795  0.00864957  1
  H+  H109  1  0.23944474  0.10024390  0.84606772  1
  H+  H110  1  0.12772050  0.60196594  0.32515034  1
  H+  H111  1  -0.00429322  0.61240488  0.83183203  1
  H+  H112  1  -0.01051649  0.37669357  0.18369353  1
  H+  H113  1  0.52891342  0.86614551  0.15510530  1
  H+  H114  1  0.95030299  0.32600454  0.84171791  1
  H+  H115  1  0.82075985  0.11388764  0.68267965  1
  H+  H116  1  0.67642600  0.79790915  0.17842032  1
  H+  H117  1  0.62625983  0.32284261  0.18707275  1
  H+  H118  1  0.14276405  0.27753643  0.17501756  1
  H+  H119  1  0.34922235  0.11837635  0.67348460  1
  H+  H120  1  0.62320054  0.56506300  0.58143926  1
  H+  H121  1  0.98142062  0.60976847  0.33659236  1
  H+  H122  1  0.62036663  0.50811361  0.67521031  1
  H+  H123  1  0.26247026  0.38789080  0.50626835  1
  H+  H124  1  0.20933710  1.01674385  0.88403024  1
  H+  H125  1  0.10861712  0.96980387  0.81975590  1
  H+  H126  1  0.86148820  0.89598528  -0.00466041  1
  H+  H127  1  0.37051670  0.89330747  0.70782057  1
  H+  H128  1  0.17417317  0.07924041  0.25879542  1
  H+  H129  1  0.61012032  0.96052611  0.15294688  1
  H+  H130  1  0.23289438  0.11882526  0.17004511  1
  H+  H131  1  0.24920038  0.60348943  0.34246054  1
  H+  H132  1  0.98399041  0.12692917  0.16538072  1
  H+  H133  1  0.89704289  0.36860172  0.18236577  1
  H+  H134  1  0.52388551  0.13556740  0.34179047  1
  H+  H135  1  0.86529353  0.40163218  0.00296912  1
  H+  H136  1  0.12806809  0.23910759  0.99976280  1
  H+  H137  1  0.78951884  0.62734970  0.52464771  1
  H+  H138  1  0.14648658  0.87998901  0.82144162  1
  H+  H139  1  0.17736576  0.05934179  0.50804816  1
  H+  H140  1  0.39680984  0.14095005  0.51936532  1
  H+  H141  1  0.46747810  0.60151385  0.83560102  1
  H+  H142  1  0.37249797  0.50796777  0.17412956  1
  H+  H143  1  0.10970105  0.68407563  0.09092823  1
  H+  H144  1  0.11765846  0.59544387  0.84418856  1
  H+  H145  1  0.85967129  0.13595945  0.14796968  1
  H+  H146  1  0.64623749  0.88224311  0.32793933  1
  H+  H147  1  0.10440574  0.96379518  0.00736956  1
  H+  H148  1  0.88739092  0.86438369  0.83376301  1
  H+  H149  1  0.77429610  0.60370390  0.49469894  1
  H+  H150  1  0.93938156  0.73906698  0.14332602  1
  H+  H151  1  0.17357691  0.80928972  0.81409836  1
  H+  H152  1  0.76534308  0.37935839  0.82087200  1
  H+  H153  1  0.68512265  0.60495736  0.52680246  1
  H+  H154  1  0.40925239  0.56915529  0.92246528  1
  H+  H155  1  0.38495811  0.03449661  0.16227642  1
  H+  H156  1  0.72708225  0.09787738  0.98127967  1
  H+  H157  1  0.85927861  0.72157861  0.82468645  1
  H+  H158  1  0.43525738  0.81648493  0.33263716  1
  H+  H159  1  0.71380076  0.61750149  0.32816204  1
  H+  H160  1  0.39040192  0.36806379  0.50770172  1
  H+  H161  1  0.99291525  0.37709631  0.68493905  1
  H+  H162  1  0.84476103  0.96436372  0.50375174  1
  H+  H163  1  0.05693277  0.14552501  0.76937393  1
  H+  H164  1  0.36317790  0.89219803  0.49574493  1
  H+  H165  1  0.14357291  0.36067065  0.33173362  1
  H+  H166  1  0.85721087  0.73032104  0.32629921  1
  H+  H167  1  0.37589858  0.51214624  0.83368608  1
  H+  H168  1  0.90133921  0.03491835  0.16385479  1
  H+  H169  1  0.76618130  0.64214311  -0.00973364  1
  H+  H170  1  0.02571820  0.37978116  0.34767554  1
  H+  H171  1  0.21266116  0.10032261  0.66952526  1
  H+  H172  1  0.78512394  0.64934536  0.14717988  1
  H+  H173  1  0.39493095  0.02902124  0.32130352  1
  H+  H174  1  0.61538022  0.22913638  0.49685938  1
  H+  H175  1  1.01205100  0.83346324  0.45741722  1
  H+  H176  1  0.10748484  0.47698981  0.49825154  1
  H+  H177  1  0.84705277  0.88555762  0.68345024  1
  H+  H178  1  0.12116573  0.13660562  1.00026299  1
  H+  H179  1  0.73217213  0.35512948  0.33338129  1
  H+  H180  1  0.89123443  0.27937789  0.33637874  1
  H+  H181  1  0.11983508  0.38991983  0.16060383  1
  H+  H182  1  0.83866482  0.71643923  0.67553794  1
  H+  H183  1  0.52495653  0.14355092  -0.00313856  1
  H+  H184  1  0.12708641  0.13072931  0.32103063  1
  H+  H185  1  1.02654803  0.64013696  0.49459889  1
  H+  H186  1  0.15542065  0.57188261  0.26484809  1
  H+  H187  1  0.95407680  0.85482898  0.66909103  1
  H+  H188  1  0.09470310  0.45023333  0.83940998  1
  H+  H189  1  0.84710203  0.97599485  0.68296800  1
  H+  H190  1  0.87856003  0.78831364  0.98426035  1
  H+  H191  1  0.60926430  0.38171752  0.68491864  1
  H+  H192  1  0.40458604  0.03444936  0.82685547  1
  H+  H193  1  0.24829272  0.88888629  0.16742847  1
  H+  H194  1  0.16498318  0.79265845  0.16579107  1
  H+  H195  1  0.37621627  0.59432341  0.33165386  1
  H+  H196  1  0.35012398  0.62236308  0.16662767  1
  H+  H197  1  0.35003287  0.37726175  0.81389772  1
  H+  H198  1  0.22835064  0.85453663  0.32319052  1
  H+  H199  1  0.60803097  0.72221066  -0.00526220  1
  H+  H200  1  0.22214261  0.61597703  0.51159713  1
  H+  H201  1  0.89645635  0.55143563  0.49542726  1
  H+  H202  1  0.63908467  0.36893830  0.50842377  1
  H+  H203  1  0.63480122  0.61084035  0.97951983  1
  H+  H204  1  0.62068611  0.38439964  0.33910080  1
  H+  H205  1  0.79266722  0.63245311  0.17674425  1
  H+  H206  1  0.39508778  0.84263411  0.17188751  1
  H+  H207  1  0.87289096  0.59656332  0.83733947  1
  H+  H208  1  0.90153402  0.85629192  0.15494619  1
  H+  H209  1  0.37416323  0.50649720  0.99278539  1
  H+  H210  1  0.63425934  0.15092421  0.67450934  1
  H+  H211  1  0.55555272  0.41168341  0.86372590  1
  H+  H212  1  0.16332806  0.07992041  0.93614148  1
  H+  H213  1  0.51636675  0.87730613  0.83067869  1
  H+  H214  1  0.12800395  0.88906996  0.00463913  1
  H+  H215  1  0.09586374  0.21638893  0.67497323  1
  H+  H216  1  0.46934499  0.35997732  0.81043574  1
  H+  H217  1  1.04987281  0.68956108  0.13965027  1
  H+  H218  1  0.85114396  0.37481008  0.67040897  1
  H+  H219  1  0.48869085  0.11960759  0.51584508  1
  H+  H220  1  0.63004688  0.77786149  0.32947891  1
  H+  H221  1  0.97201112  0.44182101  0.94449468  1
  H+  H222  1  -0.01258998  0.13436100  0.31230810  1
  H+  H223  1  0.50928968  0.39946354  0.96649958  1
  H+  H224  1  0.11525687  0.87446240  0.32010130  1
  H+  H225  1  0.05621805  0.15343567  0.46477031  1
  H+  H226  1  0.13226506  0.35986547  0.66855671  1
  H+  H227  1  0.61749111  0.14033184  0.49646713  1
  H+  H228  1  0.61406425  0.20724999  0.15389046  1
  H+  H229  1  0.13669230  0.35439353  0.98855557  1
  H+  H230  1  0.34753671  0.71711437  0.83265863  1
  H+  H231  1  0.35818216  0.22200166  0.81812883  1
  H+  H232  1  0.60602780  0.88118078  0.82770351  1
  H+  H233  1  0.35999099  0.38466646  0.15250646  1
  H+  H234  1  0.13810684  0.60825920  0.99336228  1
  H+  H235  1  0.16052493  0.13691945  0.51487695  1
  H+  H236  1  0.25824626  0.36989609  0.82431692  1
  H+  H237  1  0.90018969  0.91002480  0.34722348  1
  H+  H238  1  0.61466972  0.47130638  0.33829958  1
  H+  H239  1  0.39151320  0.10777162  0.99040149  1
  H+  H240  1  0.37650623  0.52049129  0.66808199  1
  H+  H241  1  0.13173338  0.52113919  0.16944479  1
  H+  H242  1  0.53000213  0.15600539  0.81495145  1
  H+  H243  1  0.51745166  0.12943016  0.14902473  1
  H+  H244  1  0.85412222  0.46268783  0.16536697  1
  H+  H245  1  0.12853186  0.36182271  0.51290198  1
  H+  H246  1  0.82184178  0.14470899  0.05783824  1
  H+  H247  1  0.07746202  0.70059252  0.84657764  1
  H+  H248  1  0.88826713  0.62731080  0.00811974  1
  H+  H249  1  0.61022222  0.72063563  0.82662686  1
  H+  H250  1  0.72376946  0.86029721  0.98960433  1
  H+  H251  1  0.76575307  0.12230089  0.14670097  1
  H+  H252  1  0.85134314  0.50756751  0.64933833  1
  H+  H253  1  0.64299889  0.10600505  0.97618616  1
  H+  H254  1  0.61646539  0.24717855  0.81492009  1
  H+  H255  1  0.13446643  0.61296922  0.16952776  1
  H+  H256  1  0.55456804  0.92330955  0.32993853  1
  H+  H257  1  0.86926211  0.17136167  0.99305050  1
  H+  H258  1  0.52007790  0.89287401  0.48999059  1
  H+  H259  1  0.85843528  0.24944299  0.66978015  1
  H+  H260  1  0.97294872  0.85875157  0.83257343  1
  H+  H261  1  0.09318376  0.96895604  0.67000426  1
  H+  H262  1  0.11950330  0.33313430  0.84331616  1
  H+  H263  1  0.20867253  0.59922626  0.84125571  1
  H+  H264  1  0.82690035  0.40898366  0.72971372  1
  H+  H265  1  0.37143085  0.89899695  0.33832388  1
  H+  H266  1  0.46277647  0.61905356  0.51486389  1
  H+  H267  1  0.63178837  0.48526502  -0.00759493  1
  H+  H268  1  0.58659738  0.91263676  0.05410191  1
  H+  H269  1  0.27075388  0.03679648  0.04579819  1
  H+  H270  1  0.37397776  0.92955533  0.15071808  1
  H+  H271  1  0.86378946  0.42677102  0.51478019  1
  H+  H272  1  0.40145720  1.02681450  -0.00989206  1
  H+  H273  1  0.47268240  0.86532555  -0.01171189  1
  H+  H274  1  0.59399776  0.49955909  0.15022737  1
  H+  H275  1  0.63483677  0.27303452  0.65686991  1
  H+  H276  1  0.72157053  0.36311705  0.65988978  1
  H+  H277  1  0.55184722  0.71903034  0.13372635  1
  H+  H278  1  0.03679579  0.65293138  1.00984210  1
  H+  H279  1  0.39589546  0.11793733  0.32097777  1
  H+  H280  1  0.87218802  0.50697514  0.83464293  1
  H+  H281  1  0.77005667  0.37047839  0.16343366  1
  H+  H282  1  0.48999252  0.11284357  0.66377615  1
  H+  H283  1  0.70742197  0.86814431  0.67329152  1
  H+  H284  1  0.92414341  0.65272243  0.49048247  1
  H+  H285  1  0.63548520  0.03134005  0.50639879  1
  H+  H286  1  0.33431815  0.69005214  0.34322179  1
  H+  H287  1  0.64107679  0.36235960  0.99339947  1
  H+  H288  1  0.82419658  0.65959629  0.76667115  1
  H+  H289  1  0.40677356  0.56844480  0.23519771  1
  H+  H290  1  0.18747395  0.84921983  0.92397430  1
  H+  H291  1  0.32935149  0.42793189  0.06313253  1
  H+  H292  1  0.33869709  0.93656192  0.06562921  1
  H+  H293  1  0.06336573  0.39454639  0.78023316  1
  H+  H294  1  0.91604733  0.82404567  0.25122850  1
  H+  H295  1  0.90291817  0.30482855  0.60954229  1
  H+  H296  1  0.89070485  0.82763038  0.61287188  1
  H+  H297  1  0.36945647  0.89791414  0.00815578  1
  H+  H298  1  0.43754959  0.84579617  0.26450667  1
  H+  H299  1  0.84730478  0.92755699  0.09143008  1
  H+  H300  1  0.42809366  0.08363172  0.57824559  1
  H+  H301  1  0.31973136  0.43516324  0.44893039  1
  H+  H302  1  0.63820210  0.38000838  0.83897036  1
  H+  H303  1  0.88907534  0.07323727  0.61336946  1
  H+  H304  1  0.93509336  0.66723104  0.09459201  1
  H+  H305  1  0.58678661  0.92753745  0.43377062  1
  H+  H306  1  0.92702010  0.11518692  0.25432889  1
  H+  H307  1  0.32308434  0.66426175  0.73922438  1
  H+  H308  1  0.78131679  0.13543934  0.78138525  1
  H+  H309  1  0.62903033  0.86793418  0.51122959  1
  H+  H310  1  0.47870971  0.87927251  0.67310242  1
  H+  H311  1  0.42769181  0.09215082  0.22508082  1
  H+  H312  1  0.91850066  0.57026436  0.27567549  1
  H+  H313  1  0.09933492  0.15894894  0.37963909  1
  H+  H314  1  0.64942828  0.06925732  0.22015235  1
  H+  H315  1  0.07492667  0.66395674  0.73796941  1
  H+  H316  1  0.59283357  0.17963673  0.72785104  1
  H+  H317  1  0.35995678  0.63964305  0.68170506  1
  H+  H318  1  0.32930325  0.67549437  0.06886954  1
  H+  H319  1  0.17820346  0.82811113  0.25960638  1
  H+  H320  1  0.42991027  0.35843675  0.60552167  1
  H+  H321  1  0.72315437  0.16394798  0.28266165  1
  H+  H322  1  0.08690966  0.41303746  0.09996390  1
  H+  H323  1  0.91395894  0.34600997  0.92648455  1
  H+  H324  1  0.81295455  0.68218463  0.05201983  1
  H+  H325  1  0.62433837  0.24725901  0.99959267  1
  H+  H326  1  0.78618848  0.14115529  0.34865349  1
  H+  H327  1  0.42105968  0.34330296  0.87086312  1
  H+  H328  1  0.67002345  0.04594194  0.68326689  1
  H+  H329  1  0.09485098  0.17686606  0.10442055  1
  H+  H330  1  0.69044753  0.09350072  0.88281239  1
  H+  H331  1  0.97976945  0.56926947  0.19705137  1
  H+  H332  1  0.68760675  0.62473213  0.17887385  1
  H+  H333  1  0.11802810  0.77024330  0.66349837  1
  H+  H334  1  0.58715045  0.41939780  0.43242853  1
  H+  H335  1  0.33480062  0.92184484  0.39715043  1
  H+  H336  1  0.58327175  0.41143754  0.74741116  1
  H+  H337  1  0.31817790  0.41341345  0.73029264  1
  H+  H338  1  0.84139134  0.42237681  0.40710345  1
  H+  H339  1  0.82804294  0.41080471  0.06756896  1
  H+  H340  1  0.58432330  0.93599615  0.74308327  1
  H+  H341  1  0.66761376  0.58463906  0.91861802  1
  H+  H342  1  0.59047219  0.43036502  0.05239931  1
  H+  H343  1  0.07327296  0.91306565  0.75777035  1
  H+  H344  1  0.41506145  0.84012567  0.56960233  1
  H+  H345  1  0.31968164  0.14709083  0.73219396  1
  H+  H346  1  0.08230471  0.90149983  0.37774000  1
  H+  H347  1  0.67531089  0.84414529  0.26691888  1
  H+  H348  1  0.17475747  0.33982250  0.23326856  1
  H+  H349  1  0.14902844  0.82633243  0.60319587  1
  H+  H350  1  0.10151323  0.92264203  0.10325833  1
  H+  H351  1  0.57137066  0.65166001  0.74591182  1
  H+  H352  1  0.59696609  0.61056987  0.68294135  1
  H+  H353  1  0.85374574  0.24407835  0.84729773  1
  H+  H354  1  0.33677106  0.36835556  0.38754897  1
  H+  H355  1  0.10664471  0.22740591  0.51313499  1
  H+  H356  1  0.66984991  0.33849988  0.89283720  1
  H+  H357  1  0.16271958  0.08645388  0.60852860  1
  H+  H358  1  0.58446840  0.16866465  0.05985871  1
  H+  H359  1  0.96277481  0.90267570  0.54005965  1
  H+  H360  1  0.88095994  0.71703100  0.42210699  1
  H+  H361  1  0.56982274  0.67264102  0.44131995  1
  H+  H362  1  0.66866268  0.34033488  0.56909214  1
  H+  H363  1  0.42302404  0.33470752  0.22107203  1
  H+  H364  1  0.31533039  0.12980658  0.07279975  1
  H+  H365  1  0.08962323  0.66966195  0.39660137  1
  H+  H366  1  0.64377757  0.58552003  0.27459447  1
  H+  H367  1  0.12592067  0.73368984  0.49647030  1
  H+  H368  1  0.16355765  0.31854365  0.92875445  1
  H+  H369  1  0.08299374  0.41658749  0.43857762  1
  H+  H370  1  0.02454354  0.46176499  0.72100475  1
  H+  H371  1  0.16215818  0.58547879  0.57204375  1
  H+  H372  1  0.66501605  0.82499749  0.89584558  1
  H+  H373  1  0.31912023  0.65556133  0.44202192  1
  H+  H374  1  0.15776111  0.33413872  0.57435078  1
  H+  H375  1  0.65219468  0.84474051  0.61330589  1
  H+  H376  1  0.16245948  0.57277458  0.93522350  1
  H+  H377  1  0.42690351  0.08441571  0.89114238  1
  H+  H378  1  0.62013785  0.09137609  0.15789056  1
  H+  H379  1  0.46180591  0.44756020  0.94287531  1
  H+  H380  1  0.91034759  0.84535099  0.92553651  1
  H+  H381  1  0.56830085  0.65683788  0.05061592  1
  H+  H382  1  0.84284699  0.15718584  0.43762093  1
  H+  H383  1  0.41291671  0.58748124  0.61228244  1
  O2-  O384  1  0.09437402  0.17718670  0.14923902  1
  O2-  O385  1  0.08075293  0.16355479  0.50545158  1
  O2-  O386  1  0.05805812  0.14268819  0.81427139  1
  O2-  O387  1  0.08953478  0.41992542  0.14499589  1
  O2-  O388  1  0.07918268  0.41630169  0.48431805  1
  O2-  O389  1  0.06552309  0.38960907  0.82495643  1
  O2-  O390  1  0.10250733  0.68505171  0.13628415  1
  O2-  O391  1  0.09375498  0.66900232  0.48266170  1
  O2-  O392  1  0.06107294  0.64934793  0.82235414  1
  O2-  O393  1  0.09896033  0.92599956  0.14901858  1
  O2-  O394  1  0.07125132  0.88551496  0.45763871  1
  O2-  O395  1  0.07889551  0.91044005  0.80359218  1
  O2-  O396  1  0.33559297  0.16741397  0.14273473  1
  O2-  O397  1  0.36667910  0.18083941  0.50342704  1
  O2-  O398  1  0.32788409  0.15861945  0.81100810  1
  O2-  O399  1  0.33003175  0.41649392  0.13984954  1
  O2-  O400  1  0.32373237  0.42217616  0.49157074  1
  O2-  O401  1  0.31688294  0.40786964  0.80739075  1
  O2-  O402  1  0.32751235  0.66078535  0.15438353  1
  O2-  O403  1  0.32137759  0.66557608  0.48645695  1
  O2-  O404  1  0.31585416  0.65626213  0.81741159  1
  O2-  O405  1  0.33524939  0.94818665  0.13573306  1
  O2-  O406  1  0.33240191  0.92141290  0.47904723  1
  O2-  O407  1  0.35393902  0.93216870  0.78976214  1
  O2-  O408  1  0.57804546  0.15307238  0.13121455  1
  O2-  O409  1  0.58253105  0.16847942  0.48295905  1
  O2-  O410  1  0.58720993  0.18911945  0.79616083  1
  O2-  O411  1  0.58153064  0.44337084  0.13186016  1
  O2-  O412  1  0.58390446  0.41790830  0.47781199  1
  O2-  O413  1  0.58766629  0.42376623  0.82554866  1
  O2-  O414  1  0.54435945  0.66151797  0.13257636  1
  O2-  O415  1  0.56317370  0.66968815  0.48605377  1
  O2-  O416  1  0.57654310  0.65847716  0.81336195  1
  O2-  O417  1  0.58894459  0.89929643  0.13996830  1
  O2-  O418  1  0.58175396  0.92239384  0.47834289  1
  O2-  O419  1  0.57617455  0.91272147  0.81675738  1
  O2-  O420  1  0.82359353  0.15784564  0.12991599  1
  O2-  O421  1  0.83711701  0.14978893  0.48297406  1
  O2-  O422  1  0.78597015  0.14090243  0.82646299  1
  O2-  O423  1  0.82819825  0.40574584  0.14570712  1
  O2-  O424  1  0.83104420  0.43791796  0.48445086  1
  O2-  O425  1  0.82602125  0.40391472  0.80518891  1
  O2-  O426  1  0.95123269  0.69088781  0.13632885  1
  O2-  O427  1  0.91939815  0.73661481  0.45845210  1
  O2-  O428  1  0.82732303  0.65993049  0.81202086  1
  O2-  O429  1  0.85704543  0.92739720  0.13650500  1
  O2-  O430  1  0.81639843  0.90497169  0.48674721  1
  O2-  O431  1  0.83966296  0.92567978  0.81758442  1
  O2-  O432  1  0.17207415  0.08940846  0.18470865  1
  O2-  O433  1  0.19971277  0.11512782  0.52737960  1
  O2-  O434  1  0.18804792  0.05375334  0.86924168  1
  O2-  O435  1  0.17361178  0.33959715  0.18799417  1
  O2-  O436  1  0.15832255  0.33127355  0.52855395  1
  O2-  O437  1  0.15254513  0.30482824  0.85588537  1
  O2-  O438  1  0.15942599  0.58021234  0.18845756  1
  O2-  O439  1  0.16019731  0.58690497  0.52578771  1
  O2-  O440  1  0.14871547  0.56516319  0.85730956  1
  O2-  O441  1  0.18832091  0.84897510  0.18650342  1
  O2-  O442  1  0.16629620  0.82550145  0.51491427  1
  O2-  O443  1  0.19000390  0.86277245  0.83553517  1
  O2-  O444  1  0.42653086  0.09686540  0.17996608  1
  O2-  O445  1  0.42721448  0.09164968  0.53199063  1
  O2-  O446  1  0.42524486  0.09111230  0.84651529  1
  O2-  O447  1  0.41675295  0.33606765  0.17578022  1
  O2-  O448  1  0.42516391  0.34331928  0.52265482  1
  O2-  O449  1  0.40952875  0.33006923  0.82665269  1
  O2-  O450  1  0.40141188  0.56915802  0.19013138  1
  O2-  O451  1  0.40424922  0.58943469  0.53401372  1
  O2-  O452  1  0.40716427  0.57165983  0.85116675  1
  O2-  O453  1  0.42503963  0.81613989  0.19108071  1
  O2-  O454  1  0.41324220  0.83908604  0.52440358  1
  O2-  O455  1  0.40123174  0.82195429  0.85378634  1
  O2-  O456  1  0.64816269  0.06043433  0.17591862  1
  O2-  O457  1  0.66614055  0.09310255  0.51671875  1
  O2-  O458  1  0.69761004  0.11779019  0.84105544  1
  O2-  O459  1  0.66702852  0.30381695  0.19639992  1
  O2-  O460  1  0.67316991  0.34255848  0.52292375  1
  O2-  O461  1  0.67004422  0.34574285  0.84866539  1
  O2-  O462  1  0.62683900  0.59192938  0.19090016  1
  O2-  O463  1  0.62357128  0.57115366  0.53577184  1
  O2-  O464  1  0.66343246  0.58342953  0.84817059  1
  O2-  O465  1  0.68874964  0.85295749  0.19553944  1
  O2-  O466  1  0.65657299  0.83663266  0.52888707  1
  O2-  O467  1  0.66393254  0.82260444  0.85047307  1
  O2-  O468  1  0.92268308  0.09471511  0.17808540  1
  O2-  O469  1  0.90040180  0.06357903  0.53745773  1
  O2-  O470  1  0.88290373  0.00986866  0.84070403  1
  O2-  O471  1  0.93662185  0.35909643  0.20777286  1
  O2-  O472  1  0.92139955  0.31351363  0.52891385  1
  O2-  O473  1  0.89157337  0.30681279  0.85692138  1
  O2-  O474  1  0.92444907  0.56475760  0.20633616  1
  O2-  O475  1  0.94028381  0.61084509  0.50747600  1
  O2-  O476  1  0.90250373  0.56591707  0.85221985  1
  O2-  O477  1  0.93149636  0.82691540  0.17169863  1
  O2-  O478  1  0.90822069  0.84957200  0.53511124  1
  O2-  O479  1  0.91257266  0.82879549  0.84738590  1
  O2-  O480  1  0.17292506  0.07674719  0.30461769  1
  O2-  O481  1  0.15221763  0.07709166  0.65248460  1
  O2-  O482  1  0.15518564  0.08455291  0.98096183  1
  O2-  O483  1  0.17820644  0.33683253  0.31347688  1
  O2-  O484  1  0.15916147  0.33029481  0.64951843  1
  O2-  O485  1  0.16991722  0.32603423  0.97483018  1
  O2-  O486  1  0.15529106  0.56929530  0.31063968  1
  O2-  O487  1  0.16737100  0.58324759  0.64575426  1
  O2-  O488  1  0.16513941  0.57393026  0.98070114  1
  O2-  O489  1  0.16980698  0.81971923  0.30525873  1
  O2-  O490  1  0.14115519  0.82952747  0.64697262  1
  O2-  O491  1  0.18303468  0.84168388  0.96849375  1
  O2-  O492  1  0.42979704  0.08917323  0.30700501  1
  O2-  O493  1  0.42815181  0.07969126  0.65020614  1
  O2-  O494  1  0.43084101  0.08860959  0.97432792  1
  O2-  O495  1  0.42804600  0.33023370  0.29754571  1
  O2-  O496  1  0.42367870  0.36506483  0.64932820  1
  O2-  O497  1  0.46531720  0.39581850  0.93720660  1
  O2-  O498  1  0.41690044  0.57642676  0.31584590  1
  O2-  O499  1  0.41339310  0.58365836  0.65762799  1
  O2-  O500  1  0.41324547  0.57108063  0.96900518  1
  O2-  O501  1  0.44902467  0.86670565  0.30795706  1
  O2-  O502  1  0.41708866  0.84742100  0.65953930  1
  O2-  O503  1  0.41090452  0.84013891  0.97747809  1
  O2-  O504  1  0.67882344  0.11176156  0.30226727  1
  O2-  O505  1  0.70845890  0.10590812  0.66559369  1
  O2-  O506  1  0.66701375  0.07062067  0.96259713  1
  O2-  O507  1  0.67335895  0.32541828  0.31637394  1
  O2-  O508  1  0.66125075  0.33520061  0.64412546  1
  O2-  O509  1  0.66802703  0.32662298  0.98183893  1
  O2-  O510  1  0.65074826  0.58508894  0.31918394  1
  O2-  O511  1  0.64223698  0.56765506  0.65708229  1
  O2-  O512  1  0.66869941  0.58412704  0.96552549  1
  O2-  O513  1  0.66607688  0.84028403  0.31322342  1
  O2-  O514  1  0.64837533  0.84640268  0.65796824  1
  O2-  O515  1  0.66321355  0.82468160  0.97483915  1
  O2-  O516  1  0.93599162  0.13454866  0.29755583  1
  O2-  O517  1  0.88876491  0.07888266  0.65858043  1
  O2-  O518  1  1.00657622  0.13777262  1.01193256  1
  O2-  O519  1  0.92178367  0.34159977  0.32456036  1
  O2-  O520  1  0.89739443  0.30871656  0.65405219  1
  O2-  O521  1  0.93854444  0.38521178  0.96302249  1
  O2-  O522  1  0.91831126  0.57255664  0.32272781  1
  O2-  O523  1  0.85189288  0.55630490  0.62760909  1
  O2-  O524  1  0.92531549  0.60576448  1.02501334  1
  O2-  O525  1  0.91434280  0.82202760  0.29662179  1
  O2-  O526  1  0.89138365  0.82451451  0.65796293  1
  O2-  O527  1  0.90613979  0.84841642  0.97047841  1
  O2-  O528  1  0.09983019  0.17744923  0.02082953  1
  O2-  O529  1  0.10121405  0.16665806  0.33588508  1
  O2-  O530  1  0.06064998  0.15540587  0.68670105  1
  O2-  O531  1  0.09043006  0.40891616  0.01880502  1
  O2-  O532  1  0.08708782  0.40957029  0.36173951  1
  O2-  O533  1  0.04571944  0.42520151  0.70479416  1
  O2-  O534  1  0.09986678  0.67706637  0.01396384  1
  O2-  O535  1  0.07951305  0.66322934  0.35226984  1
  O2-  O536  1  0.07924998  0.66880743  0.69325991  1
  O2-  O537  1  0.10251418  0.91598951  0.03012309  1
  O2-  O538  1  0.08370563  0.90454760  0.33282612  1
  O2-  O539  1  0.06044124  0.90820342  0.68462684  1
  O2-  O540  1  0.29788452  0.09683040  0.03311454  1
  O2-  O541  1  0.34226745  0.16051291  0.34422102  1
  O2-  O542  1  0.31165703  0.14005966  0.68747540  1
  O2-  O543  1  0.33077480  0.43214112  0.01756866  1
  O2-  O544  1  0.33687131  0.40436516  0.35434557  1
  O2-  O545  1  0.32046532  0.41758242  0.68480852  1
  O2-  O546  1  0.33240465  0.68287377  0.02446056  1
  O2-  O547  1  0.30953183  0.63237961  0.35992636  1
  O2-  O548  1  0.32675507  0.66795388  0.69372898  1
  O2-  O549  1  0.34147448  0.93260902  0.01870939  1
  O2-  O550  1  0.33318292  0.92033529  0.35185214  1
  O2-  O551  1  0.34470198  0.92858647  0.72261500  1
  O2-  O552  1  0.58728526  0.17654879  0.01345306  1
  O2-  O553  1  0.58457575  0.16521007  0.35867342  1
  O2-  O554  1  0.59452086  0.17312904  0.68135907  1
  O2-  O555  1  0.60012407  0.42461094  0.00872215  1
  O2-  O556  1  0.58644323  0.41096081  0.35286938  1
  O2-  O557  1  0.58045287  0.41231345  0.70206001  1
  O2-  O558  1  0.57467172  0.65895308  0.00593166  1
  O2-  O559  1  0.58120117  0.68429068  0.35513669  1
  O2-  O560  1  0.56719428  0.64399629  0.69868602  1
  O2-  O561  1  0.58190684  0.91029839  0.00935271  1
  O2-  O562  1  0.61312756  0.94416117  0.34743053  1
  O2-  O563  1  0.58812743  0.94498230  0.69753857  1
  O2-  O564  1  0.81548871  0.13145283  0.01263960  1
  O2-  O565  1  0.84588167  0.17527216  0.36235348  1
  O2-  O566  1  0.79031302  0.14394406  0.69949177  1
  O2-  O567  1  0.82677144  0.41975501  0.02277044  1
  O2-  O568  1  0.84546209  0.42323232  0.36171096  1
  O2-  O569  1  0.82603393  0.41013938  0.68390900  1
  O2-  O570  1  0.82495583  0.67635983  0.00964470  1
  O2-  O571  1  0.82399132  0.67401782  0.35021162  1
  O2-  O572  1  0.80630410  0.65503874  0.68887644  1
  O2-  O573  1  0.82941764  0.92409895  0.01507264  1
  O2-  O574  1  0.91305677  0.95594817  0.37651812  1
  O2-  O575  1  0.81832337  0.91643997  0.70017520  1
