# generated using pymatgen
data_H2O
_symmetry_space_group_name_H-M   'P 1'
_cell_length_a   17.97876637
_cell_length_b   17.96932292
_cell_length_c   21.94894709
_cell_angle_alpha   89.99355300
_cell_angle_beta   89.93751737
_cell_angle_gamma   120.00469684
_symmetry_Int_Tables_number   1
_chemical_formula_structural   H2O
_chemical_formula_sum   'H384 O192'
_cell_volume   6140.65906684
_cell_formula_units_Z   192
loop_
 _symmetry_equiv_pos_site_id
 _symmetry_equiv_pos_as_xyz
  1  'x, y, z'
loop_
 _atom_type_symbol
 _atom_type_oxidation_number
  H+  1.0
  O2-  -2.0
loop_
 _atom_site_type_symbol
 _atom_site_label
 _atom_site_symmetry_multiplicity
 _atom_site_fract_x
 _atom_site_fract_y
 _atom_site_fract_z
 _atom_site_occupancy
  H+  H0  1  0.56249282  0.65028429  0.43218580  1
  H+  H1  1  0.86339033  0.13642982  0.00554040  1
  H+  H2  1  0.10966482  0.13813492  0.00723451  1
  H+  H3  1  0.52233304  0.14618520  0.83900900  1
  H+  H4  1  0.06229058  0.63252767  0.06507290  1
  H+  H5  1  0.39395787  0.87553975  0.17500304  1
  H+  H6  1  0.11106033  0.88670629  0.03550526  1
  H+  H7  1  0.86524317  -0.00132663  0.50633337  1
  H+  H8  1  0.38824413  0.38858082  0.68356253  1
  H+  H9  1  0.13322256  0.61489620  0.99392186  1
  H+  H10  1  0.83967684  0.67064755  0.76975791  1
  H+  H11  1  0.12646853  0.76402479  1.03920423  1
  H+  H12  1  0.92427928  0.58906452  0.56505051  1
  H+  H13  1  0.21314164  0.13156388  0.17564697  1
  H+  H14  1  -0.03280968  0.59639924  0.66325493  1
  H+  H15  1  0.87766973  0.59741599  -0.01452923  1
  H+  H16  1  0.97730446  0.86760298  0.84366497  1
  H+  H17  1  0.72614564  0.87117968  0.17887630  1
  H+  H18  1  0.36427002  0.22978807  0.82814689  1
  H+  H19  1  0.61708366  0.95622181  0.89181332  1
  H+  H20  1  0.52659955  0.89360056  0.15312859  1
  H+  H21  1  0.61939690  0.72581106  0.00291356  1
  H+  H22  1  0.52979003  0.14245743  0.67752148  1
  H+  H23  1  0.58686181  0.40752529  0.44116578  1
  H+  H24  1  0.87816634  0.35424166  0.98663791  1
  H+  H25  1  0.34466656  0.24944627  0.15045031  1
  H+  H26  1  0.86501999  0.38887326  0.48430168  1
  H+  H27  1  0.77067900  0.38406324  0.83673767  1
  H+  H28  1  0.66667647  0.58579270  0.41505021  1
  H+  H29  1  0.88688091  1.02364578  -0.00479307  1
  H+  H30  1  0.76067299  0.37616028  0.15223296  1
  H+  H31  1  0.45341176  0.14659471  0.18257681  1
  H+  H32  1  0.06247448  0.87886974  0.48540396  1
  H+  H33  1  0.89360053  0.77950263  0.33794375  1
  H+  H34  1  0.86382252  0.72656146  0.67419265  1
  H+  H35  1  0.34538117  0.16220247  0.16234102  1
  H+  H36  1  0.39258447  0.62522470  0.99170676  1
  H+  H37  1  0.61620065  0.86061478  0.32817278  1
  H+  H38  1  0.84012057  0.42505824  0.39623106  1
  H+  H39  1  0.73654109  0.37096584  0.32134723  1
  H+  H40  1  0.81215675  0.85743756  0.34225975  1
  H+  H41  1  0.77552575  0.88790039  0.01347012  1
  H+  H42  1  0.66012315  0.77153281  0.66998473  1
  H+  H43  1  0.10276119  0.89292394  0.82906374  1
  H+  H44  1  0.74685725  0.12730160  0.18968570  1
  H+  H45  1  0.10032055  0.37001684  0.47874833  1
  H+  H46  1  0.21556363  0.36397602  0.98641647  1
  H+  H47  1  0.52918037  0.37619278  0.34805576  1
  H+  H48  1  0.85029718  0.12072407  0.38004316  1
  H+  H49  1  0.84618760  0.12738366  0.84369976  1
  H+  H50  1  0.64495176  0.61577657  0.83759415  1
  H+  H51  1  0.41037263  0.94761755  0.48868431  1
  H+  H52  1  0.39260724  0.78605417  0.16927927  1
  H+  H53  1  0.36608945  0.62278470  0.85184694  1
  H+  H54  1  0.75603096  0.62217067  -0.01206331  1
  H+  H55  1  0.66542726  0.13650463  0.18554366  1
  H+  H56  1  0.38305435  0.90680556  0.83131506  1
  H+  H57  1  0.02461454  0.88852361  0.01767935  1
  H+  H58  1  0.55887666  0.98300415  0.51087518  1
  H+  H59  1  0.72398799  0.10518819  -0.00890659  1
  H+  H60  1  0.59814982  0.75424223  0.50887706  1
  H+  H61  1  0.88783490  0.89327589  0.18006541  1
  H+  H62  1  0.71747423  0.10709438  0.35279179  1
  H+  H63  1  0.31277020  0.22878851  0.45893426  1
  H+  H64  1  0.92458447  0.07620185  0.59426012  1
  H+  H65  1  0.37907636  0.26984349  0.98959815  1
  H+  H66  1  0.13244319  0.02248872  0.99401463  1
  H+  H67  1  0.35465256  0.47908395  0.82872018  1
  H+  H68  1  0.60109202  0.46017171  0.14223271  1
  H+  H69  1  0.61472799  0.76806325  0.32389459  1
  H+  H70  1  0.67659470  0.66926797  0.17693121  1
  H+  H71  1  0.69191254  0.50032475  0.23216796  1
  H+  H72  1  0.60821093  0.17650345  0.09020350  1
  H+  H73  1  0.85743199  0.00557287  0.33860282  1
  H+  H74  1  0.23056597  0.63808485  0.84460408  1
  H+  H75  1  0.29257480  0.36240560  0.57363301  1
  H+  H76  1  0.86937097  0.36035434  0.16875795  1
  H+  H77  1  0.12082874  0.97991099  0.66699773  1
  H+  H78  1  0.08615108  0.16485498  0.76087180  1
  H+  H79  1  0.38507071  0.03227780  0.84441170  1
  H+  H80  1  0.91893098  0.35242251  0.25555125  1
  H+  H81  1  0.62210260  0.13599918  1.00056031  1
  H+  H82  1  0.88207601  0.11640177  0.18095644  1
  H+  H83  1  0.24210415  0.12019347  0.66082525  1
  H+  H84  1  0.63203267  0.37139471  0.66574890  1
  H+  H85  1  0.38084115  0.23810621  0.68458091  1
  H+  H86  1  0.62164378  0.34996101  0.16817494  1
  H+  H87  1  0.81872305  0.41054340  0.77055845  1
  H+  H88  1  0.27190205  0.63930677  0.00278205  1
  H+  H89  1  0.28646293  0.65218676  0.15724101  1
  H+  H90  1  0.39606724  0.02243332  0.32467259  1
  H+  H91  1  0.96701202  0.34950644  0.48700775  1
  H+  H92  1  0.87360202  0.88274579  0.67484885  1
  H+  H93  1  0.45459405  0.37664390  0.15466713  1
  H+  H94  1  0.89243982  0.77397941  0.84514663  1
  H+  H95  1  0.37213892  0.36431180  0.29603105  1
  H+  H96  1  0.87137951  0.48911793  0.33822854  1
  H+  H97  1  0.09863015  0.23808330  0.15235406  1
  H+  H98  1  0.35135671  0.59528093  0.48624014  1
  H+  H99  1  0.84954111  0.68608572  0.41201912  1
  H+  H100  1  0.51374140  0.62404600  0.32907448  1
  H+  H101  1  0.75977989  0.87163117  0.67702463  1
  H+  H102  1  0.39270038  0.36750616  0.83706545  1
  H+  H103  1  0.87725163  0.09241092  0.49861539  1
  H+  H104  1  0.23938767  0.85804145  0.31523604  1
  H+  H105  1  0.37376515  0.48888752  0.52376716  1
  H+  H106  1  0.09087558  0.35490387  0.80831260  1
  H+  H107  1  0.64880998  0.86966686  0.84533934  1
  H+  H108  1  -0.03046668  0.11715693  0.18389060  1
  H+  H109  1  0.84578178  0.21501792  0.85047072  1
  H+  H110  1  0.22490773  0.11698063  0.83942067  1
  H+  H111  1  0.23741580  0.12424266  0.50218458  1
  H+  H112  1  0.12980739  0.97496330  0.33229723  1
  H+  H113  1  0.11117608  0.22382221  0.82054688  1
  H+  H114  1  0.73213328  0.62035593  0.50346430  1
  H+  H115  1  0.13517623  0.11696867  0.83622454  1
  H+  H116  1  0.61660201  0.73937253  0.15688421  1
  H+  H117  1  0.13207699  0.52539614  -0.00951749  1
  H+  H118  1  0.38284118  0.99549263  0.16362304  1
  H+  H119  1  0.00514140  0.10098415  0.34816700  1
  H+  H120  1  0.42097429  0.51937979  0.65898265  1
  H+  H121  1  0.88195880  0.35719588  0.83775062  1
  H+  H122  1  0.76231328  0.37298880  -0.01470364  1
  H+  H123  1  0.53026096  0.15694943  0.50079550  1
  H+  H124  1  -0.06173000  0.62033870  0.23342164  1
  H+  H125  1  0.14666390  0.89263560  0.17461827  1
  H+  H126  1  0.10183008  0.38716691  1.00061580  1
  H+  H127  1  0.57065763  0.19037650  0.40829781  1
  H+  H128  1  0.35727487  0.12218425  0.34433421  1
  H+  H129  1  0.30761234  0.90880520  0.49283112  1
  H+  H130  1  0.73073174  0.51064230  0.21305975  1
  H+  H131  1  0.65880917  0.86555883  0.67824727  1
  H+  H132  1  0.01187941  0.38612422  -0.00430062  1
  H+  H133  1  0.58261568  0.90861562  0.06177694  1
  H+  H134  1  0.25935618  0.13509731  0.00146993  1
  H+  H135  1  0.11019399  0.98502982  0.82496047  1
  H+  H136  1  0.62315066  0.38804110  0.34301717  1
  H+  H137  1  0.52326511  0.88020468  0.00214348  1
  H+  H138  1  0.64720372  0.36837958  0.51321879  1
  H+  H139  1  0.36339464  0.35953392  0.53222156  1
  H+  H140  1  0.75965644  0.38626350  0.67738025  1
  H+  H141  1  0.55344883  0.64209776  0.66560544  1
  H+  H142  1  0.72300056  0.11334732  0.81701197  1
  H+  H143  1  0.36308236  0.61950941  0.32474227  1
  H+  H144  1  0.78126567  0.39603037  0.49282613  1
  H+  H145  1  0.89599366  0.62635839  0.33459006  1
  H+  H146  1  0.16253746  0.82598253  1.09738326  1
  H+  H147  1  0.04036314  0.14037509  0.66439647  1
  H+  H148  1  0.38626646  0.76339667  0.32282249  1
  H+  H149  1  0.97320414  0.60316039  0.83851913  1
  H+  H150  1  0.13224719  0.72820064  0.49253466  1
  H+  H151  1  0.96443359  0.37380338  0.16749299  1
  H+  H152  1  0.12086791  0.38185504  0.15070888  1
  H+  H153  1  0.92157759  0.85755699  0.24376601  1
  H+  H154  1  0.20582603  0.33873807  0.50490880  1
  H+  H155  1  -0.01726900  0.62194814  0.32975143  1
  H+  H156  1  0.63699013  0.01646059  0.99495721  1
  H+  H157  1  0.87376857  0.13750346  0.67000874  1
  H+  H158  1  0.60039282  0.24465627  0.34602725  1
  H+  H159  1  0.91927899  0.07887748  0.89644288  1
  H+  H160  1  0.62478654  0.23878381  0.50169125  1
  H+  H161  1  0.11407518  0.63491637  0.83359368  1
  H+  H162  1  0.55072843  0.89368788  0.67913859  1
  H+  H163  1  0.84928394  0.47472749  0.67696904  1
  H+  H164  1  0.37379122  0.49582856  -0.02209645  1
  H+  H165  1  0.97574987  0.10999733  0.83500339  1
  H+  H166  1  0.61382038  0.89239954  0.15350828  1
  H+  H167  1  0.62648271  0.50851403  0.98916293  1
  H+  H168  1  0.04495290  0.88219977  0.33518125  1
  H+  H169  1  0.05926227  0.39483922  0.75512943  1
  H+  H170  1  0.78837409  0.13962779  0.66704600  1
  H+  H171  1  0.73315973  0.61358830  0.84189267  1
  H+  H172  1  0.15224172  0.85919425  0.31572045  1
  H+  H173  1  0.87121522  0.65088912  0.49934274  1
  H+  H174  1  0.60874541  0.63080318  0.00422521  1
  H+  H175  1  0.75845769  0.11779650  0.47406448  1
  H+  H176  1  0.39593454  0.26501545  0.51775599  1
  H+  H177  1  0.09921203  0.71711201  0.83039605  1
  H+  H178  1  0.86523752  0.89007672  0.01568071  1
  H+  H179  1  0.01725969  0.42405291  0.66322653  1
  H+  H180  1  0.29022522  0.89574833  0.82048621  1
  H+  H181  1  0.51992680  0.88452196  0.34279792  1
  H+  H182  1  0.86597437  0.99016278  0.16890494  1
  H+  H183  1  0.50599773  0.37713053  0.67719342  1
  H+  H184  1  0.17148955  0.32938307  0.59772888  1
  H+  H185  1  0.63886054  0.85737026  0.99325906  1
  H+  H186  1  0.62430094  0.22564686  -0.00674872  1
  H+  H187  1  0.26402720  0.59959728  0.47780559  1
  H+  H188  1  0.36144516  0.10900821  -0.00500934  1
  H+  H189  1  0.63975022  0.52174060  0.36093491  1
  H+  H190  1  0.15521887  0.53738152  0.17215292  1
  H+  H191  1  0.61758554  0.47323132  0.49703158  1
  H+  H192  1  0.48359509  0.62508710  0.99278119  1
  H+  H193  1  0.17581311  0.86744742  0.50098567  1
  H+  H194  1  0.10393961  0.15250666  0.16522796  1
  H+  H195  1  0.97455983  0.86037909  0.65290464  1
  H+  H196  1  0.28944416  0.37358603  0.27734216  1
  H+  H197  1  0.47446535  0.12304581  0.33425228  1
  H+  H198  1  0.61040744  0.97218418  0.34674987  1
  H+  H199  1  0.28714855  0.91309679  0.16069342  1
  H+  H200  1  0.99134070  0.38266924  0.31716251  1
  H+  H201  1  0.11560511  0.25314863  0.50140766  1
  H+  H202  1  0.10233225  0.61138355  0.15432533  1
  H+  H203  1  0.97515014  0.11309807  0.99272343  1
  H+  H204  1  0.48367176  0.91148101  0.60022745  1
  H+  H205  1  0.86850839  0.63583298  0.82723480  1
  H+  H206  1  0.92116119  0.65589289  0.17037263  1
  H+  H207  1  0.33611930  0.16799309  0.76992854  1
  H+  H208  1  0.03628874  0.64555800  0.49300755  1
  H+  H209  1  0.58777051  0.17370363  0.73721461  1
  H+  H210  1  0.48336548  0.88264323  0.51065340  1
  H+  H211  1  0.86980932  0.23334421  0.15998210  1
  H+  H212  1  0.24149670  0.60837482  0.63703287  1
  H+  H213  1  0.38847675  0.24804952  0.33484682  1
  H+  H214  1  0.62784536  0.72720016  0.82416391  1
  H+  H215  1  0.67519211  0.09127307  0.28741460  1
  H+  H216  1  0.70771962  0.62415805  0.22389685  1
  H+  H217  1  0.39181203  0.54168145  0.14641261  1
  H+  H218  1  0.86234846  0.22445716  1.00432635  1
  H+  H219  1  0.64305880  0.11507842  0.65975517  1
  H+  H220  1  0.88839409  0.61506880  0.66090846  1
  H+  H221  1  0.64038886  0.51182556  0.66563793  1
  H+  H222  1  0.36523647  0.71751968  0.50890296  1
  H+  H223  1  0.48684908  0.35435011  0.51860163  1
  H+  H224  1  0.55368962  0.13491294  0.15188647  1
  H+  H225  1  0.26754684  0.88682795  0.02811216  1
  H+  H226  1  0.38289918  0.86820433  0.99837776  1
  H+  H227  1  0.77782544  0.63349347  0.67541934  1
  H+  H228  1  0.11087520  0.63618099  0.67569102  1
  H+  H229  1  0.13704124  0.60263078  0.49082201  1
  H+  H230  1  0.37902370  0.77676051  0.99216509  1
  H+  H231  1  0.15595210  0.02714616  0.50638737  1
  H+  H232  1  0.60446398  0.63348955  0.34813274  1
  H+  H233  1  0.81165500  0.68379208  0.15068877  1
  H+  H234  1  0.87083396  0.97721062  0.82829746  1
  H+  H235  1  0.85194818  0.46017465  -0.00328355  1
  H+  H236  1  0.52329874  0.37210299  -0.00566413  1
  H+  H237  1  0.37537043  0.14619014  0.67904302  1
  H+  H238  1  0.63639813  0.11814111  0.50078954  1
  H+  H239  1  0.20977494  0.38410344  0.14003814  1
  H+  H240  1  0.63567134  0.61070290  0.50281936  1
  H+  H241  1  0.15789370  0.37042469  0.30664966  1
  H+  H242  1  0.42938848  0.81687133  0.61617384  1
  H+  H243  1  0.10793207  0.12239796  0.49949249  1
  H+  H244  1  0.85942302  0.73860890  0.50546083  1
  H+  H245  1  0.61362200  0.22928524  0.84644269  1
  H+  H246  1  0.87606870  0.26349073  0.48912526  1
  H+  H247  1  0.39254555  0.60466168  0.76982081  1
  H+  H248  1  0.93481659  0.86187427  0.51364927  1
  H+  H249  1  0.10217805  0.46013148  0.47774718  1
  H+  H250  1  0.82835526  0.66774271  0.93983488  1
  H+  H251  1  1.01545436  0.63091988  1.00331240  1
  H+  H252  1  0.11604379  0.47692755  0.32900268  1
  H+  H253  1  0.88802927  0.77691258  0.99897181  1
  H+  H254  1  0.22493499  0.10687342  0.32911528  1
  H+  H255  1  0.12387942  0.72659666  0.33200323  1
  H+  H256  1  0.22392168  0.35996336  0.83626708  1
  H+  H257  1  0.90463186  1.02598185  0.65719155  1
  H+  H258  1  0.36884704  0.88224614  0.33669167  1
  H+  H259  1  0.89877339  0.53550399  0.50327953  1
  H+  H260  1  0.88206385  0.38115752  0.64450165  1
  H+  H261  1  0.50610699  0.60594350  0.49161334  1
  H+  H262  1  0.93044780  0.88193101  0.34861012  1
  H+  H263  1  0.37978118  0.12029429  0.84550265  1
  H+  H264  1  0.39044957  0.90324528  0.66947114  1
  H+  H265  1  0.38944710  0.14131454  0.50641527  1
  H+  H266  1  0.63384515  0.11404636  0.81164469  1
  H+  H267  1  0.12915288  0.27282251  0.99261820  1
  H+  H268  1  0.48667664  0.62462392  0.15720079  1
  H+  H269  1  0.82464181  0.86181296  0.50657602  1
  H+  H270  1  0.34073477  0.42004691  0.77024922  1
  H+  H271  1  0.67739637  0.84443356  0.51556574  1
  H+  H272  1  0.24185328  0.87259152  0.65772971  1
  H+  H273  1  0.37492412  0.76142776  0.83683927  1
  H+  H274  1  0.39737279  0.03303990  0.65831984  1
  H+  H275  1  0.78431664  0.65131414  0.35748144  1
  H+  H276  1  0.65252007  1.03196730  0.66052419  1
  H+  H277  1  0.62366907  0.47628643  0.83806021  1
  H+  H278  1  0.39302659  0.50611857  0.29037939  1
  H+  H279  1  0.49447526  0.89170970  0.85298047  1
  H+  H280  1  0.34448016  0.40212042  0.12517362  1
  H+  H281  1  0.10779823  0.99942608  0.16902085  1
  H+  H282  1  0.32781788  0.41847154  -0.06745860  1
  H+  H283  1  0.86791347  0.88573803  0.83245512  1
  H+  H284  1  0.98692692  0.89386587  0.18176011  1
  H+  H285  1  0.64046543  0.36564325  0.87165606  1
  H+  H286  1  0.12767218  0.13719443  0.66967485  1
  H+  H287  1  0.88035571  0.51580587  0.83769744  1
  H+  H288  1  0.53482996  0.38775888  0.83427096  1
  H+  H289  1  0.04236879  0.49147945  0.12790328  1
  H+  H290  1  0.12772551  0.09366632  0.33217185  1
  H+  H291  1  0.89642176  0.38745115  0.32327965  1
  H+  H292  1  0.90042433  0.82579628  0.59790068  1
  H+  H293  1  0.84903711  0.91764288  0.73752936  1
  H+  H294  1  0.31233204  0.43960477  0.40297258  1
  H+  H295  1  0.07075685  0.63637748  0.74126477  1
  H+  H296  1  0.66733723  0.08430829  0.55664835  1
  H+  H297  1  0.63651063  0.26888358  0.16765064  1
  H+  H298  1  0.36336411  0.01424462  0.99640569  1
  H+  H299  1  0.08436102  0.91947494  0.72477586  1
  H+  H300  1  0.07686270  0.93472424  0.11091296  1
  H+  H301  1  0.84187529  0.66128208  0.08959573  1
  H+  H302  1  0.91486448  0.35355408  0.58422156  1
  H+  H303  1  0.41951418  0.33249344  0.89510378  1
  H+  H304  1  0.18124327  0.59210792  0.23362525  1
  H+  H305  1  0.67697282  0.83288391  0.93529746  1
  H+  H306  1  0.42338491  0.10004264  0.60245427  1
  H+  H307  1  0.16104577  0.09465179  0.23872638  1
  H+  H308  1  0.67715094  0.34090347  0.57335651  1
  H+  H309  1  0.15813698  0.32983065  0.89296302  1
  H+  H310  1  0.41698815  0.82968610  0.26636211  1
  H+  H311  1  0.30025312  0.39104224  0.67451109  1
  H+  H312  1  0.59499036  0.67760842  0.09777549  1
  H+  H313  1  0.33509682  0.67545440  0.06081102  1
  H+  H314  1  0.92290767  0.83897954  0.94246681  1
  H+  H315  1  0.81554258  0.39425558  0.09115633  1
  H+  H316  1  0.31876225  0.16954093  0.06160765  1
  H+  H317  1  0.42139378  0.60433121  0.66877009  1
  H+  H318  1  0.16768866  0.59295181  0.90057688  1
  H+  H319  1  0.16654745  0.57009391  0.54822436  1
  H+  H320  1  0.38223732  0.37029421  0.20396169  1
  H+  H321  1  0.19635124  0.83840158  0.56450617  1
  H+  H322  1  0.60083383  0.42476821  0.73354138  1
  H+  H323  1  0.31841382  0.43625396  0.06726786  1
  H+  H324  1  0.23206245  0.60946357  0.32417113  1
  H+  H325  1  0.57109071  0.39856827  0.08533763  1
  H+  H326  1  0.67328390  0.57198129  0.60331575  1
  H+  H327  1  0.73371502  0.87220679  0.34203602  1
  H+  H328  1  0.64087517  0.63995620  0.66927280  1
  H+  H329  1  0.65550303  0.57272362  0.93124654  1
  H+  H330  1  0.44063454  0.09042863  0.24230797  1
  H+  H331  1  0.00950200  0.60520127  0.15693282  1
  H+  H332  1  0.14409423  0.61486461  0.32525138  1
  H+  H333  1  0.41943987  0.56980480  0.56670769  1
  H+  H334  1  0.15866301  0.08046303  0.93206550  1
  H+  H335  1  0.91340704  0.32756610  0.92801478  1
  H+  H336  1  0.15200374  0.86961365  0.65341001  1
  H+  H337  1  0.33210796  0.41198836  0.39714301  1
  H+  H338  1  0.37672890  0.65568082  0.15013022  1
  H+  H339  1  0.34822575  0.69247814  0.78241886  1
  H+  H340  1  0.42169904  0.58355202  0.24602935  1
  H+  H341  1  0.14446084  0.53328666  0.64813387  1
  H+  H342  1  0.05406874  0.77965184  0.90009728  1
  H+  H343  1  0.62559864  1.00115363  0.82723473  1
  H+  H344  1  0.16561080  0.27073062  0.65308764  1
  H+  H345  1  0.39252574  0.05464515  0.50252976  1
  H+  H346  1  0.65728401  0.83646944  0.23334622  1
  H+  H347  1  0.06199266  0.43191424  0.08500173  1
  H+  H348  1  0.34519020  0.93447049  0.07234856  1
  H+  H349  1  0.09451072  0.67241332  0.39494017  1
  H+  H350  1  0.79514173  0.89108575  0.44585074  1
  H+  H351  1  0.42236762  0.85512721  0.90602520  1
  H+  H352  1  0.01282952  0.11209751  0.49654173  1
  H+  H353  1  0.63340486  0.27935207  0.66569660  1
  H+  H354  1  0.32809150  0.15822246  0.40505164  1
  H+  H355  1  0.30882934  0.56258458  0.73271474  1
  H+  H356  1  0.17548081  0.84158913  0.21928867  1
  H+  H357  1  0.43670541  0.33424892  0.61991715  1
  H+  H358  1  0.39112058  0.36497493  0.98399840  1
  H+  H359  1  0.61438531  0.37484928  -0.01268919  1
  H+  H360  1  0.60684510  0.67080838  0.76398841  1
  H+  H361  1  0.67093220  0.33773293  0.26408865  1
  H+  H362  1  0.89430120  0.07601807  0.28588843  1
  H+  H363  1  0.39543199  0.07939053  0.92971623  1
  H+  H364  1  0.44587647  0.29498590  0.27725553  1
  H+  H365  1  0.60528400  0.92603034  0.74073285  1
  H+  H366  1  0.06920704  0.13231993  0.40443997  1
  H+  H367  1  0.84080042  0.17100710  0.10116108  1
  H+  H368  1  0.91374588  0.57085905  0.92902902  1
  H+  H369  1  0.33736296  0.64316707  0.38883831  1
  H+  H370  1  0.18448760  0.08885899  0.59928295  1
  H+  H371  1  0.34486484  0.92420245  0.39284401  1
  H+  H372  1  0.15222071  0.82747796  0.91131451  1
  H+  H373  1  0.11579638  0.91726718  0.42504113  1
  H+  H374  1  0.96232008  0.34022364  0.82961233  1
  H+  H375  1  0.16810134  0.34745326  0.23945387  1
  H+  H376  1  0.33179259  0.77873762  0.53019463  1
  H+  H377  1  0.05482579  0.50527322  0.70481078  1
  H+  H378  1  0.73637004  0.86703880  0.83912190  1
  H+  H379  1  0.41638958  0.59341452  0.89461112  1
  H+  H380  1  0.08017191  0.40822853  0.38419370  1
  H+  H381  1  0.07746146  0.16895887  0.06598764  1
  H+  H382  1  0.35744927  0.92923770  0.72937481  1
  H+  H383  1  0.83926920  0.92698237  0.10843188  1
  O2-  O384  1  0.06982112  0.17512199  0.14450583  1
  O2-  O385  1  0.07379379  0.14798595  0.48289955  1
  O2-  O386  1  0.08232059  0.16257686  0.80659932  1
  O2-  O387  1  0.05677783  0.44402273  0.12948807  1
  O2-  O388  1  0.07181915  0.40064723  0.46041483  1
  O2-  O389  1  0.04053307  0.35320201  0.78915825  1
  O2-  O390  1  0.04752201  0.58894728  0.13170621  1
  O2-  O391  1  0.09514995  0.66984437  0.47480081  1
  O2-  O392  1  0.07594249  0.65797655  0.81572440  1
  O2-  O393  1  0.07719696  0.93671334  0.15673832  1
  O2-  O394  1  0.12039912  0.91775534  0.47077204  1
  O2-  O395  1  0.07691791  0.92401470  0.80972113  1
  O2-  O396  1  0.31491404  0.18577396  0.14013156  1
  O2-  O397  1  0.32313918  0.18302940  0.47251192  1
  O2-  O398  1  0.33238207  0.16746167  0.81611027  1
  O2-  O399  1  0.31664830  0.43571775  0.11181356  1
  O2-  O400  1  0.32073256  0.38066452  0.53340325  1
  O2-  O401  1  0.33310658  0.41844318  0.81596145  1
  O2-  O402  1  0.34431792  0.68508928  0.13745126  1
  O2-  O403  1  0.32626834  0.62806166  0.46631316  1
  O2-  O404  1  0.33809885  0.69912183  0.82554730  1
  O2-  O405  1  0.34790872  0.93641826  0.14649221  1
  O2-  O406  1  0.36144446  0.95270790  0.47208973  1
  O2-  O407  1  0.35079244  0.93426543  0.81153277  1
  O2-  O408  1  0.61076279  0.17803036  0.13686656  1
  O2-  O409  1  0.58951001  0.17903771  0.48480864  1
  O2-  O410  1  0.58113699  0.17590403  0.82217212  1
  O2-  O411  1  0.56151472  0.40074963  0.13068999  1
  O2-  O412  1  0.58735402  0.41063398  0.48665563  1
  O2-  O413  1  0.59779278  0.41383593  0.82848997  1
  O2-  O414  1  0.59282492  0.67804070  0.14333386  1
  O2-  O415  1  0.56636451  0.64218325  0.47670407  1
  O2-  O416  1  0.60256356  0.66742688  0.80909236  1
  O2-  O417  1  0.58300146  0.91772642  0.13241307  1
  O2-  O418  1  0.49791815  0.94127121  0.52208348  1
  O2-  O419  1  0.59939861  0.93880119  0.84957832  1
  O2-  O420  1  0.84551307  0.17264677  0.14680974  1
  O2-  O421  1  0.82152023  0.14595488  0.46223738  1
  O2-  O422  1  0.80903024  0.15142976  0.85348826  1
  O2-  O423  1  0.81981569  0.39892846  0.13625449  1
  O2-  O424  1  0.83919922  0.42508208  0.47278439  1
  O2-  O425  1  0.82725052  0.41424274  0.81618719  1
  O2-  O426  1  0.86310925  0.69133542  0.12805556  1
  O2-  O427  1  0.83795215  0.67738572  0.48353282  1
  O2-  O428  1  0.84147471  0.67106993  0.81570291  1
  O2-  O429  1  0.84039997  0.92798839  0.15437991  1
  O2-  O430  1  0.79856264  0.89695660  0.49066374  1
  O2-  O431  1  0.83993953  0.91544023  0.81280346  1
  O2-  O432  1  0.15447349  0.09932733  0.19322083  1
  O2-  O433  1  0.17677978  0.08561552  0.52222025  1
  O2-  O434  1  0.16398698  0.08579247  0.85408342  1
  O2-  O435  1  0.15204916  0.35120894  0.15949612  1
  O2-  O436  1  0.14398620  0.31586766  0.51230419  1
  O2-  O437  1  0.16215936  0.32685654  0.84800730  1
  O2-  O438  1  0.18672955  0.59670744  0.18780764  1
  O2-  O439  1  0.16082842  0.56493480  0.50277635  1
  O2-  O440  1  0.16943077  0.59905205  0.85532707  1
  O2-  O441  1  0.18020363  0.86250790  0.17635252  1
  O2-  O442  1  0.20333704  0.83619481  0.51863836  1
  O2-  O443  1  0.10936512  0.80997988  0.87915028  1
  O2-  O444  1  0.44958030  0.09317105  0.19560973  1
  O2-  O445  1  0.41962006  0.11220184  0.52270172  1
  O2-  O446  1  0.40823159  0.08923449  0.86520100  1
  O2-  O447  1  0.39199589  0.35256609  0.16219476  1
  O2-  O448  1  0.42962175  0.32200301  0.53917747  1
  O2-  O449  1  0.42123959  0.33457399  0.84965001  1
  O2-  O450  1  0.42399323  0.59690634  0.16851101  1
  O2-  O451  1  0.40456257  0.55337098  0.52303576  1
  O2-  O452  1  0.39136660  0.58459001  0.85303274  1
  O2-  O453  1  0.42280222  0.84377736  0.18926689  1
  O2-  O454  1  0.37996993  0.76890293  0.53532325  1
  O2-  O455  1  0.43007805  0.86214251  0.86027700  1
  O2-  O456  1  0.69325380  0.11289515  0.21158090  1
  O2-  O457  1  0.66055323  0.08006863  0.51136128  1
  O2-  O458  1  0.66219437  0.08131918  0.79903207  1
  O2-  O459  1  0.65723676  0.32799627  0.18607003  1
  O2-  O460  1  0.68112977  0.34134944  0.52745368  1
  O2-  O461  1  0.67023820  0.33343162  0.88572485  1
  O2-  O462  1  0.72849662  0.67375464  0.19705057  1
  O2-  O463  1  0.66918360  0.58095961  0.51161575  1
  O2-  O464  1  0.67274458  0.58385439  0.85685299  1
  O2-  O465  1  0.66388770  0.83859134  0.18766211  1
  O2-  O466  1  0.61530206  0.81211142  0.52410463  1
  O2-  O467  1  0.67614980  0.83502352  0.85543886  1
  O2-  O468  1  0.90934891  0.08408682  0.19933591  1
  O2-  O469  1  0.90492203  0.06171125  0.51619619  1
  O2-  O470  1  0.91606510  0.07496908  0.85107991  1
  O2-  O471  1  0.90775721  0.33919705  0.18844468  1
  O2-  O472  1  0.90683317  0.32405809  0.50251668  1
  O2-  O473  1  0.90880854  0.32508436  0.85456354  1
  O2-  O474  1  0.96183294  0.64320015  0.19263245  1
  O2-  O475  1  0.92985766  0.59519751  0.51950161  1
  O2-  O476  1  0.91237510  0.57690520  0.85347890  1
  O2-  O477  1  0.92416971  0.86525060  0.19832811  1
  O2-  O478  1  0.88115272  0.81921209  0.53217682  1
  O2-  O479  1  0.92001668  0.83274281  0.86399281  1
  O2-  O480  1  0.16580228  0.07372529  0.31121288  1
  O2-  O481  1  0.18196107  0.08732015  0.64506796  1
  O2-  O482  1  0.16050124  0.08247427  0.97789694  1
  O2-  O483  1  0.18616263  0.34604950  0.28182201  1
  O2-  O484  1  0.20323662  0.32868771  0.63424684  1
  O2-  O485  1  0.15441818  0.33240210  0.97518750  1
  O2-  O486  1  0.17122296  0.58193164  0.30873534  1
  O2-  O487  1  0.18266853  0.58800037  0.62426865  1
  O2-  O488  1  0.16666444  0.58764521  0.97903207  1
  O2-  O489  1  0.17944564  0.82708688  0.29842382  1
  O2-  O490  1  0.18435696  0.84171785  0.63867824  1
  O2-  O491  1  0.15969166  0.82630681  1.05216883  1
  O2-  O492  1  0.41913973  0.08318919  0.31089066  1
  O2-  O493  1  0.42580931  0.09539201  0.64767459  1
  O2-  O494  1  0.38900520  0.07522290  0.97817959  1
  O2-  O495  1  0.42746362  0.30768370  0.31571796  1
  O2-  O496  1  0.43744001  0.34027124  0.66494432  1
  O2-  O497  1  0.41708837  0.32922080  0.97364742  1
  O2-  O498  1  0.41674528  0.56949622  0.29053792  1
  O2-  O499  1  0.44870653  0.57974174  0.64260169  1
  O2-  O500  1  0.42386971  0.59635726  0.97520378  1
  O2-  O501  1  0.41284381  0.82520531  0.31192674  1
  O2-  O502  1  0.46141648  0.87300423  0.63685043  1
  O2-  O503  1  0.41149219  0.83882392  0.97947788  1
  O2-  O504  1  0.66215708  0.07671997  0.33151656  1
  O2-  O505  1  0.66866493  0.08506456  0.63754882  1
  O2-  O506  1  0.66398709  0.07424305  0.97590013  1
  O2-  O507  1  0.67497666  0.34286035  0.30945530  1
  O2-  O508  1  0.66296692  0.33895757  0.64922102  1
  O2-  O509  1  0.66541746  0.33123062  0.95351014  1
  O2-  O510  1  0.66885847  0.58489604  0.37023977  1
  O2-  O511  1  0.67546260  0.57590234  0.64811960  1
  O2-  O512  1  0.65313976  0.57057937  0.97730451  1
  O2-  O513  1  0.64605711  0.82860092  0.30923243  1
  O2-  O514  1  0.69223423  0.83741074  0.66350036  1
  O2-  O515  1  0.67433370  0.83050742  0.98086570  1
  O2-  O516  1  0.89294959  0.06851718  0.33072677  1
  O2-  O517  1  0.93690931  0.08388102  0.63885072  1
  O2-  O518  1  0.91547769  0.08188763  0.97631185  1
  O2-  O519  1  0.92734374  0.35822794  0.30304362  1
  O2-  O520  1  0.93166022  0.38223601  0.62411009  1
  O2-  O521  1  0.91448088  0.32870132  0.97425966  1
  O2-  O522  1  0.92137181  0.59343392  0.31630381  1
  O2-  O523  1  0.91129978  0.57934069  0.64296615  1
  O2-  O524  1  0.91280118  0.57077300  0.97504827  1
  O2-  O525  1  0.92774997  0.84017117  0.31895763  1
  O2-  O526  1  0.91157819  0.82970709  0.64562071  1
  O2-  O527  1  0.92224866  0.83855609  0.98825651  1
  O2-  O528  1  0.08078877  0.17051944  0.02036463  1
  O2-  O529  1  0.06551837  0.12149722  0.35972475  1
  O2-  O530  1  0.09920924  0.17029514  0.68305404  1
  O2-  O531  1  0.07290468  0.41989565  0.01256303  1
  O2-  O532  1  0.08109705  0.41379003  0.33836710  1
  O2-  O533  1  0.06827167  0.46091478  0.69065294  1
  O2-  O534  1  0.07364285  0.65911059  0.02281205  1
  O2-  O535  1  0.09112561  0.66711636  0.34952283  1
  O2-  O536  1  0.05783923  0.60989716  0.69966478  1
  O2-  O537  1  0.08416749  0.92392607  0.03424209  1
  O2-  O538  1  0.10578943  0.91371373  0.34794685  1
  O2-  O539  1  0.08727176  0.91817237  0.67975355  1
  O2-  O540  1  0.32117029  0.16506369  0.01645035  1
  O2-  O541  1  0.32764249  0.15401118  0.35778296  1
  O2-  O542  1  0.34394851  0.17489518  0.69528235  1
  O2-  O543  1  0.33935834  0.42971738  -0.02384232  1
  O2-  O544  1  0.35265749  0.39609670  0.26958893  1
  O2-  O545  1  0.35743762  0.42221652  0.69449603  1
  O2-  O546  1  0.33394956  0.67230391  0.01502701  1
  O2-  O547  1  0.33598995  0.65064950  0.34368166  1
  O2-  O548  1  0.36615277  0.61321858  0.73283615  1
  O2-  O549  1  0.33137538  0.92542814  0.02707639  1
  O2-  O550  1  0.34027695  0.91646040  0.34774940  1
  O2-  O551  1  0.35472353  0.92780435  0.68429138  1
  O2-  O552  1  0.59905632  0.17218785  0.01779701  1
  O2-  O553  1  0.55084996  0.19764248  0.36755017  1
  O2-  O554  1  0.59038683  0.17180391  0.69221304  1
  O2-  O555  1  0.58361740  0.40183266  0.00953763  1
  O2-  O556  1  0.58924872  0.41231024  0.36273378  1
  O2-  O557  1  0.59363625  0.42349415  0.68917985  1
  O2-  O558  1  0.58376431  0.66597561  0.01967907  1
  O2-  O559  1  0.56866378  0.66106550  0.35135280  1
  O2-  O560  1  0.61307907  0.67471485  0.68256920  1
  O2-  O561  1  0.58391086  0.90542366  0.01507149  1
  O2-  O562  1  0.57952430  0.90925507  0.35780431  1
  O2-  O563  1  0.60952342  0.91773904  0.69717330  1
  O2-  O564  1  0.83398111  0.16596030  0.02322045  1
  O2-  O565  1  0.82299609  0.15404783  0.39543461  1
  O2-  O566  1  0.84006212  0.15827149  0.69194032  1
  O2-  O567  1  0.81887717  0.39844457  0.00832797  1
  O2-  O568  1  0.84411910  0.42672920  0.35019238  1
  O2-  O569  1  0.82046208  0.41525216  0.69379398  1
  O2-  O570  1  0.82123794  0.65740953  -0.01631958  1
  O2-  O571  1  0.84720875  0.68613007  0.36511608  1
  O2-  O572  1  0.83779341  0.66734889  0.69211656  1
  O2-  O573  1  0.83514877  0.92029832  0.03081484  1
  O2-  O574  1  0.79469541  0.89616755  0.35981249  1
  O2-  O575  1  0.84488642  0.91585245  0.69159121  1
