# generated using pymatgen
data_H2O
_symmetry_space_group_name_H-M   'P 1'
_cell_length_a   17.98433258
_cell_length_b   17.99189859
_cell_length_c   22.01189922
_cell_angle_alpha   89.98522314
_cell_angle_beta   90.01095008
_cell_angle_gamma   119.98138859
_symmetry_Int_Tables_number   1
_chemical_formula_structural   H2O
_chemical_formula_sum   'H384 O192'
_cell_volume   6169.37073938
_cell_formula_units_Z   192
loop_
 _symmetry_equiv_pos_site_id
 _symmetry_equiv_pos_as_xyz
  1  'x, y, z'
loop_
 _atom_type_symbol
 _atom_type_oxidation_number
  H+  1.0
  O2-  -2.0
loop_
 _atom_site_type_symbol
 _atom_site_label
 _atom_site_symmetry_multiplicity
 _atom_site_fract_x
 _atom_site_fract_y
 _atom_site_fract_z
 _atom_site_occupancy
  H+  H0  1  0.49525062  0.10897342  0.31752331  1
  H+  H1  1  0.39158920  0.25846585  0.16959166  1
  H+  H2  1  0.18125406  0.16493494  0.90963621  1
  H+  H3  1  0.61667964  0.15249803  0.81312598  1
  H+  H4  1  0.63299366  0.36583551  0.50623991  1
  H+  H5  1  0.63368843  0.35375109  0.33197437  1
  H+  H6  1  0.85576147  1.00086045  0.34392559  1
  H+  H7  1  0.89359685  0.27981630  0.17857526  1
  H+  H8  1  0.11830587  0.83293639  1.00886815  1
  H+  H9  1  0.27454986  0.13179779  0.15783705  1
  H+  H10  1  0.32810798  0.62920792  0.83527535  1
  H+  H11  1  0.85373793  0.28188226  0.85473973  1
  H+  H12  1  0.12214797  0.02406162  0.50081088  1
  H+  H13  1  0.28166028  0.90149286  0.00030962  1
  H+  H14  1  0.10686470  0.97454841  0.34817246  1
  H+  H15  1  0.47624545  0.87375565  0.50702596  1
  H+  H16  1  0.87662182  0.85348383  0.16727532  1
  H+  H17  1  0.23695760  0.36094566  0.32855431  1
  H+  H18  1  0.48270186  0.61910355  0.65715112  1
  H+  H19  1  0.15218482  0.52280859  0.66401653  1
  H+  H20  1  0.62279419  0.37862984  0.16516376  1
  H+  H21  1  0.62804381  0.97521742  0.34120158  1
  H+  H22  1  0.27469970  0.64581915  0.50436875  1
  H+  H23  1  0.61602385  0.61446282  0.18202989  1
  H+  H24  1  0.35299996  0.22052343  0.50260615  1
  H+  H25  1  0.87765477  0.95966196  0.80124413  1
  H+  H26  1  0.12325603  0.38826794  0.34139394  1
  H+  H27  1  0.26759089  0.64810787  0.16419118  1
  H+  H28  1  0.10691109  0.72867899  0.15698655  1
  H+  H29  1  0.13968746  0.26899425  0.49096595  1
  H+  H30  1  0.38460158  0.61150692  0.50943009  1
  H+  H31  1  0.71321683  0.11839181  0.49465428  1
  H+  H32  1  0.70681045  0.85753605  0.50137463  1
  H+  H33  1  0.64954849  0.87435512  0.17792339  1
  H+  H34  1  0.60926351  -0.02387565  1.00094093  1
  H+  H35  1  0.61368204  0.63414914  0.33868767  1
  H+  H36  1  -0.01695374  0.82449675  0.01686338  1
  H+  H37  1  0.38568372  1.02115581  0.67002919  1
  H+  H38  1  0.17525147  0.32707666  0.27091821  1
  H+  H39  1  0.37748347  0.63891897  0.64807792  1
  H+  H40  1  0.81423803  0.36963739  0.84062584  1
  H+  H41  1  0.24543227  0.17322913  0.96483881  1
  H+  H42  1  0.52042034  0.38502195  0.49879902  1
  H+  H43  1  0.38203119  0.48885226  -0.00009757  1
  H+  H44  1  0.01971882  0.65334813  0.82877117  1
  H+  H45  1  0.84794222  0.85450435  0.36356263  1
  H+  H46  1  0.93103358  0.90103712  0.29524991  1
  H+  H47  1  0.53219730  0.63950604  0.81958672  1
  H+  H48  1  0.11034100  0.13717824  0.48938796  1
  H+  H49  1  1.02137300  0.15113015  0.33623075  1
  H+  H50  1  0.39502483  1.02317329  0.32823211  1
  H+  H51  1  0.30521780  0.61069984  0.90416401  1
  H+  H52  1  0.13312429  0.86473025  0.17155134  1
  H+  H53  1  0.58458105  0.91808746  0.43527108  1
  H+  H54  1  0.51743836  0.63523381  0.33168655  1
  H+  H55  1  0.88606455  0.14492203  0.31281226  1
  H+  H56  1  0.27223488  0.89186543  0.15330536  1
  H+  H57  1  0.85186407  0.87847100  0.00812989  1
  H+  H58  1  0.72201016  0.61858650  0.33229044  1
  H+  H59  1  0.73582777  0.86247733  0.83412790  1
  H+  H60  1  0.61615120  0.97383945  0.67105497  1
  H+  H61  1  0.63909230  0.25072334  0.80430579  1
  H+  H62  1  0.42044598  0.58139481  0.59766867  1
  H+  H63  1  0.04193414  0.40142765  0.67893660  1
  H+  H64  1  0.69883249  0.10919226  0.96497057  1
  H+  H65  1  0.63942215  0.86155020  0.33267759  1
  H+  H66  1  0.36264007  0.44450865  0.81834606  1
  H+  H67  1  1.06818099  0.12385898  0.84827899  1
  H+  H68  1  0.22574006  0.35931364  0.66160205  1
  H+  H69  1  0.39546856  0.27769200  0.66654195  1
  H+  H70  1  0.82528176  0.00924041  0.86777264  1
  H+  H71  1  0.14895864  0.61210516  0.66719683  1
  H+  H72  1  0.89722360  0.48317513  0.32240469  1
  H+  H73  1  0.16754414  0.07625986  0.23568206  1
  H+  H74  1  0.21553254  0.41903666  0.20500873  1
  H+  H75  1  0.65144527  0.87338762  0.83710343  1
  H+  H76  1  1.02896646  0.13906125  0.71263349  1
  H+  H77  1  0.69083557  0.22406392  0.05374887  1
  H+  H78  1  0.91986243  0.11332858  0.53720879  1
  H+  H79  1  0.11314410  0.89094796  0.49562472  1
  H+  H80  1  0.23302742  0.85057273  0.66982270  1
  H+  H81  1  0.76432874  0.13605438  0.66823463  1
  H+  H82  1  0.91480131  0.57756175  0.27574808  1
  H+  H83  1  0.13829220  0.51835366  0.32501444  1
  H+  H84  1  0.12333492  -0.00472698  0.98310860  1
  H+  H85  1  0.37756895  0.14700784  0.68654364  1
  H+  H86  1  0.12591506  0.39179801  0.67473245  1
  H+  H87  1  0.84785555  0.64967989  0.82211560  1
  H+  H88  1  0.27619205  0.63765199  0.64998810  1
  H+  H89  1  0.85896659  0.73890460  0.33894127  1
  H+  H90  1  0.40276623  0.63249011  1.01266713  1
  H+  H91  1  0.67212085  0.83315465  0.93109824  1
  H+  H92  1  0.88970310  0.37430007  0.99851001  1
  H+  H93  1  0.48245075  0.36878613  0.66101872  1
  H+  H94  1  0.37055232  0.10981803  0.52000957  1
  H+  H95  1  0.14070165  0.10907798  0.17691379  1
  H+  H96  1  0.76675196  0.88424611  0.00717540  1
  H+  H97  1  0.09561531  0.22527637  0.01903159  1
  H+  H98  1  0.74800411  0.62260957  0.17499026  1
  H+  H99  1  0.63039337  0.24501780  1.01259569  1
  H+  H100  1  0.13107892  0.60277887  0.32827913  1
  H+  H101  1  0.61070356  0.46916151  0.34679158  1
  H+  H102  1  0.38386522  1.01743574  0.17257595  1
  H+  H103  1  0.62248414  0.35273182  0.98938670  1
  H+  H104  1  0.35451541  0.22203147  0.84860492  1
  H+  H105  1  0.13155848  0.02911285  0.64896541  1
  H+  H106  1  0.61352331  0.13171159  0.16776246  1
  H+  H107  1  0.89807920  0.84791271  0.50841181  1
  H+  H108  1  0.88916107  0.28493076  0.66462549  1
  H+  H109  1  0.11791218  0.22376162  0.33928352  1
  H+  H110  1  0.61203722  0.97666214  0.82401406  1
  H+  H111  1  0.72973195  0.61558857  0.65845363  1
  H+  H112  1  0.26247908  0.61747926  0.34370656  1
  H+  H113  1  0.36387624  0.89802441  0.49491552  1
  H+  H114  1  0.40019753  0.79341205  0.16461219  1
  H+  H115  1  0.80065152  0.15763241  0.02385278  1
  H+  H116  1  0.62592439  0.12078265  0.99398772  1
  H+  H117  1  0.08830774  0.35387079  0.84583808  1
  H+  H118  1  0.38665704  0.78653217  0.51232073  1
  H+  H119  1  0.63542176  0.47830253  0.00658691  1
  H+  H120  1  0.13823362  0.22368768  0.84150458  1
  H+  H121  1  0.47647644  0.10610091  0.17500847  1
  H+  H122  1  0.40039408  0.80738780  0.30884354  1
  H+  H123  1  0.59790324  0.70894028  0.49861037  1
  H+  H124  1  0.59775600  0.92394794  0.06282785  1
  H+  H125  1  0.90411241  0.29362088  -0.00542947  1
  H+  H126  1  -0.00555039  0.36598329  0.50819004  1
  H+  H127  1  0.12521893  0.10231996  0.32701582  1
  H+  H128  1  0.21584392  0.10611076  0.33307231  1
  H+  H129  1  0.37549457  0.01577101  0.87593475  1
  H+  H130  1  0.14328099  0.36710280  0.49572010  1
  H+  H131  1  0.37588451  0.89160603  0.84002283  1
  H+  H132  1  0.55203935  0.64058890  0.01552667  1
  H+  H133  1  0.85142594  0.14199076  0.85248537  1
  H+  H134  1  0.72642035  0.35385971  0.17549861  1
  H+  H135  1  0.38825120  0.03172506  0.97726957  1
  H+  H136  1  0.47094514  0.60354606  0.50667841  1
  H+  H137  1  0.13091383  0.11750964  0.65302022  1
  H+  H138  1  0.62188804  0.11166642  0.50504067  1
  H+  H139  1  0.53016235  0.38175989  0.84161266  1
  H+  H140  1  0.60655461  0.73791726  0.81808788  1
  H+  H141  1  0.11293648  0.15231585  0.00490632  1
  H+  H142  1  0.61267743  0.72417623  0.66475650  1
  H+  H143  1  0.86377985  0.00715796  0.48098354  1
  H+  H144  1  0.40615190  0.88294743  0.15794223  1
  H+  H145  1  0.08632669  0.17010548  0.42611213  1
  H+  H146  1  0.48052784  0.87082572  1.00312259  1
  H+  H147  1  0.63965845  0.61420200  0.65842430  1
  H+  H148  1  0.62269900  0.22621222  0.32889787  1
  H+  H149  1  0.13797524  0.27523147  0.67506215  1
  H+  H150  1  0.60126104  0.51856495  0.18891471  1
  H+  H151  1  0.83701844  0.70773917  0.15992888  1
  H+  H152  1  0.37156722  0.47715205  0.33457006  1
  H+  H153  1  0.73167268  0.34512138  0.65840539  1
  H+  H154  1  0.63742805  0.86149392  0.98914793  1
  H+  H155  1  0.35736601  0.98338169  0.50039987  1
  H+  H156  1  0.39520523  0.87900883  0.34645946  1
  H+  H157  1  0.87936255  0.01653156  1.00126216  1
  H+  H158  1  0.37008159  0.38531339  0.66607550  1
  H+  H159  1  0.90712947  0.08881156  0.77493146  1
  H+  H160  1  0.73875844  0.12169442  0.17163204  1
  H+  H161  1  0.11279238  0.39300630  0.14873147  1
  H+  H162  1  0.02459646  0.64468491  0.33855519  1
  H+  H163  1  0.13240662  0.52836335  0.16787700  1
  H+  H164  1  0.85158924  0.46737386  0.00417382  1
  H+  H165  1  0.38712382  0.64702539  0.17396984  1
  H+  H166  1  0.39962082  0.37066442  -0.04036034  1
  H+  H167  1  0.98388080  0.87994386  0.34468323  1
  H+  H168  1  0.77637749  0.88680224  0.16387044  1
  H+  H169  1  0.48362964  0.86450515  0.66201764  1
  H+  H170  1  0.37539816  0.73845176  0.64982107  1
  H+  H171  1  0.18058196  0.81781825  1.04766965  1
  H+  H172  1  0.24456487  0.36836796  0.98729961  1
  H+  H173  1  0.75737896  0.64232169  0.82177981  1
  H+  H174  1  0.61234176  0.72968153  0.33388257  1
  H+  H175  1  0.13623810  0.61087693  0.51516145  1
  H+  H176  1  0.63259313  0.10303226  0.65613372  1
  H+  H177  1  0.84530580  0.75198425  0.97344684  1
  H+  H178  1  0.34735493  0.92311017  0.74533951  1
  H+  H179  1  0.66573898  0.07792359  0.59594788  1
  H+  H180  1  0.26012597  0.13432984  0.49982406  1
  H+  H181  1  0.87945694  0.11584132  0.71513855  1
  H+  H182  1  -0.06501476  0.35284993  0.27041461  1
  H+  H183  1  0.13162432  0.63723917  0.84312776  1
  H+  H184  1  0.22481354  0.86594148  0.51007780  1
  H+  H185  1  0.83682298  0.66867623  0.43763390  1
  H+  H186  1  0.23848581  0.36591852  0.49272089  1
  H+  H187  1  0.62345584  0.39364358  0.82410130  1
  H+  H188  1  0.38705397  0.61021173  0.32784768  1
  H+  H189  1  0.86993691  0.72640654  0.66837820  1
  H+  H190  1  0.13720359  0.77643190  0.51533084  1
  H+  H191  1  0.85534313  0.18081253  0.10899079  1
  H+  H192  1  0.24082371  0.36489876  0.16417002  1
  H+  H193  1  0.88656814  0.01852730  0.17339778  1
  H+  H194  1  0.36762116  0.14883621  -0.01346333  1
  H+  H195  1  0.91782714  0.58910173  0.74815553  1
  H+  H196  1  0.03801115  0.89755780  0.67445285  1
  H+  H197  1  0.87954858  0.14361345  0.01267807  1
  H+  H198  1  0.39223528  0.56348875  0.16527200  1
  H+  H199  1  0.85390409  0.46790469  0.14622556  1
  H+  H200  1  0.47995764  0.34943488  0.17007419  1
  H+  H201  1  0.15212760  0.79613906  0.33214508  1
  H+  H202  1  0.60334039  0.62314731  0.50029597  1
  H+  H203  1  0.66653993  0.32975923  0.27032139  1
  H+  H204  1  0.87333970  0.87685702  0.82366688  1
  H+  H205  1  0.81928051  0.40505564  0.06253313  1
  H+  H206  1  0.65551867  0.47104902  0.14076294  1
  H+  H207  1  0.40503129  0.57304361  0.86647572  1
  H+  H208  1  0.17195786  0.52110508  0.97728058  1
  H+  H209  1  0.28969447  0.89803867  0.83299774  1
  H+  H210  1  0.38689317  0.35872466  0.51315278  1
  H+  H211  1  0.70937993  0.35277831  0.97812580  1
  H+  H212  1  0.10948625  0.38092368  0.99802330  1
  H+  H213  1  -0.02894728  0.10452810  0.00016351  1
  H+  H214  1  0.87141548  0.13980567  0.16762663  1
  H+  H215  1  0.98658755  0.13735766  0.48351087  1
  H+  H216  1  -0.03477672  0.61436201  0.14084675  1
  H+  H217  1  0.37145950  0.38768749  0.33705816  1
  H+  H218  1  0.10734733  0.97255325  0.16286075  1
  H+  H219  1  0.74737908  0.84586293  0.35710905  1
  H+  H220  1  0.69209753  0.62361987  1.00776334  1
  H+  H221  1  0.89049388  0.61340172  0.50751923  1
  H+  H222  1  0.76988654  0.38169463  0.50011008  1
  H+  H223  1  0.86885366  0.60394071  0.15042418  1
  H+  H224  1  0.35965852  0.47587404  0.49289134  1
  H+  H225  1  0.86152226  -0.03253918  0.68180064  1
  H+  H226  1  0.37118198  0.74078118  0.01551523  1
  H+  H227  1  0.61064949  0.47519435  0.49648340  1
  H+  H228  1  0.76036377  0.33006210  0.35411372  1
  H+  H229  1  0.47660299  0.35724049  0.32928964  1
  H+  H230  1  0.85699751  0.47658303  0.69919561  1
  H+  H231  1  0.85121992  0.51822677  0.84262624  1
  H+  H232  1  0.06647731  0.42499418  0.86234372  1
  H+  H233  1  0.36147282  0.12950266  0.15596540  1
  H+  H234  1  0.36762194  0.47407832  0.66787146  1
  H+  H235  1  0.14848937  0.80528901  0.83160549  1
  H+  H236  1  0.88265354  0.59768250  0.06088166  1
  H+  H237  1  0.84111457  0.23155343  0.45698124  1
  H+  H238  1  0.39637992  0.27620874  -0.03307398  1
  H+  H239  1  0.47719277  0.10601991  0.66125849  1
  H+  H240  1  0.40690517  0.76775921  0.86300367  1
  H+  H241  1  0.61968864  0.20753189  0.65784104  1
  H+  H242  1  0.52895536  0.66187467  0.15787494  1
  H+  H243  1  0.72749470  0.61142447  0.50634667  1
  H+  H244  1  0.11005903  0.21986431  0.16543246  1
  H+  H245  1  1.03123838  0.63019950  0.68761579  1
  H+  H246  1  0.49787106  0.12955219  0.51208147  1
  H+  H247  1  -0.02650331  0.60581620  -0.00890114  1
  H+  H248  1  0.48843925  0.85879522  0.84729984  1
  H+  H249  1  0.34727375  0.21904329  0.34629458  1
  H+  H250  1  0.64553241  0.78353084  0.17952815  1
  H+  H251  1  0.77684339  0.14155693  0.37468955  1
  H+  H252  1  -0.02204118  0.37059475  0.16912287  1
  H+  H253  1  0.86629681  0.65743665  0.32674259  1
  H+  H254  1  0.63432921  0.73119122  0.00925728  1
  H+  H255  1  0.63569916  0.26460755  0.17959943  1
  H+  H256  1  0.61946455  0.85658458  0.50542395  1
  H+  H257  1  0.72588649  0.85969826  0.65377658  1
  H+  H258  1  0.13578027  0.87474133  0.33299067  1
  H+  H259  1  0.61224603  0.47821099  0.67444353  1
  H+  H260  1  0.53257874  0.89206854  0.34653748  1
  H+  H261  1  0.85456037  -0.01775743  0.31320139  1
  H+  H262  1  0.15087440  0.56396229  0.82349198  1
  H+  H263  1  0.12585091  0.48063393  0.49636376  1
  H+  H264  1  0.71393052  0.11630497  0.84135675  1
  H+  H265  1  0.88998379  0.52464396  0.50782821  1
  H+  H266  1  0.66066300  0.11632783  0.31914780  1
  H+  H267  1  0.63567985  0.52308051  0.84546382  1
  H+  H268  1  0.84466472  0.92585367  0.51955500  1
  H+  H269  1  0.61024811  0.97910638  0.49357853  1
  H+  H270  1  0.89884708  0.07292928  0.91052803  1
  H+  H271  1  0.15694511  0.99214164  -0.03521756  1
  H+  H272  1  0.38019540  0.44630889  0.14301144  1
  H+  H273  1  0.85387098  0.15124198  0.46422160  1
  H+  H274  1  0.58813753  0.16810876  0.11028976  1
  H+  H275  1  0.89799032  0.85726367  0.64900054  1
  H+  H276  1  0.37157701  0.89051833  0.68483738  1
  H+  H277  1  0.82845860  0.88765437  0.72262162  1
  H+  H278  1  0.93385867  0.27733675  0.53907921  1
  H+  H279  1  0.19544686  0.27359530  0.96525831  1
  H+  H280  1  0.86544717  0.48958341  0.34089773  1
  H+  H281  1  0.87419939  0.72925803  0.49773730  1
  H+  H282  1  0.34637729  0.13047975  0.85030408  1
  H+  H283  1  0.28038585  0.90907492  0.34382249  1
  H+  H284  1  0.91135243  0.83532807  0.93732105  1
  H+  H285  1  0.62663332  0.27390436  0.50819091  1
  H+  H286  1  0.86256491  0.39019856  0.69048666  1
  H+  H287  1  0.63275055  0.98434085  0.15543149  1
  H+  H288  1  0.44208476  0.62311879  0.95264169  1
  H+  H289  1  0.57924752  0.40903576  0.40493759  1
  H+  H290  1  0.17697016  0.33320532  0.89371324  1
  H+  H291  1  0.79407482  0.39875754  0.76918544  1
  H+  H292  1  0.53831324  0.16809315  0.44959298  1
  H+  H293  1  0.06937516  0.65200146  0.05628475  1
  H+  H294  1  0.59871716  0.68109594  0.10428998  1
  H+  H295  1  0.58509390  0.91338734  0.76735719  1
  H+  H296  1  0.29094391  0.64476821  0.00685896  1
  H+  H297  1  0.10795457  0.99078889  0.83174204  1
  H+  H298  1  0.12366838  0.71717811  0.67809770  1
  H+  H299  1  0.68258355  0.08343656  0.23077562  1
  H+  H300  1  0.31686390  0.16196571  0.40617366  1
  H+  H301  1  0.17518306  0.82461689  0.60945681  1
  H+  H302  1  0.18643112  0.58954326  0.92550550  1
  H+  H303  1  0.42431569  0.84758860  0.60228190  1
  H+  H304  1  0.42429314  0.84096020  0.94323963  1
  H+  H305  1  0.41929035  0.32657118  0.26875158  1
  H+  H306  1  0.32925819  0.67864822  0.10489069  1
  H+  H307  1  0.63536539  0.08053388  0.88807427  1
  H+  H308  1  0.92862478  0.07574712  0.61397773  1
  H+  H309  1  0.92460820  0.35242757  0.61117442  1
  H+  H310  1  0.83052302  0.91216521  0.10123478  1
  H+  H311  1  0.67566213  0.83740302  0.27227532  1
  H+  H312  1  0.85602372  0.19161810  0.79357517  1
  H+  H313  1  0.76822908  0.60031223  1.00148469  1
  H+  H314  1  0.35331858  0.41106460  0.04621514  1
  H+  H315  1  0.09707407  0.42410658  0.43372936  1
  H+  H316  1  0.00955968  0.56945741  0.38021798  1
  H+  H317  1  0.22507783  0.35517983  0.82880599  1
  H+  H318  1  0.33395763  0.67788524  0.44584910  1
  H+  H319  1  0.11269458  0.16567631  0.75034428  1
  H+  H320  1  0.58930357  0.41305760  0.06077210  1
  H+  H321  1  0.29009562  0.62300300  0.75843355  1
  H+  H322  1  0.32192961  0.40145887  0.75470611  1
  H+  H323  1  0.08504944  0.42384647  0.08996123  1
  H+  H324  1  0.89313812  0.34596367  0.33672265  1
  H+  H325  1  0.66052447  0.83045744  0.59697816  1
  H+  H326  1  0.10428215  0.63851319  0.15836375  1
  H+  H327  1  0.45455114  0.52667188  0.89383662  1
  H+  H328  1  0.79022581  0.19429108  0.72449217  1
  H+  H329  1  0.03231913  0.40015698  -0.00315381  1
  H+  H330  1  0.60723513  0.16014448  0.38207514  1
  H+  H331  1  0.01710278  0.88256221  0.16422343  1
  H+  H332  1  0.07797707  0.91384059  0.41064855  1
  H+  H333  1  0.08412307  0.66539160  0.45065832  1
  H+  H334  1  0.01457360  0.87405836  0.49635477  1
  H+  H335  1  0.89658343  0.58182640  0.89673288  1
  H+  H336  1  0.66887580  0.58065295  0.56613011  1
  H+  H337  1  0.42169470  0.59864725  0.26295737  1
  H+  H338  1  0.57770551  0.41929834  0.73331549  1
  H+  H339  1  0.68157569  0.32182257  0.59455839  1
  H+  H340  1  0.89745451  0.81048116  0.22347415  1
  H+  H341  1  0.03549331  0.39395950  0.34095152  1
  H+  H342  1  0.89039509  0.35281711  0.90662383  1
  H+  H343  1  0.82555401  0.67457790  0.73077301  1
  H+  H344  1  0.95849032  0.66585655  0.24271393  1
  H+  H345  1  0.97714491  0.10612929  0.17255522  1
  H+  H346  1  0.36500552  0.35461019  0.14850131  1
  H+  H347  1  0.81504339  0.35916424  0.41431044  1
  H+  H348  1  0.41782820  0.32970766  0.57299148  1
  H+  H349  1  0.33302048  0.93026378  0.09361114  1
  H+  H350  1  0.10656184  0.94899997  0.72734250  1
  H+  H351  1  0.35014793  0.17896027  0.74540745  1
  H+  H352  1  0.54193626  0.89774765  0.15248149  1
  H+  H353  1  0.88048966  0.05448842  0.60900485  1
  H+  H354  1  0.20322474  0.04876110  0.80999231  1
  H+  H355  1  0.61523288  0.88439072  0.67233113  1
  H+  H356  1  0.28751831  0.56934894  0.39055347  1
  H+  H357  1  0.14780038  0.08467161  0.56146997  1
  H+  H358  1  0.33763710  0.93728910  0.40549783  1
  H+  H359  1  0.16961198  0.83987384  0.22909229  1
  H+  H360  1  0.17305316  0.90396806  0.82942189  1
  H+  H361  1  0.93221789  0.82519800  0.59325168  1
  H+  H362  1  0.92863715  0.12046880  0.26006613  1
  H+  H363  1  0.65378638  0.58214750  0.27714591  1
  H+  H364  1  0.86046457  0.38272021  0.15897842  1
  H+  H365  1  0.88366644  0.61483456  0.69130355  1
  H+  H366  1  0.68195030  0.58079604  0.90271472  1
  H+  H367  1  0.57701318  0.67159553  0.72581452  1
  H+  H368  1  0.10142497  0.70855218  0.99799392  1
  H+  H369  1  0.58888767  0.16311393  0.72238416  1
  H+  H370  1  0.29825755  0.66835456  0.76149194  1
  H+  H371  1  0.08434438  0.16302180  0.10543270  1
  H+  H372  1  0.33922268  0.41831188  0.43180473  1
  H+  H373  1  0.80880303  0.88665723  0.42207809  1
  H+  H374  1  0.85800389  0.38151464  0.50811169  1
  H+  H375  1  0.15870442  0.58212301  0.23022337  1
  H+  H376  1  0.42435683  0.07578578  0.25638671  1
  H+  H377  1  0.34349136  0.18236067  0.04664151  1
  H+  H378  1  0.40234934  0.07852287  0.58030413  1
  H+  H379  1  0.08347165  0.67640884  0.77187683  1
  H+  H380  1  1.02108630  0.63410228  0.50746280  1
  H+  H381  1  0.04764959  0.86645239  0.07267089  1
  H+  H382  1  0.37081426  0.90202166  0.00348839  1
  H+  H383  1  0.17038035  0.58026420  0.57163756  1
  O2-  O384  1  0.08521202  0.16082916  0.15106607  1
  O2-  O385  1  0.08646429  0.17527934  0.47209247  1
  O2-  O386  1  0.12781420  0.16264998  0.83718578  1
  O2-  O387  1  0.08304171  0.42366580  0.13562894  1
  O2-  O388  1  0.09745195  0.42030160  0.47952818  1
  O2-  O389  1  0.03984250  0.36431185  0.85282151  1
  O2-  O390  1  0.07464559  0.66843422  0.14172515  1
  O2-  O391  1  0.08507229  0.66542070  0.49525965  1
  O2-  O392  1  0.08057252  0.68513741  0.81687346  1
  O2-  O393  1  0.07740044  0.91110768  0.14974432  1
  O2-  O394  1  0.07809619  0.91475739  0.47826840  1
  O2-  O395  1  0.00569472  0.96770708  0.87344633  1
  O2-  O396  1  0.33400418  0.16180052  0.14035446  1
  O2-  O397  1  0.32175612  0.16011933  0.48729170  1
  O2-  O398  1  0.32456266  0.16403123  0.82897464  1
  O2-  O399  1  0.33845952  0.38818165  0.13028587  1
  O2-  O400  1  0.33112457  0.41495559  0.47682652  1
  O2-  O401  1  0.31440973  0.39361926  0.79970074  1
  O2-  O402  1  0.32902763  0.68053988  0.15071175  1
  O2-  O403  1  0.33627869  0.67908970  0.49060695  1
  O2-  O404  1  0.35460610  0.63590259  0.87541914  1
  O2-  O405  1  0.33290514  0.92588759  0.13901858  1
  O2-  O406  1  0.33208468  0.92640357  0.47892412  1
  O2-  O407  1  0.35463929  0.92958258  0.82573491  1
  O2-  O408  1  0.57956841  0.15968753  0.15540882  1
  O2-  O409  1  0.55614724  0.16030460  0.48973778  1
  O2-  O410  1  0.60012278  0.18951279  0.79091781  1
  O2-  O411  1  0.60172845  0.41776491  0.14849564  1
  O2-  O412  1  0.57961439  0.41447626  0.48077259  1
  O2-  O413  1  0.58410619  0.41759999  0.81836975  1
  O2-  O414  1  0.59050889  0.68159187  0.14982973  1
  O2-  O415  1  0.56738034  0.64801909  0.48644305  1
  O2-  O416  1  0.56099197  0.69106733  0.79390132  1
  O2-  O417  1  0.60437213  0.92388577  0.14040187  1
  O2-  O418  1  0.57977127  0.91749651  0.48048829  1
  O2-  O419  1  0.58808034  0.91492093  0.81280507  1
  O2-  O420  1  0.84508391  0.17468551  0.15351855  1
  O2-  O421  1  0.81162767  0.16903730  0.45246331  1
  O2-  O422  1  0.82953472  0.17821934  0.83377249  1
  O2-  O423  1  0.82245301  0.40397332  0.14206208  1
  O2-  O424  1  0.83110420  0.40907855  0.48585472  1
  O2-  O425  1  0.78383779  0.40123994  0.81634284  1
  O2-  O426  1  0.80536502  0.64439269  0.15689217  1
  O2-  O427  1  0.83520640  0.66612332  0.48218229  1
  O2-  O428  1  0.81674468  0.67607436  0.80377382  1
  O2-  O429  1  0.83590138  0.91285446  0.14678643  1
  O2-  O430  1  0.82747685  0.94219029  0.48201105  1
  O2-  O431  1  0.83869241  0.89763467  0.80131568  1
  O2-  O432  1  0.17043371  0.07774292  0.19009534  1
  O2-  O433  1  0.14985608  0.08549115  0.51371254  1
  O2-  O434  1  0.15339622  -0.00929269  0.80664171  1
  O2-  O435  1  0.19108133  0.36193270  0.18692239  1
  O2-  O436  1  0.17344041  0.33274944  0.50510067  1
  O2-  O437  1  0.16616877  0.32245933  0.84969787  1
  O2-  O438  1  0.16043227  0.58760568  0.18502995  1
  O2-  O439  1  0.16950499  0.58126065  0.52585916  1
  O2-  O440  1  0.16392452  0.60694797  0.85472431  1
  O2-  O441  1  0.16621214  0.83548347  0.18426495  1
  O2-  O442  1  0.16608727  0.83791661  0.52764626  1
  O2-  O443  1  0.19132585  0.86366660  0.84448920  1
  O2-  O444  1  0.41621343  0.07685011  0.19190499  1
  O2-  O445  1  0.40243900  0.08011909  0.53382158  1
  O2-  O446  1  0.35817382  0.05396449  0.89764219  1
  O2-  O447  1  0.42030758  0.31996715  0.18476184  1
  O2-  O448  1  0.41649096  0.32782053  0.52639067  1
  O2-  O449  1  0.42135004  0.32709278  0.87971125  1
  O2-  O450  1  0.42284909  0.61849633  0.18611993  1
  O2-  O451  1  0.40815315  0.57394977  0.52104396  1
  O2-  O452  1  0.44024932  0.54603366  0.85660429  1
  O2-  O453  1  0.43932933  0.85552449  0.17096396  1
  O2-  O454  1  0.41731974  0.84817331  0.52490925  1
  O2-  O455  1  0.43062931  0.82989631  0.86750805  1
  O2-  O456  1  0.67771074  0.08805475  0.18606157  1
  O2-  O457  1  0.65679533  0.08457721  0.51524108  1
  O2-  O458  1  0.65052812  0.08138914  0.84460916  1
  O2-  O459  1  0.66652250  0.32612785  0.19302652  1
  O2-  O460  1  0.66447052  0.33514198  0.51847964  1
  O2-  O461  1  0.69085889  0.35129992  0.82960606  1
  O2-  O462  1  0.63744187  0.57815029  0.20238071  1
  O2-  O463  1  0.66636683  0.57882367  0.52040019  1
  O2-  O464  1  0.66579230  0.58353761  0.86044634  1
  O2-  O465  1  0.67705876  0.84282718  0.19705702  1
  O2-  O466  1  0.64908934  0.82422845  0.51852143  1
  O2-  O467  1  0.67962372  0.84208011  0.85439430  1
  O2-  O468  1  0.91649492  0.07997702  0.18625110  1
  O2-  O469  1  0.92237919  0.11227087  0.49273959  1
  O2-  O470  1  0.87799860  0.06508678  0.86703792  1
  O2-  O471  1  0.92034233  0.34222088  0.18851767  1
  O2-  O472  1  0.93530733  0.32967732  0.52559035  1
  O2-  O473  1  0.86234701  0.33888612  0.86587085  1
  O2-  O474  1  0.90193141  0.57646246  0.13486905  1
  O2-  O475  1  0.92275485  0.58484137  0.52175246  1
  O2-  O476  1  0.89405466  0.57850886  0.85168791  1
  O2-  O477  1  0.90445694  0.81846813  0.17964924  1
  O2-  O478  1  0.92997567  0.82010633  0.52053345  1
  O2-  O479  1  0.95418378  0.88440359  0.87184997  1
  O2-  O480  1  0.15592061  0.07134076  0.31479824  1
  O2-  O481  1  0.15191063  0.08637987  0.62799751  1
  O2-  O482  1  0.19521376  0.17871794  0.95344158  1
  O2-  O483  1  0.17509308  0.32944177  0.31562348  1
  O2-  O484  1  0.16305543  0.33074778  0.65343452  1
  O2-  O485  1  0.18584235  0.32255517  0.97562949  1
  O2-  O486  1  0.16559571  0.57964051  0.30969164  1
  O2-  O487  1  0.18093368  0.58567945  0.64780927  1
  O2-  O488  1  0.21571523  0.57638903  0.95899638  1
  O2-  O489  1  0.17362268  0.85334061  0.31520188  1
  O2-  O490  1  0.17741449  0.80779290  0.65193165  1
  O2-  O491  1  0.17013647  0.82465544  1.00508745  1
  O2-  O492  1  0.43290044  0.08031966  0.30480172  1
  O2-  O493  1  0.41447189  0.07978372  0.65142735  1
  O2-  O494  1  0.41111141  0.08632403  0.95285614  1
  O2-  O495  1  0.41655140  0.33130652  0.31345812  1
  O2-  O496  1  0.42107891  0.33531618  0.64508134  1
  O2-  O497  1  0.42780973  0.33656804  0.94707555  1
  O2-  O498  1  0.42395878  0.58993935  0.30776266  1
  O2-  O499  1  0.42034929  0.58922406  0.64288131  1
  O2-  O500  1  0.43390506  0.60369729  0.99481986  1
  O2-  O501  1  0.42577568  0.84587905  0.34329288  1
  O2-  O502  1  0.42239333  0.83602762  0.64712270  1
  O2-  O503  1  0.41959698  0.84303921  0.98861863  1
  O2-  O504  1  0.68734844  0.07962782  0.31115136  1
  O2-  O505  1  0.66807488  0.07594707  0.64102637  1
  O2-  O506  1  0.63655978  0.07967414  0.96855669  1
  O2-  O507  1  0.66193055  0.32216090  0.31551301  1
  O2-  O508  1  0.69315580  0.29777540  0.63144663  1
  O2-  O509  1  0.64660330  0.31551309  0.97518676  1
  O2-  O510  1  0.65904452  0.58646157  0.32264238  1
  O2-  O511  1  0.66935222  0.58383235  0.64274731  1
  O2-  O512  1  0.71007317  0.58651633  0.98752178  1
  O2-  O513  1  0.66915247  0.82900083  0.31813194  1
  O2-  O514  1  0.66394227  0.83201484  0.64228853  1
  O2-  O515  1  0.66847303  0.83088069  0.97669236  1
  O2-  O516  1  0.94123797  0.15220996  0.29898619  1
  O2-  O517  1  0.90844908  0.08523276  0.73050926  1
  O2-  O518  1  0.91026703  0.07770772  0.98588637  1
  O2-  O519  1  0.94752999  0.36238109  0.31440763  1
  O2-  O520  1  0.92098894  0.34737101  0.65584640  1
  O2-  O521  1  0.92732628  0.35314208  0.98008408  1
  O2-  O522  1  0.94445366  0.63957768  0.28298115  1
  O2-  O523  1  0.91416137  0.58206641  0.70403259  1
  O2-  O524  1  0.90785538  0.57258739  0.97952644  1
  O2-  O525  1  0.92164864  0.85890996  0.32669412  1
  O2-  O526  1  0.93015564  0.82754437  0.63985939  1
  O2-  O527  1  0.88739816  0.81256085  0.97902211  1
  O2-  O528  1  0.07318928  0.16433261  0.02952535  1
  O2-  O529  1  0.07878958  0.16353033  0.35289397  1
  O2-  O530  1  0.09196904  0.16803736  0.70917844  1
  O2-  O531  1  0.09266965  0.42204147  0.01231337  1
  O2-  O532  1  0.09793238  0.42248335  0.35723178  1
  O2-  O533  1  0.10387222  0.43165812  0.68733269  1
  O2-  O534  1  0.06576890  0.64797694  0.01144977  1
  O2-  O535  1  0.05492212  0.62588946  0.36667445  1
  O2-  O536  1  0.09297999  0.65732867  0.69774202  1
  O2-  O537  1  0.03297054  0.82730730  0.03780471  1
  O2-  O538  1  0.07482902  0.91302659  0.36282176  1
  O2-  O539  1  0.09865646  0.94002686  0.68316776  1
  O2-  O540  1  0.34654644  0.18740543  0.00188989  1
  O2-  O541  1  0.31214143  0.15962288  0.36103789  1
  O2-  O542  1  0.35726992  0.18587307  0.70093017  1
  O2-  O543  1  0.35606257  0.42517865  0.00250001  1
  O2-  O544  1  0.34098763  0.41858531  0.35206800  1
  O2-  O545  1  0.33564191  0.41296882  0.67951506  1
  O2-  O546  1  0.34491800  0.68006564  0.03103118  1
  O2-  O547  1  0.31288892  0.62315179  0.36780203  1
  O2-  O548  1  0.34303793  0.67230528  0.64589733  1
  O2-  O549  1  0.34228073  0.93602207  0.01451781  1
  O2-  O550  1  0.34071521  0.93780355  0.35916904  1
  O2-  O551  1  0.34078633  0.91952202  0.70011709  1
  O2-  O552  1  0.63139309  0.19517839  0.03963553  1
  O2-  O553  1  0.59797218  0.16148736  0.33846227  1
  O2-  O554  1  0.58291639  0.14905205  0.67695060  1
  O2-  O555  1  0.59238586  0.41781965  0.01635254  1
  O2-  O556  1  0.58126101  0.40812799  0.35899017  1
  O2-  O557  1  0.57776457  0.41784867  0.68840438  1
  O2-  O558  1  0.61202215  0.67421973  0.02980313  1
  O2-  O559  1  0.57999285  0.66680248  0.34721005  1
  O2-  O560  1  0.58124018  0.66416783  0.68034647  1
  O2-  O561  1  0.58848616  0.91779630  0.01764849  1
  O2-  O562  1  0.59501329  0.91537979  0.35689553  1
  O2-  O563  1  0.58472535  0.91423257  0.68826741  1
  O2-  O564  1  0.86255492  0.18566789  0.02921232  1
  O2-  O565  1  0.77737529  0.13418143  0.32971708  1
  O2-  O566  1  0.81690320  0.17586209  0.69383788  1
  O2-  O567  1  0.82228903  0.40592468  0.01721429  1
  O2-  O568  1  0.80211672  0.32189064  0.37787606  1
  O2-  O569  1  0.82497666  0.41240813  0.70580727  1
  O2-  O570  1  0.87275454  0.61378830  0.01907038  1
  O2-  O571  1  0.83046660  0.67706549  0.34762173  1
  O2-  O572  1  0.83323376  0.66722511  0.68578302  1
  O2-  O573  1  0.82689303  0.91345021  0.02411211  1
  O2-  O574  1  0.79334947  0.84595088  0.38586654  1
  O2-  O575  1  0.83105356  0.90456215  0.67917439  1
