# generated using pymatgen
data_H2O
_symmetry_space_group_name_H-M   'P 1'
_cell_length_a   17.98454902
_cell_length_b   17.97577191
_cell_length_c   21.97774362
_cell_angle_alpha   89.96428687
_cell_angle_beta   90.00532997
_cell_angle_gamma   120.01591141
_symmetry_Int_Tables_number   1
_chemical_formula_structural   H2O
_chemical_formula_sum   'H384 O192'
_cell_volume   6152.20902850
_cell_formula_units_Z   192
loop_
 _symmetry_equiv_pos_site_id
 _symmetry_equiv_pos_as_xyz
  1  'x, y, z'
loop_
 _atom_type_symbol
 _atom_type_oxidation_number
  H+  1.0
  O2-  -2.0
loop_
 _atom_site_type_symbol
 _atom_site_label
 _atom_site_symmetry_multiplicity
 _atom_site_fract_x
 _atom_site_fract_y
 _atom_site_fract_z
 _atom_site_occupancy
  H+  H0  1  0.23585377  0.85793778  0.96639239  1
  H+  H1  1  0.01898601  0.12849992  0.00763930  1
  H+  H2  1  0.73320275  0.87004776  0.16946509  1
  H+  H3  1  0.71944895  0.86149483  0.84837041  1
  H+  H4  1  1.04479082  0.14844130  0.68606985  1
  H+  H5  1  0.31015124  0.56900348  0.37292333  1
  H+  H6  1  0.63757794  0.59559650  0.64657384  1
  H+  H7  1  0.04489506  0.10192449  0.84176537  1
  H+  H8  1  0.85620448  0.72842149  0.83366720  1
  H+  H9  1  0.77580643  0.63907184  0.16120297  1
  H+  H10  1  0.38900029  0.59749091  0.50252776  1
  H+  H11  1  0.12180220  0.44790205  0.82703556  1
  H+  H12  1  0.36712639  0.10184534  0.82556811  1
  H+  H13  1  0.74406721  0.20806744  0.79868068  1
  H+  H14  1  0.41436045  0.30762190  0.15936506  1
  H+  H15  1  0.36474942  1.00640215  0.82098181  1
  H+  H16  1  0.37745810  0.47126163  0.65181343  1
  H+  H17  1  0.67785772  0.31969322  0.99677832  1
  H+  H18  1  0.92129958  0.07001907  0.72204961  1
  H+  H19  1  0.12013011  -0.00844683  0.16918284  1
  H+  H20  1  1.00158496  0.89597526  0.67969808  1
  H+  H21  1  0.07183591  0.19968421  0.21855559  1
  H+  H22  1  0.87488627  0.98133353  -0.00617666  1
  H+  H23  1  0.88747871  0.05723542  0.59733684  1
  H+  H24  1  0.33922851  0.35831115  0.46214822  1
  H+  H25  1  0.17235360  0.07640828  0.57151546  1
  H+  H26  1  0.13821782  0.42013284  0.21881183  1
  H+  H27  1  0.89136076  0.12580040  0.68561947  1
  H+  H28  1  0.60925943  0.70982427  0.66152995  1
  H+  H29  1  0.96250121  0.84649947  0.50803819  1
  H+  H30  1  0.35703865  0.47718539  1.00375121  1
  H+  H31  1  0.61785488  0.12497807  0.67901856  1
  H+  H32  1  0.13718917  0.09602379  0.00255444  1
  H+  H33  1  0.38559826  0.50669459  0.49588495  1
  H+  H34  1  0.09075962  0.74889904  0.82840200  1
  H+  H35  1  0.25379420  0.88755893  0.80849990  1
  H+  H36  1  0.10076895  0.96949043  0.49248798  1
  H+  H37  1  -0.02075810  0.86126391  0.32414459  1
  H+  H38  1  0.62903125  0.61824900  0.97661210  1
  H+  H39  1  0.74172279  0.36501491  0.33503166  1
  H+  H40  1  0.32847584  0.64675740  0.41576312  1
  H+  H41  1  0.77008138  0.37232780  0.66420632  1
  H+  H42  1  0.62934524  0.84744296  0.66145560  1
  H+  H43  1  0.65054619  1.00908118  0.85010194  1
  H+  H44  1  0.85424183  0.87234302  0.67668860  1
  H+  H45  1  -0.01766475  0.85956971  -0.03745734  1
  H+  H46  1  0.14264807  0.78350955  0.32642125  1
  H+  H47  1  0.84788785  0.95486235  0.50463448  1
  H+  H48  1  0.38479728  0.61441008  -0.00428221  1
  H+  H49  1  0.61438920  0.45683274  0.80825148  1
  H+  H50  1  0.12593710  0.13550721  0.48821902  1
  H+  H51  1  0.36316987  0.15587777  0.17976222  1
  H+  H52  1  0.36225854  0.72366115  0.51328989  1
  H+  H53  1  0.41506099  0.88940147  0.17104816  1
  H+  H54  1  0.03954080  0.37906022  -0.01463655  1
  H+  H55  1  0.65051151  0.61906000  0.31673541  1
  H+  H56  1  0.71616718  0.84580779  0.50595642  1
  H+  H57  1  0.60564915  0.87486011  0.49450918  1
  H+  H58  1  0.16128951  0.78333022  0.17064025  1
  H+  H59  1  0.63614198  1.02225639  0.33008966  1
  H+  H60  1  0.71380662  0.83923890  0.66496712  1
  H+  H61  1  0.82223921  0.39938728  0.72656124  1
  H+  H62  1  0.65389189  0.94388859  0.00264585  1
  H+  H63  1  0.86566536  0.37206233  0.16893463  1
  H+  H64  1  0.54581491  0.64634776  0.32732529  1
  H+  H65  1  0.40586705  0.36500715  0.61337811  1
  H+  H66  1  0.21102969  0.32446272  0.85224065  1
  H+  H67  1  0.85534627  0.20979159  0.00150325  1
  H+  H68  1  0.64379334  0.91783436  0.17176414  1
  H+  H69  1  0.84768921  0.46098212  0.81485489  1
  H+  H70  1  0.75541980  0.61843612  0.47772234  1
  H+  H71  1  0.39341731  1.03636327  0.34589068  1
  H+  H72  1  0.88099450  0.00822251  0.84189476  1
  H+  H73  1  0.48867312  0.34029683  0.82620183  1
  H+  H74  1  0.19572890  0.08563462  0.15980374  1
  H+  H75  1  0.14658241  0.85986793  0.98245654  1
  H+  H76  1  0.36795420  0.89062012  -0.07940552  1
  H+  H77  1  0.87525793  0.73328084  0.15827991  1
  H+  H78  1  0.11218208  0.96329531  -0.00245516  1
  H+  H79  1  0.79466860  0.01042465  0.57221008  1
  H+  H80  1  0.83956973  0.71037359  0.48653923  1
  H+  H81  1  0.37914079  0.79203086  0.83972499  1
  H+  H82  1  0.48350848  0.12593328  0.34108328  1
  H+  H83  1  0.64051604  0.28107202  0.17989370  1
  H+  H84  1  0.21102467  0.60671904  0.49182297  1
  H+  H85  1  0.02572747  0.64863819  0.34239388  1
  H+  H86  1  0.61688420  0.13723656  0.34299579  1
  H+  H87  1  0.62011724  0.75176760  -0.00762006  1
  H+  H88  1  0.39660042  0.86702371  0.65595495  1
  H+  H89  1  0.14855030  0.35861802  0.65067958  1
  H+  H90  1  0.88458116  1.00012019  0.33945615  1
  H+  H91  1  0.71332625  0.61286580  0.98435810  1
  H+  H92  1  0.10055454  0.48935613  0.34515744  1
  H+  H93  1  0.85201768  0.87255814  0.84438041  1
  H+  H94  1  0.36539467  0.15041024  0.35217345  1
  H+  H95  1  0.73208183  0.36505972  0.18491478  1
  H+  H96  1  0.60058957  0.46880069  0.00072169  1
  H+  H97  1  0.64198239  0.12263927  0.18167836  1
  H+  H98  1  0.08042420  0.88021529  0.68023346  1
  H+  H99  1  0.37393372  0.06643260  0.02996039  1
  H+  H100  1  0.21530956  0.12546269  0.81038909  1
  H+  H101  1  0.14291765  0.73555892  -0.00050356  1
  H+  H102  1  0.40072150  0.77821290  0.65811959  1
  H+  H103  1  0.30352389  0.66446330  0.00641040  1
  H+  H104  1  -0.03162056  0.36549939  0.33118012  1
  H+  H105  1  0.27613380  0.37975832  0.00901935  1
  H+  H106  1  0.34229234  0.40428805  0.89754138  1
  H+  H107  1  0.89990403  0.26889856  0.17420481  1
  H+  H108  1  0.48200624  0.60008980  0.64942494  1
  H+  H109  1  0.52995057  0.38020291  0.64691940  1
  H+  H110  1  0.36578813  0.13036174  0.67016118  1
  H+  H111  1  0.83370800  0.90214388  0.40637630  1
  H+  H112  1  0.95543648  0.61243425  0.82897741  1
  H+  H113  1  0.86748860  0.63929090  0.33470444  1
  H+  H114  1  0.85140370  0.22279443  0.34796807  1
  H+  H115  1  0.24713374  0.87505527  0.16837058  1
  H+  H116  1  0.46999404  0.62019979  0.14572180  1
  H+  H117  1  0.41987661  0.63661927  0.31182310  1
  H+  H118  1  0.29608378  0.21676801  0.49736763  1
  H+  H119  1  0.16372244  0.53250556  -0.01474349  1
  H+  H120  1  0.46403444  0.88152980  0.83805595  1
  H+  H121  1  0.72507488  0.11359259  0.33387200  1
  H+  H122  1  0.36632485  0.19030831  0.00603512  1
  H+  H123  1  0.92299491  0.57155222  0.56527915  1
  H+  H124  1  0.09460309  0.66427461  0.84044201  1
  H+  H125  1  0.13439735  0.23097130  0.67216838  1
  H+  H126  1  0.85924084  0.21764083  0.50020647  1
  H+  H127  1  0.09403107  0.18555434  0.33006117  1
  H+  H128  1  0.12014876  0.87673399  0.15299363  1
  H+  H129  1  0.88022529  0.60779308  0.65762250  1
  H+  H130  1  0.07880980  0.09744132  0.16698414  1
  H+  H131  1  0.64857557  0.77850561  0.32010299  1
  H+  H132  1  0.12355567  0.88206838  0.83559253  1
  H+  H133  1  0.53721256  0.15082247  0.49388437  1
  H+  H134  1  0.08038930  0.14929697  0.40218679  1
  H+  H135  1  0.59452878  0.87993014  0.83009008  1
  H+  H136  1  0.48693491  0.87012976  0.33024968  1
  H+  H137  1  0.88421442  0.35511819  0.50162225  1
  H+  H138  1  0.39482428  0.05573199  0.50430896  1
  H+  H139  1  0.46377680  0.09853281  0.83028259  1
  H+  H140  1  0.52453902  0.62293733  0.48203258  1
  H+  H141  1  0.39460407  0.78634993  0.32528314  1
  H+  H142  1  0.14189796  0.11254551  0.65946937  1
  H+  H143  1  0.14418863  0.78815549  0.50552842  1
  H+  H144  1  0.52950978  0.88494359  0.67226449  1
  H+  H145  1  0.97720022  0.87209963  0.86487656  1
  H+  H146  1  0.13895991  0.34548963  -0.00919779  1
  H+  H147  1  0.58686157  0.18856458  1.00604348  1
  H+  H148  1  0.73102304  0.11286637  0.65865199  1
  H+  H149  1  0.87611819  0.51612071  0.66106154  1
  H+  H150  1  0.07343356  0.89209562  0.04925514  1
  H+  H151  1  0.61998151  0.13879330  0.49540774  1
  H+  H152  1  0.14692576  0.12985389  0.76787131  1
  H+  H153  1  0.60739578  0.11007119  1.01484566  1
  H+  H154  1  -0.01042101  0.35937293  0.18226087  1
  H+  H155  1  0.83412441  0.67891011  0.09374405  1
  H+  H156  1  0.11624978  0.64952768  0.49169357  1
  H+  H157  1  0.50106257  0.39791880  0.16409245  1
  H+  H158  1  0.22309253  0.61479220  0.34265404  1
  H+  H159  1  0.89069413  0.77031854  0.32266930  1
  H+  H160  1  0.61916956  0.88630864  0.33999471  1
  H+  H161  1  0.11594286  0.21897684  0.48583014  1
  H+  H162  1  0.38542232  0.62221379  0.16737150  1
  H+  H163  1  0.72236299  0.60063128  0.83355426  1
  H+  H164  1  0.99376973  0.53055257  0.21465980  1
  H+  H165  1  0.37138110  0.89971246  0.34552852  1
  H+  H166  1  0.73653972  0.61369584  0.31905163  1
  H+  H167  1  0.91763344  0.08563351  0.93148410  1
  H+  H168  1  0.22377322  0.09144567  1.00379787  1
  H+  H169  1  0.15844504  0.63107205  0.17759208  1
  H+  H170  1  0.37128734  0.49514872  0.15119710  1
  H+  H171  1  0.89517815  0.36504173  0.65526323  1
  H+  H172  1  0.11664350  0.65285483  0.34421568  1
  H+  H173  1  0.62411575  0.58877549  0.49694240  1
  H+  H174  1  0.78414301  0.39067901  0.48594828  1
  H+  H175  1  -0.01166075  0.09344363  0.16585399  1
  H+  H176  1  0.46902955  0.33000225  -0.00756719  1
  H+  H177  1  0.72124002  0.10419031  0.50779984  1
  H+  H178  1  0.88159586  0.10779714  0.99244204  1
  H+  H179  1  0.09571570  0.99322665  0.82276375  1
  H+  H180  1  0.09085837  0.75771133  0.65818667  1
  H+  H181  1  0.65324911  0.28507986  0.50188482  1
  H+  H182  1  0.77712480  0.14177994  0.16471559  1
  H+  H183  1  0.48379458  0.34297425  0.47448988  1
  H+  H184  1  0.38669587  0.86586800  0.51097664  1
  H+  H185  1  0.11318048  0.67857483  0.09734821  1
  H+  H186  1  0.86055693  0.73545150  0.66145006  1
  H+  H187  1  0.04996092  0.64097724  0.15572465  1
  H+  H188  1  0.73533472  0.86603697  0.32981270  1
  H+  H189  1  0.46309058  0.06736651  0.03107893  1
  H+  H190  1  0.86573168  0.87540838  0.34452883  1
  H+  H191  1  0.61866932  0.27033508  0.60955173  1
  H+  H192  1  0.48475017  0.11142739  0.66109287  1
  H+  H193  1  0.42361840  0.88057818  0.99942323  1
  H+  H194  1  0.60544771  0.47690845  0.33330329  1
  H+  H195  1  0.70224758  0.73993958  0.10056142  1
  H+  H196  1  0.16097679  0.61984377  0.98473237  1
  H+  H197  1  0.62045561  0.46357266  0.65813874  1
  H+  H198  1  0.29807590  0.64140550  0.82562811  1
  H+  H199  1  0.56992330  0.45277124  0.48393734  1
  H+  H200  1  0.54130835  0.90392685  0.16927186  1
  H+  H201  1  0.63097008  0.34113463  0.82983963  1
  H+  H202  1  0.81992840  0.00044576  0.20529107  1
  H+  H203  1  0.40032362  0.33589112  0.84509065  1
  H+  H204  1  0.51038390  0.39360786  0.32722121  1
  H+  H205  1  0.92446205  0.57995505  0.97137777  1
  H+  H206  1  0.60567490  0.69496545  0.12515379  1
  H+  H207  1  0.67146470  0.86651136  0.93797004  1
  H+  H208  1  0.62720869  0.34683367  0.65201425  1
  H+  H209  1  0.63775020  0.49578354  0.15695882  1
  H+  H210  1  1.05569708  0.65173569  1.00953536  1
  H+  H211  1  0.05812452  0.92018052  0.77415783  1
  H+  H212  1  0.85231489  0.73749184  -0.00365770  1
  H+  H213  1  0.88840584  0.52370988  0.33116699  1
  H+  H214  1  0.12279987  0.33305929  0.84366314  1
  H+  H215  1  0.01861351  0.22550251  0.26200438  1
  H+  H216  1  0.30620980  0.03386997  0.22778075  1
  H+  H217  1  0.13182511  0.25122152  0.99772889  1
  H+  H218  1  0.69940465  0.87093416  0.23757704  1
  H+  H219  1  0.12133882  0.88846012  0.34089229  1
  H+  H220  1  0.22959333  0.07283481  0.51773916  1
  H+  H221  1  0.38075691  0.74665912  0.16422830  1
  H+  H222  1  0.87435970  0.26956657  0.83149692  1
  H+  H223  1  0.14092259  1.00226150  0.33113350  1
  H+  H224  1  0.34339690  0.88624076  0.81220494  1
  H+  H225  1  0.53262994  0.14663765  0.16403405  1
  H+  H226  1  0.82319603  0.15912099  0.40473094  1
  H+  H227  1  0.12785579  1.01730575  0.66319411  1
  H+  H228  1  0.63091503  0.01526792  0.50661241  1
  H+  H229  1  0.81204921  0.37644339  0.00785131  1
  H+  H230  1  0.37521982  0.99260620  0.17167358  1
  H+  H231  1  0.30741497  0.63416527  0.54770428  1
  H+  H232  1  0.21826079  0.35574536  0.49350092  1
  H+  H233  1  0.58370925  0.39803917  0.74782855  1
  H+  H234  1  0.76510055  0.36769633  0.82449835  1
  H+  H235  1  0.58917781  0.19858177  0.83222603  1
  H+  H236  1  0.73936496  0.89091937  0.99163715  1
  H+  H237  1  0.36382342  0.50661219  0.33282894  1
  H+  H238  1  0.91211631  0.50636430  0.17668191  1
  H+  H239  1  0.15825112  0.58197071  0.82590162  1
  H+  H240  1  0.85341502  0.64207310  0.81429517  1
  H+  H241  1  0.37328362  0.97430428  0.65708367  1
  H+  H242  1  0.86701787  0.23374393  0.67191724  1
  H+  H243  1  0.89513805  0.36430259  0.83405293  1
  H+  H244  1  0.25608177  0.60676816  0.64645169  1
  H+  H245  1  0.23794209  0.35864029  0.64275942  1
  H+  H246  1  0.77573028  0.28318955  0.03351209  1
  H+  H247  1  0.99273513  0.09690411  0.34163321  1
  H+  H248  1  0.10759110  0.37955931  0.48735256  1
  H+  H249  1  0.10425910  0.46819747  0.48857369  1
  H+  H250  1  0.38446731  0.40886130  0.15058141  1
  H+  H251  1  0.92212067  0.33203600  0.59641578  1
  H+  H252  1  0.85981229  0.38539214  0.33913686  1
  H+  H253  1  0.30451749  0.19821666  0.17435592  1
  H+  H254  1  0.55839529  0.93728052  1.01640994  1
  H+  H255  1  0.28110971  0.90846543  0.50259556  1
  H+  H256  1  0.38185997  0.63888875  0.67074835  1
  H+  H257  1  0.62944220  0.62627676  0.81695788  1
  H+  H258  1  0.14685134  0.33613941  0.27399297  1
  H+  H259  1  0.02586402  0.36632347  0.82235820  1
  H+  H260  1  0.38117017  0.28463988  0.31241818  1
  H+  H261  1  0.01436103  0.63066563  0.67735298  1
  H+  H262  1  0.63065324  1.00465012  0.17261113  1
  H+  H263  1  0.44525727  0.80978691  1.02022411  1
  H+  H264  1  0.91920119  0.36068207  0.97959247  1
  H+  H265  1  0.35061414  0.68427997  0.07055871  1
  H+  H266  1  0.85135705  0.12507259  0.50764050  1
  H+  H267  1  0.43259079  0.57812132  0.84360547  1
  H+  H268  1  0.61788871  0.21350270  0.68741656  1
  H+  H269  1  0.87594845  0.96324347  0.13946176  1
  H+  H270  1  0.23726800  0.10892507  0.32676841  1
  H+  H271  1  0.86158351  0.65708150  1.00529146  1
  H+  H272  1  0.89803658  0.85720813  0.16413262  1
  H+  H273  1  0.82830347  0.94521470  0.69363431  1
  H+  H274  1  0.13369258  0.40483430  0.31131970  1
  H+  H275  1  0.36503738  0.20852306  0.81865289  1
  H+  H276  1  1.02544525  0.86657009  0.15501368  1
  H+  H277  1  0.67741026  0.64359501  0.16974414  1
  H+  H278  1  0.28111785  0.89669654  0.34375850  1
  H+  H279  1  0.64403106  0.26569551  0.33453380  1
  H+  H280  1  0.16054046  0.54300840  0.18737698  1
  H+  H281  1  0.63249780  0.77575608  0.86277207  1
  H+  H282  1  0.67247973  0.72076676  0.78997273  1
  H+  H283  1  0.03574203  0.38573601  0.66515619  1
  H+  H284  1  0.85488906  0.86942546  0.49881401  1
  H+  H285  1  0.28859015  0.65951238  0.16916211  1
  H+  H286  1  0.52198365  0.65714263  0.83267069  1
  H+  H287  1  0.62080157  0.97051456  0.67460070  1
  H+  H288  1  0.16418282  0.57521291  0.55291631  1
  H+  H289  1  0.31906810  0.42015207  0.42054119  1
  H+  H290  1  0.17631483  0.60217331  0.27847593  1
  H+  H291  1  0.44113604  0.60048979  0.94698262  1
  H+  H292  1  0.32743225  0.19537050  0.39622411  1
  H+  H293  1  0.59533033  0.17334342  0.40426173  1
  H+  H294  1  0.65685413  0.56517310  0.88977177  1
  H+  H295  1  0.39813194  0.67518288  0.82708226  1
  H+  H296  1  0.72973800  0.60441758  0.64667784  1
  H+  H297  1  0.58650820  0.42001873  0.06377556  1
  H+  H298  1  0.81896583  0.17936897  0.73236766  1
  H+  H299  1  0.43855106  0.60102873  0.25070089  1
  H+  H300  1  0.26323332  0.44182436  0.32771811  1
  H+  H301  1  0.91138501  0.32756810  0.27156487  1
  H+  H302  1  0.42674182  0.28834241  0.92943110  1
  H+  H303  1  0.58560629  0.91128885  0.40059651  1
  H+  H304  1  0.60218717  0.33780047  0.98836533  1
  H+  H305  1  0.58828800  0.16449725  0.10434661  1
  H+  H306  1  0.15966319  0.84416594  0.88791029  1
  H+  H307  1  0.17913978  0.84427810  0.26710839  1
  H+  H308  1  0.69095573  0.59791824  0.23133414  1
  H+  H309  1  0.33532273  0.15439707  0.07228563  1
  H+  H310  1  0.65425986  0.55409305  0.55351675  1
  H+  H311  1  0.67286542  0.33183402  0.27278612  1
  H+  H312  1  0.92782483  0.57825300  0.27107329  1
  H+  H313  1  0.76232628  0.12155546  0.00995099  1
  H+  H314  1  0.09461891  0.40605529  0.72375899  1
  H+  H315  1  0.55597309  0.67136365  0.03079702  1
  H+  H316  1  0.32999783  0.15114314  0.75681750  1
  H+  H317  1  0.67022462  0.08992297  0.24262834  1
  H+  H318  1  0.57699264  0.91426140  0.76845841  1
  H+  H319  1  0.35371037  0.67351113  0.72928861  1
  H+  H320  1  0.54638766  0.41250541  0.41092218  1
  H+  H321  1  0.83496179  0.41706454  0.40116995  1
  H+  H322  1  0.17385653  0.51341296  0.64006175  1
  H+  H323  1  0.17236502  0.06345475  0.26335673  1
  H+  H324  1  0.43383769  0.09943376  0.59833338  1
  H+  H325  1  0.42147516  0.83765989  0.56866166  1
  H+  H326  1  0.90972782  0.06351418  0.28002369  1
  H+  H327  1  0.43445822  0.31606009  0.56514806  1
  H+  H328  1  0.32786496  0.91116488  0.71174960  1
  H+  H329  1  0.65629132  0.81548116  0.56508180  1
  H+  H330  1  0.87054149  0.89120857  -0.01975410  1
  H+  H331  1  0.43639739  0.85561129  0.23309073  1
  H+  H332  1  0.64850774  0.31158761  0.89464707  1
  H+  H333  1  0.90493336  0.82506726  0.56883474  1
  H+  H334  1  0.03509265  0.77917106  0.61446998  1
  H+  H335  1  0.13833028  0.41534327  0.14720496  1
  H+  H336  1  0.34044452  0.42796886  0.08637311  1
  H+  H337  1  0.83298733  0.16088257  0.10383796  1
  H+  H338  1  -0.01641453  0.61170459  0.50728124  1
  H+  H339  1  0.06971924  0.15248644  0.07062034  1
  H+  H340  1  0.82029204  0.88928477  0.77919534  1
  H+  H341  1  0.56537276  0.13998424  0.77314278  1
  H+  H342  1  0.10801500  0.88535844  0.49171155  1
  H+  H343  1  -0.02866862  0.35244542  0.50186274  1
  H+  H344  1  0.15459325  0.84083778  0.56547329  1
  H+  H345  1  0.07503612  0.41840800  0.39853197  1
  H+  H346  1  0.61130097  0.71241586  0.48883932  1
  H+  H347  1  0.58581100  0.64702212  0.71818625  1
  H+  H348  1  0.75126727  0.13350692  0.83292117  1
  H+  H349  1  0.18564964  0.57187153  0.89327756  1
  H+  H350  1  0.92831784  0.32184427  0.91740582  1
  H+  H351  1  0.59824856  0.66891751  0.39011166  1
  H+  H352  1  0.51878791  0.87948111  0.49356164  1
  H+  H353  1  0.66598389  0.07765704  0.60129478  1
  H+  H354  1  0.82872659  0.66715275  0.39118738  1
  H+  H355  1  0.42080998  0.57188004  0.59093096  1
  H+  H356  1  0.52730544  0.65600876  0.10637525  1
  H+  H357  1  0.41941905  0.15764753  0.50670244  1
  H+  H358  1  0.41624295  0.34788915  0.25542622  1
  H+  H359  1  0.08933487  0.41363671  0.04670413  1
  H+  H360  1  0.85267616  0.90771421  0.07932727  1
  H+  H361  1  0.97301676  0.67337794  0.94374949  1
  H+  H362  1  0.34479965  0.42384804  0.82802934  1
  H+  H363  1  0.62774674  0.40240824  0.16356107  1
  H+  H364  1  0.27401357  0.12476719  0.67041784  1
  H+  H365  1  0.82071674  0.38872202  0.11266723  1
  H+  H366  1  0.37004834  0.95099259  -0.02237021  1
  H+  H367  1  0.08855204  0.68624369  0.43541245  1
  H+  H368  1  0.37390897  0.96838655  0.10282332  1
  H+  H369  1  0.16375186  0.32521495  0.55510371  1
  H+  H370  1  0.33888685  0.93312698  0.44332732  1
  H+  H371  1  0.87878502  0.47528029  0.48950183  1
  H+  H372  1  0.15027273  0.30144174  0.91387300  1
  H+  H373  1  0.87739670  0.56621813  0.87553621  1
  H+  H374  1  0.83198885  0.68313013  0.72297294  1
  H+  H375  1  0.68833064  0.35954112  0.55155972  1
  H+  H376  1  0.68164074  0.05842365  0.91421468  1
  H+  H377  1  0.08693097  0.91878602  0.40050035  1
  H+  H378  1  0.39492618  0.08727074  0.26043652  1
  H+  H379  1  0.92049781  0.82898613  0.22969911  1
  H+  H380  1  0.07087358  0.67596911  0.73543645  1
  H+  H381  1  0.35738497  0.39480936  0.69815420  1
  H+  H382  1  0.86675241  0.09692147  0.18315073  1
  H+  H383  1  0.93766474  0.92027231  0.62001710  1
  O2-  O384  1  0.04997440  0.13081633  0.15684628  1
  O2-  O385  1  0.09188402  0.15902891  0.47024590  1
  O2-  O386  1  -0.00221004  0.05539256  0.86483722  1
  O2-  O387  1  0.11211982  0.43005480  0.18050153  1
  O2-  O388  1  0.07490715  0.40805012  0.47278471  1
  O2-  O389  1  0.08766061  0.38746802  0.81204877  1
  O2-  O390  1  0.11040254  0.67975829  0.14289625  1
  O2-  O391  1  0.09174068  0.68673372  0.48075139  1
  O2-  O392  1  0.05799448  0.68344248  0.82163009  1
  O2-  O393  1  0.08430479  0.90091371  0.13727010  1
  O2-  O394  1  0.07318732  0.91086434  0.47478447  1
  O2-  O395  1  0.06589311  0.92931441  0.81962423  1
  O2-  O396  1  0.35026023  0.19395496  0.15373313  1
  O2-  O397  1  0.34048896  0.25070593  0.46698308  1
  O2-  O398  1  0.32607036  0.14842125  0.80393288  1
  O2-  O399  1  0.34617427  0.43286689  0.13598383  1
  O2-  O400  1  0.32275960  0.40328832  0.46324915  1
  O2-  O401  1  0.32178787  0.37715671  0.85770345  1
  O2-  O402  1  0.34698201  0.68605664  0.15002380  1
  O2-  O403  1  0.33265943  0.65912930  0.50782253  1
  O2-  O404  1  0.35395101  0.68766913  0.81038335  1
  O2-  O405  1  0.36248136  0.94337319  0.14493617  1
  O2-  O406  1  0.34197083  0.93936702  0.48830857  1
  O2-  O407  1  0.31409548  0.91596197  0.79331452  1
  O2-  O408  1  0.59215127  0.17508953  0.15009418  1
  O2-  O409  1  0.59788349  0.17610041  0.47899769  1
  O2-  O410  1  0.55399446  0.13831869  0.81784060  1
  O2-  O411  1  0.60267997  0.43472256  0.14383126  1
  O2-  O412  1  0.52466145  0.40675537  0.45708739  1
  O2-  O413  1  0.58621173  0.39658755  0.79361629  1
  O2-  O414  1  0.66986863  0.72329261  0.13863277  1
  O2-  O415  1  0.58582342  0.65485064  0.46883857  1
  O2-  O416  1  0.61636257  0.67104931  0.79899371  1
  O2-  O417  1  0.60474850  0.94071500  0.15669411  1
  O2-  O418  1  0.57947256  0.90862470  0.47839693  1
  O2-  O419  1  0.57013582  0.91449103  0.81369570  1
  O2-  O420  1  0.83687190  0.16440013  0.14937384  1
  O2-  O421  1  0.82637137  0.15591160  0.48662377  1
  O2-  O422  1  0.78437961  0.18733124  0.80470315  1
  O2-  O423  1  0.83474902  0.40308303  0.15613837  1
  O2-  O424  1  0.84501395  0.41520521  0.47071623  1
  O2-  O425  1  0.82442353  0.39902609  0.80647660  1
  O2-  O426  1  0.84009556  0.67274216  0.13903190  1
  O2-  O427  1  0.81304260  0.65820297  0.46106895  1
  O2-  O428  1  0.82478973  0.67667880  0.80781535  1
  O2-  O429  1  0.85327400  0.90422788  0.12513100  1
  O2-  O430  1  0.82433683  0.89976481  0.48258423  1
  O2-  O431  1  0.82015118  0.89775153  0.82460099  1
  O2-  O432  1  0.14720293  0.05256918  0.18709164  1
  O2-  O433  1  0.17871069  0.07768330  0.52520828  1
  O2-  O434  1  0.15378444  0.10917316  0.80771156  1
  O2-  O435  1  0.07500126  0.23075597  0.25724363  1
  O2-  O436  1  0.15834612  0.32539441  0.50970033  1
  O2-  O437  1  0.14906069  0.29920993  0.86405610  1
  O2-  O438  1  0.18850606  0.60452811  0.19955885  1
  O2-  O439  1  0.15227324  0.57760455  0.50854227  1
  O2-  O440  1  0.18651580  0.55674012  0.84895279  1
  O2-  O441  1  0.18781961  0.84419515  0.18509290  1
  O2-  O442  1  0.16952285  0.84877330  0.52137478  1
  O2-  O443  1  0.15143427  0.84602919  0.84287248  1
  O2-  O444  1  0.36650500  0.07403052  0.21852824  1
  O2-  O445  1  0.43585891  0.11449781  0.51946410  1
  O2-  O446  1  0.39674775  0.06663307  0.84059412  1
  O2-  O447  1  0.43769223  0.36761993  0.17362813  1
  O2-  O448  1  0.42004333  0.25951713  0.49618737  1
  O2-  O449  1  0.43226690  0.30489376  0.84774521  1
  O2-  O450  1  0.41646091  0.58919437  0.17516922  1
  O2-  O451  1  0.42009918  0.56641744  0.51210850  1
  O2-  O452  1  0.46631524  0.63909099  0.85314016  1
  O2-  O453  1  0.44309497  0.85751768  0.18779225  1
  O2-  O454  1  0.41434009  0.83198729  0.52273384  1
  O2-  O455  1  0.40205031  0.85362325  0.84989109  1
  O2-  O456  1  0.67215985  0.09179876  0.19596542  1
  O2-  O457  1  0.66038478  0.07523730  0.52294444  1
  O2-  O458  1  0.70068118  0.05563077  0.87187402  1
  O2-  O459  1  0.67095556  0.33951459  0.19848414  1
  O2-  O460  1  0.68442443  0.34854739  0.50781511  1
  O2-  O461  1  0.65897097  0.31153419  0.84997659  1
  O2-  O462  1  0.69631014  0.60203769  0.18422132  1
  O2-  O463  1  0.64512988  0.54868815  0.50860878  1
  O2-  O464  1  0.66040140  0.56343072  0.84424555  1
  O2-  O465  1  0.71678083  0.90256695  0.19711654  1
  O2-  O466  1  0.65498077  0.81646404  0.51958750  1
  O2-  O467  1  0.65931247  0.83820054  0.86458241  1
  O2-  O468  1  0.87818334  0.05260090  0.20212964  1
  O2-  O469  1  0.85447975  0.03944112  0.55895092  1
  O2-  O470  1  0.92448426  0.06877178  0.85321044  1
  O2-  O471  1  0.92722530  0.32860918  0.19136641  1
  O2-  O472  1  0.91190248  0.32299907  0.51914053  1
  O2-  O473  1  0.92075332  0.32814939  0.84593064  1
  O2-  O474  1  0.96212340  0.55636334  0.19690541  1
  O2-  O475  1  0.92612750  0.56625806  0.52071603  1
  O2-  O476  1  0.89113266  0.57318933  0.83228497  1
  O2-  O477  1  0.92315214  0.82413489  0.18412324  1
  O2-  O478  1  0.90247686  0.81683790  0.52323620  1
  O2-  O479  1  0.91748659  0.82843982  0.88075219  1
  O2-  O480  1  0.17761400  0.06522677  0.30896283  1
  O2-  O481  1  0.16460905  0.07503612  0.64394549  1
  O2-  O482  1  0.16406441  0.06327698  0.98782311  1
  O2-  O483  1  0.17289742  0.39909359  0.28084510  1
  O2-  O484  1  0.17520624  0.32598087  0.63335673  1
  O2-  O485  1  0.16391976  0.30976622  0.97625734  1
  O2-  O486  1  0.16619697  0.59674649  0.32338382  1
  O2-  O487  1  0.21265364  0.56618070  0.61702728  1
  O2-  O488  1  0.19205569  0.59112212  0.96802967  1
  O2-  O489  1  0.17620377  0.84531003  0.31236264  1
  O2-  O490  1  0.09137880  0.80702500  0.63399624  1
  O2-  O491  1  0.17170604  0.82676506  0.96294814  1
  O2-  O492  1  0.42065413  0.09751846  0.33139964  1
  O2-  O493  1  0.42657056  0.08673287  0.64274453  1
  O2-  O494  1  0.39972536  0.02828312  1.03336009  1
  O2-  O495  1  0.41142682  0.34550676  0.30023575  1
  O2-  O496  1  0.45423248  0.35868468  0.59896908  1
  O2-  O497  1  0.41537465  0.28511655  0.97361756  1
  O2-  O498  1  0.44536391  0.60333071  0.29618393  1
  O2-  O499  1  0.42021395  0.57251250  0.63645779  1
  O2-  O500  1  0.39050784  0.56942817  0.97290641  1
  O2-  O501  1  0.42691235  0.84657780  0.31280788  1
  O2-  O502  1  0.43115974  0.83844325  0.64265436  1
  O2-  O503  1  0.46874244  0.87265009  1.01990162  1
  O2-  O504  1  0.66414092  0.08304315  0.31545979  1
  O2-  O505  1  0.66916955  0.07801808  0.64691338  1
  O2-  O506  1  0.66030588  0.06205651  0.99060282  1
  O2-  O507  1  0.67699264  0.32847699  0.31877015  1
  O2-  O508  1  0.65585707  0.31170839  0.64005865  1
  O2-  O509  1  0.62438877  0.29970053  0.97362302  1
  O2-  O510  1  0.67716175  0.58552666  0.30051381  1
  O2-  O511  1  0.66968884  0.56677999  0.63255762  1
  O2-  O512  1  0.65446906  0.58109488  0.96757845  1
  O2-  O513  1  0.67806450  0.84128882  0.30920616  1
  O2-  O514  1  0.65598124  0.81407247  0.64479964  1
  O2-  O515  1  0.67813388  0.87421850  0.98330449  1
  O2-  O516  1  0.91918846  0.06247281  0.32458524  1
  O2-  O517  1  0.92062197  0.09029850  0.68093330  1
  O2-  O518  1  0.91798244  0.08450115  0.97689920  1
  O2-  O519  1  0.90750406  0.33154881  0.31642082  1
  O2-  O520  1  0.92634349  0.33492269  0.64212577  1
  O2-  O521  1  0.93630181  0.32088801  0.96363533  1
  O2-  O522  1  0.92113141  0.58389851  0.31523211  1
  O2-  O523  1  0.91103922  0.57681518  0.64716018  1
  O2-  O524  1  0.95058908  0.64083276  0.98156168  1
  O2-  O525  1  0.92005633  0.83229494  0.30763343  1
  O2-  O526  1  0.91425097  0.86499522  0.64094105  1
  O2-  O527  1  0.91998974  0.83392307  0.94907314  1
  O2-  O528  1  0.07801670  0.15696653  0.02601103  1
  O2-  O529  1  0.06805262  0.13403685  0.35616766  1
  O2-  O530  1  0.10695516  0.17336357  0.69274242  1
  O2-  O531  1  0.09921129  0.41235735  0.00315942  1
  O2-  O532  1  0.07235707  0.42619557  0.35311102  1
  O2-  O533  1  0.09662496  0.41093498  0.67899937  1
  O2-  O534  1  0.11715265  0.67666055  0.01892237  1
  O2-  O535  1  0.08661383  0.68495654  0.35601003  1
  O2-  O536  1  0.07395632  0.67236593  0.69099379  1
  O2-  O537  1  0.07896175  0.89785044  0.00447397  1
  O2-  O538  1  0.09192672  0.92140928  0.35423731  1
  O2-  O539  1  0.06127714  0.91882487  0.69829427  1
  O2-  O540  1  0.33261851  0.13497062  0.03008149  1
  O2-  O541  1  0.32536939  0.17382752  0.35395098  1
  O2-  O542  1  0.33279594  0.15623384  0.68771980  1
  O2-  O543  1  0.33493327  0.41908739  0.02392566  1
  O2-  O544  1  0.31063519  0.47420079  0.35744245  1
  O2-  O545  1  0.34673030  0.40621946  0.65672958  1
  O2-  O546  1  0.36062755  0.68878231  0.02571978  1
  O2-  O547  1  0.31922998  0.62890689  0.37289010  1
  O2-  O548  1  0.35358728  0.67173775  0.68397776  1
  O2-  O549  1  0.34457755  0.89120323  -0.03876519  1
  O2-  O550  1  0.34035550  0.92854998  0.36110068  1
  O2-  O551  1  0.34281570  0.91244790  0.66835169  1
  O2-  O552  1  0.57519222  0.13885419  0.03210432  1
  O2-  O553  1  0.59164096  0.17292878  0.35810562  1
  O2-  O554  1  0.58550837  0.15166455  0.69769320  1
  O2-  O555  1  0.57639171  0.41101616  0.01919486  1
  O2-  O556  1  0.56741602  0.41791257  0.34871976  1
  O2-  O557  1  0.58526826  0.40183332  0.67115552  1
  O2-  O558  1  0.58821469  0.68805039  -0.00789534  1
  O2-  O559  1  0.60503596  0.67537630  0.34478132  1
  O2-  O560  1  0.58318697  0.64726474  0.67321796  1
  O2-  O561  1  0.62684654  0.97766994  0.02180827  1
  O2-  O562  1  0.58657424  0.91441474  0.35486891  1
  O2-  O563  1  0.58917417  0.91017367  0.68980073  1
  O2-  O564  1  0.82486225  0.15560077  0.02452712  1
  O2-  O565  1  0.81840156  0.16155327  0.35990895  1
  O2-  O566  1  0.83382328  0.17396794  0.68931888  1
  O2-  O567  1  0.77516457  0.33688304  0.03940626  1
  O2-  O568  1  0.82889754  0.41573554  0.35421771  1
  O2-  O569  1  0.82840319  0.40621257  0.68145229  1
  O2-  O570  1  0.82541542  0.68140393  0.01804212  1
  O2-  O571  1  0.83649048  0.67067881  0.34476764  1
  O2-  O572  1  0.83383180  0.67694589  0.67824329  1
  O2-  O573  1  0.84414752  0.91831228  0.00481739  1
  O2-  O574  1  0.83521524  0.90518726  0.36063778  1
  O2-  O575  1  0.80931944  0.88504752  0.70286754  1
