# generated using pymatgen
data_H2O
_symmetry_space_group_name_H-M   'P 1'
_cell_length_a   17.99723380
_cell_length_b   17.99841395
_cell_length_c   22.00826868
_cell_angle_alpha   89.99650188
_cell_angle_beta   90.00549263
_cell_angle_gamma   120.00295743
_symmetry_Int_Tables_number   1
_chemical_formula_structural   H2O
_chemical_formula_sum   'H384 O192'
_cell_volume   6173.67211853
_cell_formula_units_Z   192
loop_
 _symmetry_equiv_pos_site_id
 _symmetry_equiv_pos_as_xyz
  1  'x, y, z'
loop_
 _atom_type_symbol
 _atom_type_oxidation_number
  H+  1.0
  O2-  -2.0
loop_
 _atom_site_type_symbol
 _atom_site_label
 _atom_site_symmetry_multiplicity
 _atom_site_fract_x
 _atom_site_fract_y
 _atom_site_fract_z
 _atom_site_occupancy
  H+  H0  1  0.77458491  0.64106100  0.33773151  1
  H+  H1  1  0.88503416  0.10349428  0.67580099  1
  H+  H2  1  0.73100847  0.84774333  0.17812881  1
  H+  H3  1  0.41277412  0.60071597  0.12270566  1
  H+  H4  1  0.52950380  0.39276876  0.15545373  1
  H+  H5  1  0.11331020  0.46719349  0.67148236  1
  H+  H6  1  0.85635410  0.11131826  0.49072999  1
  H+  H7  1  0.61777819  0.48025788  0.15020942  1
  H+  H8  1  0.89863810  0.62554732  0.47370845  1
  H+  H9  1  0.86106117  0.22609018  1.00053339  1
  H+  H10  1  0.46397535  0.09756984  0.83746707  1
  H+  H11  1  0.29131280  0.63682769  0.33015863  1
  H+  H12  1  0.22557929  0.11263651  0.99079911  1
  H+  H13  1  0.36125301  -0.02274739  0.66069791  1
  H+  H14  1  0.34553670  0.41120407  0.73604825  1
  H+  H15  1  0.21464880  0.85148885  0.84490844  1
  H+  H16  1  0.48995865  0.37370553  0.65588362  1
  H+  H17  1  0.59404614  0.93113705  0.72808290  1
  H+  H18  1  0.85666455  0.38015086  0.48857641  1
  H+  H19  1  0.01988522  0.13652072  0.67622075  1
  H+  H20  1  0.47747618  0.36724983  0.50738758  1
  H+  H21  1  0.38919861  0.36063412  0.86455190  1
  H+  H22  1  0.60490237  0.39075174  0.34096177  1
  H+  H23  1  0.61899640  0.47808089  0.49992250  1
  H+  H24  1  0.52604931  0.38982670  0.83597076  1
  H+  H25  1  0.65117849  0.77146204  0.52818716  1
  H+  H26  1  0.87291873  0.23369610  0.31682547  1
  H+  H27  1  0.60690121  0.70174308  0.63867141  1
  H+  H28  1  0.22996629  0.18045377  0.61319733  1
  H+  H29  1  0.83886788  0.66338319  0.10535665  1
  H+  H30  1  0.89154334  0.77511646  0.50156589  1
  H+  H31  1  0.98143645  0.36099864  0.99158930  1
  H+  H32  1  0.09785646  0.45994173  0.81632431  1
  H+  H33  1  0.12655014  0.85034530  0.85160435  1
  H+  H34  1  0.27081208  0.88926956  0.00831542  1
  H+  H35  1  0.86514323  0.44392783  0.69697883  1
  H+  H36  1  0.02448086  0.88718218  0.83745969  1
  H+  H37  1  0.99471814  0.39017193  0.52397771  1
  H+  H38  1  0.50824119  0.13652913  0.32568161  1
  H+  H39  1  0.38925249  0.53385219  0.17394537  1
  H+  H40  1  0.46939042  0.11183045  0.65458654  1
  H+  H41  1  0.91425333  0.29985883  0.53221956  1
  H+  H42  1  0.97610170  0.62048457  0.98042890  1
  H+  H43  1  0.92459785  0.57970770  0.72089325  1
  H+  H44  1  0.24162646  0.36765835  1.02540043  1
  H+  H45  1  0.37305976  0.84758925  0.50879690  1
  H+  H46  1  0.38264797  0.76335641  0.50071089  1
  H+  H47  1  0.87747691  0.89349355  0.65124052  1
  H+  H48  1  0.12988988  0.85977411  1.00015152  1
  H+  H49  1  0.64125991  0.02993822  0.98203320  1
  H+  H50  1  0.33887075  0.64514310  0.16672799  1
  H+  H51  1  0.14110595  0.11724797  0.50937795  1
  H+  H52  1  0.62782841  0.72540211  0.16372436  1
  H+  H53  1  0.51309730  0.87842766  0.32821740  1
  H+  H54  1  0.47428431  0.36449473  0.96075230  1
  H+  H55  1  0.61694621  0.89360904  0.00094047  1
  H+  H56  1  1.02188335  0.37704654  0.67223821  1
  H+  H57  1  0.37311916  0.47341932  1.03037263  1
  H+  H58  1  0.22875555  0.35213477  0.66859506  1
  H+  H59  1  0.84987826  0.23326770  0.14644241  1
  H+  H60  1  0.07656493  0.60390782  0.30593639  1
  H+  H61  1  0.14344675  0.53566534  0.51870403  1
  H+  H62  1  0.13480207  0.60227782  0.83748071  1
  H+  H63  1  0.22994446  0.11999263  0.50678164  1
  H+  H64  1  0.13873946  0.74519218  0.04194967  1
  H+  H65  1  0.78763876  0.87949895  0.50625119  1
  H+  H66  1  0.10768908  0.22098993  0.33853339  1
  H+  H67  1  0.60260894  0.13693571  0.67058036  1
  H+  H68  1  0.12107065  0.48216545  1.00859808  1
  H+  H69  1  0.35708591  0.62991795  0.49128727  1
  H+  H70  1  0.58376599  0.64489951  0.42629975  1
  H+  H71  1  0.72909424  0.11954291  0.98336109  1
  H+  H72  1  0.83478024  0.67371499  0.42618858  1
  H+  H73  1  0.47055185  0.36448715  0.33325650  1
  H+  H74  1  0.91934684  0.57192305  0.42556380  1
  H+  H75  1  0.60811610  0.38430305  0.49665387  1
  H+  H76  1  0.67166821  0.58624717  0.93257399  1
  H+  H77  1  0.21794317  0.08726261  0.17131894  1
  H+  H78  1  0.58517585  0.98719106  0.47543539  1
  H+  H79  1  0.58928964  0.93689188  0.09426996  1
  H+  H80  1  0.72566681  0.86412024  0.99062704  1
  H+  H81  1  0.60216845  0.14242203  0.15638958  1
  H+  H82  1  1.02134943  0.10761560  0.16870450  1
  H+  H83  1  0.22104700  0.86453900  0.65262210  1
  H+  H84  1  0.52841292  0.63478634  1.00857801  1
  H+  H85  1  0.60646982  0.47467841  -0.00757052  1
  H+  H86  1  0.39372102  0.86732478  0.32136234  1
  H+  H87  1  0.61077526  0.38433632  0.67448403  1
  H+  H88  1  0.53354623  0.55248803  0.45390979  1
  H+  H89  1  0.38883067  0.87050682  -0.00522909  1
  H+  H90  1  0.38462780  1.02482994  -0.00720526  1
  H+  H91  1  0.06215015  0.61531650  0.20467292  1
  H+  H92  1  0.62470720  0.88282959  0.51727818  1
  H+  H93  1  0.36927059  0.14900551  0.48844492  1
  H+  H94  1  0.88556653  0.86236732  0.32652061  1
  H+  H95  1  0.88144123  0.61002308  0.83402117  1
  H+  H96  1  0.85005488  0.44839172  0.39597788  1
  H+  H97  1  0.38030399  0.78834737  0.16980922  1
  H+  H98  1  0.14105251  0.85632463  0.15938228  1
  H+  H99  1  0.59706489  0.14634206  0.30640395  1
  H+  H100  1  0.36729977  0.72210484  0.66885407  1
  H+  H101  1  0.02367896  0.89730647  0.34052664  1
  H+  H102  1  0.87900966  0.11217969  -0.00271942  1
  H+  H103  1  0.15210762  0.82688852  0.56718595  1
  H+  H104  1  0.02286606  0.13787347  0.49361587  1
  H+  H105  1  0.12402136  0.38827260  0.52204441  1
  H+  H106  1  0.86136108  0.09936473  0.83305462  1
  H+  H107  1  0.26607096  0.13738038  0.33740175  1
  H+  H108  1  0.63535339  0.37102009  0.15934151  1
  H+  H109  1  0.69203852  0.82150139  0.58902911  1
  H+  H110  1  0.86306918  0.63769430  0.00567837  1
  H+  H111  1  0.87470084  0.54721831  0.27892368  1
  H+  H112  1  0.38567683  0.12997754  0.16729944  1
  H+  H113  1  0.34429009  0.41970521  0.09188157  1
  H+  H114  1  0.12511646  0.35869852  0.82243796  1
  H+  H115  1  -0.03302457  0.10974460  -0.00274773  1
  H+  H116  1  0.91826587  0.83501716  0.26714559  1
  H+  H117  1  0.02418868  0.62761494  0.83126429  1
  H+  H118  1  0.37207080  0.47527455  0.83052299  1
  H+  H119  1  0.80369358  0.55249570  0.67782973  1
  H+  H120  1  0.39218930  0.78354699  -0.00158763  1
  H+  H121  1  0.86304620  0.76269799  0.67281572  1
  H+  H122  1  0.14027088  0.35565849  0.66726561  1
  H+  H123  1  0.64463936  0.62057918  0.32499267  1
  H+  H124  1  0.14226509  0.64484220  0.68386881  1
  H+  H125  1  0.95410043  0.35631156  0.83763852  1
  H+  H126  1  0.88545567  0.77410838  0.99509119  1
  H+  H127  1  0.02668663  0.89268752  0.68798346  1
  H+  H128  1  0.88887372  0.01576894  0.17292614  1
  H+  H129  1  0.88647008  1.01819599  0.51254297  1
  H+  H130  1  0.59760889  -0.01610205  0.66947563  1
  H+  H131  1  0.00519271  0.36236439  0.29418728  1
  H+  H132  1  0.86973914  0.51514362  0.84076891  1
  H+  H133  1  0.38862142  0.03424226  0.50248623  1
  H+  H134  1  0.40153173  0.28140121  0.17708525  1
  H+  H135  1  0.11087934  0.88755601  0.68224532  1
  H+  H136  1  0.54364370  0.64450632  0.34532405  1
  H+  H137  1  0.35538168  0.13757388  0.33660997  1
  H+  H138  1  0.36683174  0.46941763  0.67582696  1
  H+  H139  1  0.62714945  0.03281967  0.16625786  1
  H+  H140  1  0.11877542  -0.02006916  0.49866096  1
  H+  H141  1  0.77589651  0.63400192  0.16288238  1
  H+  H142  1  0.79327193  0.90021317  0.65961934  1
  H+  H143  1  0.18597980  0.57486077  0.24726155  1
  H+  H144  1  0.12661669  1.08629538  0.17283611  1
  H+  H145  1  0.36984936  -0.00392208  0.15644699  1
  H+  H146  1  0.11663402  0.64348366  0.29500415  1
  H+  H147  1  0.71306678  0.36278728  0.31890658  1
  H+  H148  1  0.37550190  0.39432750  0.17925427  1
  H+  H149  1  0.36755778  0.13902071  -0.00328265  1
  H+  H150  1  0.83809922  0.59341641  0.66381629  1
  H+  H151  1  0.38198527  0.27325014  0.32977252  1
  H+  H152  1  0.77408608  0.63576502  1.00891820  1
  H+  H153  1  0.86831087  0.10721121  0.32952443  1
  H+  H154  1  0.86596417  0.88351197  0.15706774  1
  H+  H155  1  0.58938624  0.66705546  0.06715573  1
  H+  H156  1  0.52717747  0.90402015  0.15192265  1
  H+  H157  1  0.63858191  0.73776297  0.34284299  1
  H+  H158  1  0.60726135  0.23336626  0.15006375  1
  H+  H159  1  0.13914435  0.77319329  0.66180627  1
  H+  H160  1  0.64335925  0.61665802  0.83786570  1
  H+  H161  1  0.63852082  0.52581719  0.84027761  1
  H+  H162  1  0.73773544  0.09119333  0.32233256  1
  H+  H163  1  0.26587388  0.37855309  0.50128381  1
  H+  H164  1  0.40560478  0.07143699  0.89742221  1
  H+  H165  1  0.63204234  0.36051917  0.96622239  1
  H+  H166  1  0.89686521  0.36787375  -0.00186198  1
  H+  H167  1  0.40858912  0.08787360  0.26082081  1
  H+  H168  1  0.28359020  0.90298403  0.15550880  1
  H+  H169  1  0.63899159  0.88334600  0.66415552  1
  H+  H170  1  0.36569885  0.22035809  0.84179227  1
  H+  H171  1  0.64100008  0.61312377  0.99294281  1
  H+  H172  1  0.60100833  0.22332417  0.67611594  1
  H+  H173  1  0.11902599  0.64380233  0.49940715  1
  H+  H174  1  0.87779439  0.89308847  0.49383921  1
  H+  H175  1  0.38505444  0.60506204  0.65904450  1
  H+  H176  1  0.11057656  0.21848240  1.02444952  1
  H+  H177  1  0.63959511  0.87935584  0.48590176  1
  H+  H178  1  0.86048593  0.97159135  0.83054903  1
  H+  H179  1  0.65729833  0.09524408  0.34578572  1
  H+  H180  1  0.27752331  0.64633871  0.00982759  1
  H+  H181  1  0.02024201  0.39094943  0.15781622  1
  H+  H182  1  0.48733731  0.61646086  0.83057777  1
  H+  H183  1  0.22728832  0.11113088  0.84381767  1
  H+  H184  1  0.46987384  0.86157499  0.65886897  1
  H+  H185  1  0.88564996  0.37040716  0.16929261  1
  H+  H186  1  0.62741219  0.59972115  0.65817454  1
  H+  H187  1  0.62615209  0.26711918  0.50392996  1
  H+  H188  1  0.28806240  0.20829704  0.13072267  1
  H+  H189  1  0.97746431  0.09749019  0.33075014  1
  H+  H190  1  0.14070421  0.80745120  0.31587636  1
  H+  H191  1  0.12793120  0.35177838  0.30750942  1
  H+  H192  1  0.77842208  0.63873567  0.83084175  1
  H+  H193  1  0.59712828  0.12190976  0.82644513  1
  H+  H194  1  0.36813782  0.63259505  0.82004884  1
  H+  H195  1  0.39187121  0.88235517  0.17101831  1
  H+  H196  1  0.72396424  0.11386652  0.82217991  1
  H+  H197  1  0.75783742  0.14855675  0.15011039  1
  H+  H198  1  0.35675974  0.38288288  0.49915230  1
  H+  H199  1  0.86256545  0.31634582  0.32265341  1
  H+  H200  1  0.47600766  0.11306222  0.98765855  1
  H+  H201  1  0.49442293  0.89341283  0.47600990  1
  H+  H202  1  0.12863167  0.86376097  0.50587199  1
  H+  H203  1  0.21857125  0.35858668  0.32796784  1
  H+  H204  1  0.52281309  0.13686496  0.48313229  1
  H+  H205  1  0.33100437  0.66403454  0.43145104  1
  H+  H206  1  0.85851883  0.47666370  0.17814127  1
  H+  H207  1  0.77086462  0.39282174  0.16020713  1
  H+  H208  1  0.92916740  0.48785533  0.35192858  1
  H+  H209  1  0.63748544  0.11624273  0.49426096  1
  H+  H210  1  0.64670763  0.99057080  0.81449472  1
  H+  H211  1  0.51465912  0.62950550  0.66165039  1
  H+  H212  1  0.66887255  0.58093179  0.22927626  1
  H+  H213  1  0.12772173  0.39557678  1.01192158  1
  H+  H214  1  0.35833087  0.88528798  0.66322486  1
  H+  H215  1  1.01068203  0.59040359  0.69726982  1
  H+  H216  1  0.87673568  0.48046211  0.00821737  1
  H+  H217  1  0.40512728  0.61930586  0.34204555  1
  H+  H218  1  0.86252958  0.73112532  0.33890045  1
  H+  H219  1  0.61748332  0.72886141  0.82122455  1
  H+  H220  1  0.13330284  0.26996431  0.51188501  1
  H+  H221  1  -0.00446695  0.71659269  0.31357493  1
  H+  H222  1  0.63615932  0.27546790  0.96954861  1
  H+  H223  1  0.11333852  0.13538750  0.33967252  1
  H+  H224  1  0.25653016  0.08528370  0.69957977  1
  H+  H225  1  0.75636402  0.10096394  0.69821068  1
  H+  H226  1  0.90246945  0.64876322  0.19838744  1
  H+  H227  1  0.63732490  0.77548082  -0.00778877  1
  H+  H228  1  0.22951210  0.62413283  0.50755094  1
  H+  H229  1  0.15854291  0.63890522  1.02623234  1
  H+  H230  1  0.85072385  0.46340439  0.48847459  1
  H+  H231  1  0.77910311  0.87839487  0.82928356  1
  H+  H232  1  0.39626697  0.52715618  0.34264457  1
  H+  H233  1  0.85330000  0.19542103  0.47127841  1
  H+  H234  1  0.37961039  0.61597877  0.99585123  1
  H+  H235  1  0.76576679  0.87065295  0.33853607  1
  H+  H236  1  0.78526445  0.63930395  0.49132956  1
  H+  H237  1  0.72106790  0.35208200  0.66866456  1
  H+  H238  1  0.30790046  0.90893469  0.76389450  1
  H+  H239  1  0.91414626  0.08675806  0.56812790  1
  H+  H240  1  0.67468210  0.08881428  0.88837356  1
  H+  H241  1  0.16946917  0.78640850  0.14486381  1
  H+  H242  1  0.88630530  0.00379387  0.33031398  1
  H+  H243  1  0.65012818  0.84727601  0.32698377  1
  H+  H244  1  0.28442577  0.39573755  0.17549174  1
  H+  H245  1  0.13432449  0.02676254  0.33028464  1
  H+  H246  1  0.12270294  0.13557208  0.81996424  1
  H+  H247  1  0.28072731  0.38891397  0.82808994  1
  H+  H248  1  0.63746250  0.52851607  0.32529362  1
  H+  H249  1  0.61350936  0.13722180  -0.00623542  1
  H+  H250  1  0.71721460  0.09813923  0.49394909  1
  H+  H251  1  0.08276721  0.16825202  0.43456124  1
  H+  H252  1  0.38389762  1.02470368  0.31937030  1
  H+  H253  1  0.47541782  0.13068351  0.16596520  1
  H+  H254  1  0.28249720  0.88684840  0.32805642  1
  H+  H255  1  0.37150530  0.73162264  0.33655197  1
  H+  H256  1  0.65344526  0.86677078  0.83233840  1
  H+  H257  1  0.88643247  0.77176551  0.17327831  1
  H+  H258  1  0.40945138  0.77790994  0.83911245  1
  H+  H259  1  0.64400835  0.60538825  0.50934282  1
  H+  H260  1  0.52973025  0.89676616  0.00165533  1
  H+  H261  1  1.02834941  0.89107492  0.49733801  1
  H+  H262  1  0.97807391  0.85631767  0.17166425  1
  H+  H263  1  0.71453679  0.35369388  0.50511176  1
  H+  H264  1  0.15122199  0.37808665  0.17449558  1
  H+  H265  1  0.09146254  0.45390012  0.29564749  1
  H+  H266  1  0.22894134  0.52244076  0.26867775  1
  H+  H267  1  0.35417987  0.38364849  0.34335434  1
  H+  H268  1  0.10942649  -0.02480619  1.00619776  1
  H+  H269  1  0.86017465  0.88765384  1.00367368  1
  H+  H270  1  0.61676768  0.47694412  0.67288149  1
  H+  H271  1  0.12076448  0.22535013  0.81572945  1
  H+  H272  1  0.39198328  0.36722605  0.65947138  1
  H+  H273  1  0.88947801  0.86630273  0.84207970  1
  H+  H274  1  0.38668315  0.27738144  0.50767651  1
  H+  H275  1  0.33409011  0.92194082  0.55744126  1
  H+  H276  1  0.23706109  0.60692540  0.66368040  1
  H+  H277  1  0.11237775  0.95863349  0.16172685  1
  H+  H278  1  0.88172281  0.34091680  0.68113620  1
  H+  H279  1  0.02397492  0.64175850  0.47720083  1
  H+  H280  1  0.61204545  0.96451920  0.33135887  1
  H+  H281  1  0.34159871  0.96563788  0.82342834  1
  H+  H282  1  0.09675168  0.42151710  0.46513199  1
  H+  H283  1  0.46446276  0.59899752  0.50244307  1
  H+  H284  1  0.62413251  0.27516304  0.31835486  1
  H+  H285  1  0.37364660  0.51404611  0.50642365  1
  H+  H286  1  0.64248030  0.61212692  0.16885954  1
  H+  H287  1  0.36225631  0.12929700  0.83513068  1
  H+  H288  1  0.17243614  0.33385526  0.22906190  1
  H+  H289  1  0.88858078  0.50993051  0.59444893  1
  H+  H290  1  0.72346827  0.62663584  0.67122026  1
  H+  H291  1  0.16917596  0.32029185  0.57505112  1
  H+  H292  1  0.06819460  0.39954604  0.75864087  1
  H+  H293  1  0.11451131  0.67788338  0.74354696  1
  H+  H294  1  0.88982010  0.77624064  0.84219377  1
  H+  H295  1  0.33155939  0.67417749  0.07048856  1
  H+  H296  1  0.83187653  0.90986907  0.39892002  1
  H+  H297  1  0.13695720  0.02178065  0.84367673  1
  H+  H298  1  0.07892583  0.13692976  0.10842381  1
  H+  H299  1  0.41563483  0.82660488  0.59748512  1
  H+  H300  1  0.11148972  0.71809324  0.84115233  1
  H+  H301  1  0.71178762  0.35323413  0.88258328  1
  H+  H302  1  0.42175980  0.09504898  0.55952834  1
  H+  H303  1  0.19086117  0.83427485  0.25231151  1
  H+  H304  1  0.08768349  0.16227783  0.74161884  1
  H+  H305  1  0.58106342  0.42122298  0.40277175  1
  H+  H306  1  0.85385754  0.42989047  0.07106434  1
  H+  H307  1  0.92108972  0.06888739  0.23401964  1
  H+  H308  1  0.11674324  0.22371913  0.67459416  1
  H+  H309  1  0.15229578  0.61793868  0.95721641  1
  H+  H310  1  0.32208026  0.40887092  0.40359775  1
  H+  H311  1  0.91542734  0.83261308  0.93453968  1
  H+  H312  1  0.32853530  0.15031309  0.74236240  1
  H+  H313  1  0.86365887  0.51877699  0.57092711  1
  H+  H314  1  0.03900016  0.39442395  0.39705709  1
  H+  H315  1  0.91694390  0.34473496  0.61575291  1
  H+  H316  1  0.65788475  0.33883644  0.22094303  1
  H+  H317  1  0.66457925  0.32859640  0.60682833  1
  H+  H318  1  0.33419671  0.18023554  0.08328544  1
  H+  H319  1  0.33437500  0.17650245  0.43093900  1
  H+  H320  1  0.14576168  0.32536630  0.88183567  1
  H+  H321  1  0.42610135  0.33409599  0.24031333  1
  H+  H322  1  0.73140161  0.18023012  0.63234165  1
  H+  H323  1  0.58375339  0.16891513  0.05236308  1
  H+  H324  1  0.89945594  0.02924418  0.65162397  1
  H+  H325  1  0.58983373  0.67051570  0.76049557  1
  H+  H326  1  0.44030341  0.83611266  0.89626440  1
  H+  H327  1  0.35018993  0.53085488  0.95925738  1
  H+  H328  1  0.85790190  0.97596835  0.00556073  1
  H+  H329  1  0.11334115  0.51323026  0.16099400  1
  H+  H330  1  0.70851721  0.98471462  0.76852097  1
  H+  H331  1  0.89134153  0.08045772  0.89794422  1
  H+  H332  1  0.10865741  0.13098107  0.00914002  1
  H+  H333  1  0.56911988  0.40826846  0.04627070  1
  H+  H334  1  0.91381167  0.82811234  0.56394455  1
  H+  H335  1  0.76992573  0.73471451  0.72338868  1
  H+  H336  1  0.55816811  0.92246126  0.39983389  1
  H+  H337  1  0.67875320  0.58463884  0.57097568  1
  H+  H338  1  0.58036277  0.16780023  0.42266181  1
  H+  H339  1  0.15795398  0.82121640  0.94486074  1
  H+  H340  1  0.17446829  0.58820494  0.60739797  1
  H+  H341  1  0.53465631  0.63945652  0.15851900  1
  H+  H342  1  0.83041626  0.91111603  0.09928810  1
  H+  H343  1  0.64558291  0.80657740  0.69175551  1
  H+  H344  1  0.33774604  0.91917649  0.39023260  1
  H+  H345  1  0.33691470  0.92646702  0.06411015  1
  H+  H346  1  0.42116968  0.33933886  0.59225272  1
  H+  H347  1  0.26153720  0.88275873  0.50942162  1
  H+  H348  1  0.16796474  0.55519061  0.88312527  1
  H+  H349  1  0.82070505  0.16792700  0.06008803  1
  H+  H350  1  0.81011427  0.38385883  0.74921148  1
  H+  H351  1  0.90746587  0.32275361  0.22147057  1
  H+  H352  1  0.08668690  0.91502113  0.77961620  1
  H+  H353  1  0.57395807  0.41670314  0.77208041  1
  H+  H354  1  0.67646896  0.10237545  0.58887228  1
  H+  H355  1  0.90978795  0.33603398  0.90356173  1
  H+  H356  1  0.08050852  0.90629247  0.09882173  1
  H+  H357  1  0.27719943  0.62858801  0.81713670  1
  H+  H358  1  0.37700494  0.10438979  0.65711858  1
  H+  H359  1  0.56337360  0.15165176  0.77063536  1
  H+  H360  1  0.16264627  0.08264408  0.93393553  1
  H+  H361  1  0.91092836  0.58271070  0.92554184  1
  H+  H362  1  0.40880212  0.57130858  0.59874827  1
  H+  H363  1  0.04573836  0.68317276  0.34999367  1
  H+  H364  1  0.43330300  0.59624478  0.89183714  1
  H+  H365  1  0.67806229  0.81057928  0.24066932  1
  H+  H366  1  0.34174878  0.66358453  0.72940260  1
  H+  H367  1  0.83047430  0.13315888  0.38811846  1
  H+  H368  1  0.65998376  0.08640139  0.22852287  1
  H+  H369  1  0.06111921  0.36791139  0.39694923  1
  H+  H370  1  0.42025737  0.83954754  0.25882407  1
  H+  H371  1  0.08302053  0.92712362  0.39966901  1
  H+  H372  1  0.95220593  0.78628815  0.63474907  1
  H+  H373  1  0.25124075  0.64739351  0.15726210  1
  H+  H374  1  0.01901683  0.88635965  0.00546827  1
  H+  H375  1  0.16560738  0.07924339  0.26791190  1
  H+  H376  1  0.11678555  0.73907196  0.49765117  1
  H+  H377  1  0.19444037  0.32463115  0.96498592  1
  H+  H378  1  0.08176690  0.42116224  0.09839637  1
  H+  H379  1  0.10395460  0.67145021  0.09638660  1
  H+  H380  1  0.84387485  0.37126684  0.84239574  1
  H+  H381  1  0.36451124  0.22602722  -0.01408507  1
  H+  H382  1  0.82692152  0.68037989  0.76937304  1
  H+  H383  1  0.66406037  0.82855149  0.89627425  1
  O2-  O384  1  0.08251943  0.13058169  0.15284657  1
  O2-  O385  1  0.08338405  0.17087641  0.48012259  1
  O2-  O386  1  0.09442177  0.16569272  0.80030452  1
  O2-  O387  1  0.08170426  0.42633050  0.14373597  1
  O2-  O388  1  0.09835885  0.42624945  0.50958774  1
  O2-  O389  1  0.06601216  0.39848876  0.80451856  1
  O2-  O390  1  0.07617384  0.60266330  0.16414638  1
  O2-  O391  1  0.09185829  0.67659173  0.48049293  1
  O2-  O392  1  0.08712507  0.65825134  0.82364956  1
  O2-  O393  1  0.08228457  0.89884648  0.14382674  1
  O2-  O394  1  0.08935932  0.91924959  0.48331681  1
  O2-  O395  1  0.08667996  0.91567000  0.82534421  1
  O2-  O396  1  0.32557378  0.18363957  0.12869529  1
  O2-  O397  1  0.33869958  0.17980419  0.47631870  1
  O2-  O398  1  0.33357105  0.16352872  0.82221806  1
  O2-  O399  1  0.34823402  0.42738725  0.16453701  1
  O2-  O400  1  0.32524877  0.41165819  0.48381219  1
  O2-  O401  1  0.34254643  0.41316605  0.81901796  1
  O2-  O402  1  0.31393205  0.67790968  0.14807695  1
  O2-  O403  1  0.32841257  0.66247850  0.47717410  1
  O2-  O404  1  0.33735102  0.66096335  0.80292913  1
  O2-  O405  1  0.34529810  0.93574874  0.14198978  1
  O2-  O406  1  0.32618901  0.91344623  0.51339803  1
  O2-  O407  1  0.30507793  0.90572558  0.80837654  1
  O2-  O408  1  0.57262719  0.17179439  0.13776201  1
  O2-  O409  1  0.58362067  0.16637469  0.46743549  1
  O2-  O410  1  0.55941797  0.14550778  0.81516710  1
  O2-  O411  1  0.58550651  0.42024721  0.13363075  1
  O2-  O412  1  0.58228337  0.41909016  0.48228648  1
  O2-  O413  1  0.58156790  0.42680894  0.81619215  1
  O2-  O414  1  0.59338190  0.66483897  0.14224442  1
  O2-  O415  1  0.56134868  0.61206788  0.46745196  1
  O2-  O416  1  0.58766893  0.66777620  0.80515163  1
  O2-  O417  1  0.58728609  0.94141061  0.13931395  1
  O2-  O418  1  0.53837341  0.94175867  0.44984886  1
  O2-  O419  1  0.65205256  0.94752205  0.78783728  1
  O2-  O420  1  0.81507586  0.17406769  0.13083752  1
  O2-  O421  1  0.82089857  0.13325094  0.46719274  1
  O2-  O422  1  0.81044232  0.13644457  0.77744393  1
  O2-  O423  1  0.83426858  0.42479846  0.15248421  1
  O2-  O424  1  0.82185865  0.40452938  0.47206898  1
  O2-  O425  1  0.81281043  0.40443855  0.82593122  1
  O2-  O426  1  0.83812854  0.66542007  0.15070033  1
  O2-  O427  1  0.84322003  0.67298019  0.47268980  1
  O2-  O428  1  0.83761637  0.66948380  0.81333675  1
  O2-  O429  1  0.83217403  0.91114667  0.14456681  1
  O2-  O430  1  0.84114374  0.91916878  0.48431937  1
  O2-  O431  1  0.83979882  0.91130611  0.81618047  1
  O2-  O432  1  0.16076102  0.05653003  0.18965192  1
  O2-  O433  1  0.17075195  0.08623812  0.52325408  1
  O2-  O434  1  0.16547466  0.08393717  0.85614546  1
  O2-  O435  1  0.18552455  0.35144876  0.18573116  1
  O2-  O436  1  0.16384560  0.32902390  0.53071905  1
  O2-  O437  1  0.16128661  0.33367042  0.83898210  1
  O2-  O438  1  0.14220278  0.57894871  0.17687316  1
  O2-  O439  1  0.17049721  0.59875623  0.52610895  1
  O2-  O440  1  0.16498221  0.56745745  0.84040591  1
  O2-  O441  1  0.18211785  0.83529742  0.17115034  1
  O2-  O442  1  0.15552849  0.82816510  0.52106811  1
  O2-  O443  1  0.15621794  0.81868878  0.86537893  1
  O2-  O444  1  0.41502551  0.10064325  0.18353327  1
  O2-  O445  1  0.42433798  0.09532905  0.51362666  1
  O2-  O446  1  0.40176882  0.06999636  0.85221181  1
  O2-  O447  1  0.43157309  0.33956737  0.19455736  1
  O2-  O448  1  0.41790390  0.33791406  0.52448845  1
  O2-  O449  1  0.42000286  0.33025616  0.87871247  1
  O2-  O450  1  0.41140928  0.59682682  0.16688165  1
  O2-  O451  1  0.40600755  0.57599794  0.52011882  1
  O2-  O452  1  0.42713112  0.58549216  0.84771448  1
  O2-  O453  1  0.41746539  0.84716139  0.18591200  1
  O2-  O454  1  0.41234626  0.82450498  0.51607996  1
  O2-  O455  1  0.45854981  0.83006336  0.85533611  1
  O2-  O456  1  0.65342548  0.09334158  0.18498092  1
  O2-  O457  1  0.65910095  0.07885200  0.51144009  1
  O2-  O458  1  0.66639593  0.08331527  0.84318165  1
  O2-  O459  1  0.66365950  0.33880467  0.17627244  1
  O2-  O460  1  0.65572320  0.32558420  0.52237015  1
  O2-  O461  1  0.72081707  0.35157538  0.83721835  1
  O2-  O462  1  0.67137531  0.57996429  0.18366211  1
  O2-  O463  1  0.67960076  0.58162720  0.52534799  1
  O2-  O464  1  0.67198862  0.58684896  0.85577848  1
  O2-  O465  1  0.67305505  0.80817825  0.19498150  1
  O2-  O466  1  0.70089303  0.79109856  0.55461563  1
  O2-  O467  1  0.66696061  0.82445545  0.85098365  1
  O2-  O468  1  0.92671677  0.07448001  0.18932374  1
  O2-  O469  1  0.91187410  0.08108035  0.52297528  1
  O2-  O470  1  0.89049542  0.07181450  0.85358341  1
  O2-  O471  1  0.91659172  0.33810489  0.17793710  1
  O2-  O472  1  0.93040582  0.36007930  0.52966131  1
  O2-  O473  1  0.89911930  0.33677886  0.85880739  1
  O2-  O474  1  0.94424052  0.64668842  0.22827023  1
  O2-  O475  1  0.93127853  0.59281166  0.46815215  1
  O2-  O476  1  0.90862142  0.57695864  0.85076763  1
  O2-  O477  1  0.91834759  0.83266567  0.18728044  1
  O2-  O478  1  0.92173739  0.83468505  0.51901869  1
  O2-  O479  1  0.92031105  0.83575471  0.85893162  1
  O2-  O480  1  0.16778200  0.08775145  0.31281526  1
  O2-  O481  1  0.24238209  0.22819744  0.58537660  1
  O2-  O482  1  0.16363628  0.08184993  0.97959533  1
  O2-  O483  1  0.16158488  0.32133304  0.30847202  1
  O2-  O484  1  0.16822248  0.32198486  0.65437963  1
  O2-  O485  1  0.18185218  0.33671442  1.00561291  1
  O2-  O486  1  0.20943398  0.56081728  0.28368181  1
  O2-  O487  1  0.17465013  0.57914296  0.65189805  1
  O2-  O488  1  0.16703042  0.60130773  0.99550201  1
  O2-  O489  1  0.19860304  0.83672699  0.29689228  1
  O2-  O490  1  0.15856030  0.82982469  0.64167242  1
  O2-  O491  1  0.16005561  0.82709754  0.99019653  1
  O2-  O492  1  0.41121440  0.08624216  0.30631436  1
  O2-  O493  1  0.41079127  0.08157387  0.63551350  1
  O2-  O494  1  0.41351307  0.08469309  0.97616715  1
  O2-  O495  1  0.41189422  0.33419996  0.31480603  1
  O2-  O496  1  0.42722483  0.34309694  0.63985471  1
  O2-  O497  1  0.41291529  0.33069068  0.94551178  1
  O2-  O498  1  0.43571061  0.58811035  0.33227811  1
  O2-  O499  1  0.41305065  0.57183425  0.64419585  1
  O2-  O500  1  0.40124077  0.57891423  0.97712513  1
  O2-  O501  1  0.42307066  0.83656813  0.30498985  1
  O2-  O502  1  0.41029594  0.82763841  0.64249354  1
  O2-  O503  1  0.42259514  0.84279243  0.98244477  1
  O2-  O504  1  0.67318624  0.06757711  0.31430540  1
  O2-  O505  1  0.68682264  0.11983598  0.63278393  1
  O2-  O506  1  0.66928959  0.08988258  0.96577205  1
  O2-  O507  1  0.65373286  0.33674668  0.30513839  1
  O2-  O508  1  0.66136266  0.32788607  0.65184839  1
  O2-  O509  1  0.66528888  0.33392787  0.95210999  1
  O2-  O510  1  0.67054671  0.58642884  0.30699027  1
  O2-  O511  1  0.66877877  0.58012421  0.64891975  1
  O2-  O512  1  0.67058355  0.58226226  0.97820221  1
  O2-  O513  1  0.68277042  0.81907831  0.31733933  1
  O2-  O514  1  0.67150830  0.85168478  0.66110613  1
  O2-  O515  1  0.66508513  0.83419772  0.97472377  1
  O2-  O516  1  0.91752825  0.06557796  0.31420748  1
  O2-  O517  1  0.92440623  0.09400117  0.64970818  1
  O2-  O518  1  0.90715674  0.07962821  0.98185745  1
  O2-  O519  1  0.89423041  0.29394101  0.30106041  1
  O2-  O520  1  0.91877041  0.32499366  0.65702394  1
  O2-  O521  1  0.92099707  0.33338839  0.97826352  1
  O2-  O522  1  0.90563195  0.55440639  0.24056260  1
  O2-  O523  1  0.94980990  0.54647438  0.70569043  1
  O2-  O524  1  0.91510067  0.58699732  0.97148540  1
  O2-  O525  1  0.91846252  0.83382209  0.31247662  1
  O2-  O526  1  0.91848204  0.81322888  0.64511715  1
  O2-  O527  1  0.91608506  0.83465897  0.98039952  1
  O2-  O528  1  0.07548346  0.15561967  0.02841207  1
  O2-  O529  1  0.07969211  0.16170381  0.35628586  1
  O2-  O530  1  0.08209162  0.16220440  0.69033591  1
  O2-  O531  1  0.09149935  0.42155680  0.02169173  1
  O2-  O532  1  0.06676713  0.39389420  0.28343233  1
  O2-  O533  1  0.08438598  0.40623440  0.68495377  1
  O2-  O534  1  0.15144498  0.70812800  0.06874808  1
  O2-  O535  1  0.03813879  0.73282541  0.34611146  1
  O2-  O536  1  0.11442015  0.67789391  0.69834856  1
  O2-  O537  1  0.07963968  0.91468323  0.02119621  1
  O2-  O538  1  0.08382728  0.93335109  0.35507303  1
  O2-  O539  1  0.08619175  0.91910504  0.70301114  1
  O2-  O540  1  0.33724974  0.17151030  0.00918006  1
  O2-  O541  1  0.32774496  0.16938006  0.35263615  1
  O2-  O542  1  0.31515365  0.13313665  0.69881293  1
  O2-  O543  1  0.33793021  0.41515324  0.04609912  1
  O2-  O544  1  0.32298163  0.41283673  0.35834934  1
  O2-  O545  1  0.34162743  0.40898808  0.69079641  1
  O2-  O546  1  0.33728428  0.67183087  0.02538591  1
  O2-  O547  1  0.34286972  0.67349477  0.35530087  1
  O2-  O548  1  0.34056295  0.66144643  0.68334288  1
  O2-  O549  1  0.33311624  0.92187973  0.01877705  1
  O2-  O550  1  0.34428876  0.92187460  0.34620095  1
  O2-  O551  1  0.32513842  0.91496842  0.67133184  1
  O2-  O552  1  0.58090548  0.16610240  0.00743810  1
  O2-  O553  1  0.57253770  0.16796292  0.33640943  1
  O2-  O554  1  0.56758974  0.16073255  0.68642693  1
  O2-  O555  1  0.56878007  0.41195477  0.00139438  1
  O2-  O556  1  0.57621206  0.42118741  0.35754103  1
  O2-  O557  1  0.57902825  0.41507305  0.68517464  1
  O2-  O558  1  0.58860199  0.66702357  0.02105300  1
  O2-  O559  1  0.60437891  0.67173002  0.35988910  1
  O2-  O560  1  0.57780169  0.66327942  0.67294021  1
  O2-  O561  1  0.59117608  0.92856997  0.01471128  1
  O2-  O562  1  0.57203047  0.90733114  0.35090279  1
  O2-  O563  1  0.57455178  0.92507378  0.68383738  1
  O2-  O564  1  0.82669678  0.16523281  0.01407441  1
  O2-  O565  1  0.83254560  0.13630261  0.34292461  1
  O2-  O566  1  0.78853073  0.08114153  0.72330575  1
  O2-  O567  1  0.86083033  0.42486633  0.02706471  1
  O2-  O568  1  0.87898998  0.49195010  0.36340039  1
  O2-  O569  1  0.81810696  0.38376598  0.70404774  1
  O2-  O570  1  0.83445045  0.66710851  0.02455248  1
  O2-  O571  1  0.83302560  0.67150821  0.35609840  1
  O2-  O572  1  0.79697320  0.70410239  0.70637471  1
  O2-  O573  1  0.82688146  0.91431965  0.01927557  1
  O2-  O574  1  0.83241543  0.90958421  0.35403936  1
  O2-  O575  1  0.85190452  0.92929406  0.64302624  1
