# generated using pymatgen
data_H2O
_symmetry_space_group_name_H-M   'P 1'
_cell_length_a   17.98593122
_cell_length_b   17.97953941
_cell_length_c   21.99684667
_cell_angle_alpha   89.98117077
_cell_angle_beta   89.98561460
_cell_angle_gamma   119.98298366
_symmetry_Int_Tables_number   1
_chemical_formula_structural   H2O
_chemical_formula_sum   'H384 O192'
_cell_volume   6161.36473068
_cell_formula_units_Z   192
loop_
 _symmetry_equiv_pos_site_id
 _symmetry_equiv_pos_as_xyz
  1  'x, y, z'
loop_
 _atom_type_symbol
 _atom_type_oxidation_number
  H+  1.0
  O2-  -2.0
loop_
 _atom_site_type_symbol
 _atom_site_label
 _atom_site_symmetry_multiplicity
 _atom_site_fract_x
 _atom_site_fract_y
 _atom_site_fract_z
 _atom_site_occupancy
  H+  H0  1  0.34583590  0.88258670  0.82677906  1
  H+  H1  1  0.39298637  0.36811414  0.17629822  1
  H+  H2  1  0.72750782  0.35545393  0.33753967  1
  H+  H3  1  0.63716567  0.62085397  0.49626546  1
  H+  H4  1  0.65833997  0.15213207  0.87515528  1
  H+  H5  1  0.63136229  0.76892527  0.66179625  1
  H+  H6  1  0.23518119  0.85857411  0.32404550  1
  H+  H7  1  0.71117671  0.33848037  0.65737708  1
  H+  H8  1  0.23353213  0.86961143  0.99426841  1
  H+  H9  1  0.37141013  0.13220675  0.65106869  1
  H+  H10  1  0.11599923  0.30495343  0.00754445  1
  H+  H11  1  0.39535019  0.14437395  0.81575031  1
  H+  H12  1  0.87757324  0.13973489  0.16785662  1
  H+  H13  1  0.37429501  0.36001519  0.33527218  1
  H+  H14  1  0.66712790  0.82239070  0.24890780  1
  H+  H15  1  0.12813958  0.65410095  0.49319564  1
  H+  H16  1  0.51026082  0.61926141  0.16317035  1
  H+  H17  1  0.68539872  0.46060649  0.70674391  1
  H+  H18  1  0.65923436  0.26076603  0.50314111  1
  H+  H19  1  0.77665084  0.12785417  1.01629226  1
  H+  H20  1  0.86526033  0.89723899  0.82373978  1
  H+  H21  1  0.51225342  0.39489440  0.48871124  1
  H+  H22  1  1.01291581  0.85154145  0.33625275  1
  H+  H23  1  0.59849452  0.61458870  0.82947773  1
  H+  H24  1  0.36852519  1.00441902  0.64383387  1
  H+  H25  1  0.63501343  0.37681458  0.84905644  1
  H+  H26  1  0.72321456  0.83481089  0.15608570  1
  H+  H27  1  0.62020199  0.46231307  0.16909514  1
  H+  H28  1  0.14127404  0.52257134  0.50787965  1
  H+  H29  1  0.13728293  0.77504955  0.31906052  1
  H+  H30  1  0.96141186  0.61465231  0.17053365  1
  H+  H31  1  0.70351039  0.61406214  0.84133760  1
  H+  H32  1  0.85553883  0.38647047  0.82788663  1
  H+  H33  1  0.58116688  0.73624421  0.99392023  1
  H+  H34  1  0.85403199  0.38349791  0.67402141  1
  H+  H35  1  0.87893597  0.60861912  0.65348131  1
  H+  H36  1  0.25121687  0.19497588  0.84426380  1
  H+  H37  1  0.84945239  0.62525768  0.15291910  1
  H+  H38  1  0.62473467  0.37912079  0.67093982  1
  H+  H39  1  0.83612691  0.91895071  0.72945755  1
  H+  H40  1  0.14482714  0.36390513  0.16915802  1
  H+  H41  1  0.60911367  0.49092637  0.83342384  1
  H+  H42  1  0.14594466  0.00533759  0.65206389  1
  H+  H43  1  1.02319508  0.86965127  0.67100565  1
  H+  H44  1  0.35243381  0.38144188  0.83413324  1
  H+  H45  1  0.76456284  0.62568664  -0.00330727  1
  H+  H46  1  0.21501837  0.60782373  0.31590449  1
  H+  H47  1  0.61088350  0.47456404  0.34018793  1
  H+  H48  1  0.58599658  0.42453436  0.77548194  1
  H+  H49  1  0.23840554  0.19170509  0.81132429  1
  H+  H50  1  0.88619504  0.27715467  0.32763506  1
  H+  H51  1  0.48144219  0.10720159  0.33404261  1
  H+  H52  1  0.60875318  0.96241263  0.01556452  1
  H+  H53  1  0.85057354  0.71491463  0.15218442  1
  H+  H54  1  0.87946283  0.52479995  0.32619211  1
  H+  H55  1  0.24567888  0.12263618  0.33050134  1
  H+  H56  1  0.88788573  0.60917693  0.50432396  1
  H+  H57  1  0.63397248  0.60819574  0.32387972  1
  H+  H58  1  0.37790339  0.86228788  0.17587820  1
  H+  H59  1  0.86070961  0.76722880  0.82938113  1
  H+  H60  1  0.16147822  0.32846023  0.56652976  1
  H+  H61  1  0.84942803  0.85493578  -0.02208251  1
  H+  H62  1  0.36207691  0.72408652  0.49583794  1
  H+  H63  1  0.58965602  0.86066018  0.18174734  1
  H+  H64  1  0.35303540  0.37807831  0.67684307  1
  H+  H65  1  0.87027605  0.14846379  0.81882666  1
  H+  H66  1  0.87515385  0.00451254  0.34808415  1
  H+  H67  1  0.21627138  0.61445802  0.66203680  1
  H+  H68  1  0.38899579  0.26922176  0.64970800  1
  H+  H69  1  0.13778082  0.90533604  0.00990940  1
  H+  H70  1  0.12496372  0.46899641  0.15017667  1
  H+  H71  1  0.60192362  0.97251061  0.85539061  1
  H+  H72  1  0.46725783  0.85880269  0.50088489  1
  H+  H73  1  0.90152327  0.90402448  0.15365764  1
  H+  H74  1  0.77382486  0.57320376  0.79475325  1
  H+  H75  1  0.63934747  0.52603176  0.65100591  1
  H+  H76  1  0.47033275  0.36274922  0.65609522  1
  H+  H77  1  0.11035545  0.40176443  0.82399385  1
  H+  H78  1  0.24089757  0.62187457  0.84223453  1
  H+  H79  1  0.99340488  0.82964542  0.94242563  1
  H+  H80  1  0.60653571  0.12587256  0.61434233  1
  H+  H81  1  0.35364635  -0.02753413  0.16655604  1
  H+  H82  1  0.35848380  0.13827146  0.49047423  1
  H+  H83  1  0.89256024  0.28227183  0.83273952  1
  H+  H84  1  0.62106191  0.21575089  0.00902773  1
  H+  H85  1  0.96911404  0.84916928  0.17444543  1
  H+  H86  1  0.47262238  0.61526988  0.48967780  1
  H+  H87  1  0.82854728  0.75722042  0.97893828  1
  H+  H88  1  0.62233621  0.24942549  0.64380216  1
  H+  H89  1  0.60739219  0.49075390  0.48603423  1
  H+  H90  1  0.38417916  0.51787474  0.17380684  1
  H+  H91  1  0.86454141  0.38806905  0.34025764  1
  H+  H92  1  0.15062712  0.53582954  0.84044611  1
  H+  H93  1  0.64586225  0.36066434  0.00541810  1
  H+  H94  1  0.60548418  0.23328994  0.86599005  1
  H+  H95  1  0.08132043  0.96649243  0.82743333  1
  H+  H96  1  0.63061537  0.87038508  0.50915594  1
  H+  H97  1  0.78498545  0.37805612  0.16233610  1
  H+  H98  1  0.50876898  0.61838914  0.33529426  1
  H+  H99  1  0.58521170  0.83974412  0.99622126  1
  H+  H100  1  0.36809772  0.98023049  0.01141083  1
  H+  H101  1  0.37714005  0.23905643  0.34138611  1
  H+  H102  1  0.22762905  0.87795687  0.51593684  1
  H+  H103  1  0.89305470  0.61269722  0.83278385  1
  H+  H104  1  0.35860590  0.37929455  1.01121823  1
  H+  H105  1  0.77435924  0.93942286  0.35425176  1
  H+  H106  1  0.60715819  0.48982521  0.00643714  1
  H+  H107  1  0.58606082  0.70705145  0.31463400  1
  H+  H108  1  0.63958560  0.86191013  0.66280880  1
  H+  H109  1  0.14304928  0.51919085  0.99629886  1
  H+  H110  1  0.58304599  0.98518332  0.48476423  1
  H+  H111  1  0.89399163  0.36004502  0.99283769  1
  H+  H112  1  0.13870781  0.63293615  0.65393992  1
  H+  H113  1  0.87072274  0.51629420  0.65620045  1
  H+  H114  1  0.22108431  0.36406543  0.50715854  1
  H+  H115  1  0.38221195  0.86542691  1.00458866  1
  H+  H116  1  1.01985824  0.64441711  0.31803592  1
  H+  H117  1  0.23011443  0.09685468  0.65119676  1
  H+  H118  1  0.46157937  0.59351879  0.83886657  1
  H+  H119  1  0.17969060  0.10425759  0.94141289  1
  H+  H120  1  0.61998677  0.21075583  0.34598839  1
  H+  H121  1  0.67990288  0.32073882  0.24026822  1
  H+  H122  1  0.69446299  0.79042183  0.86444288  1
  H+  H123  1  0.87370328  0.48464453  0.50006070  1
  H+  H124  1  0.31687442  0.15630675  0.80153943  1
  H+  H125  1  0.60125361  0.70406997  0.16195958  1
  H+  H126  1  0.52643859  0.13579220  0.86064005  1
  H+  H127  1  0.22481819  0.11416396  0.18162670  1
  H+  H128  1  0.89262225  0.86471294  0.65780807  1
  H+  H129  1  0.36154144  0.72462209  1.01132585  1
  H+  H130  1  0.13343432  0.11493581  0.50351558  1
  H+  H131  1  0.97723024  0.34913307  0.98915692  1
  H+  H132  1  0.86235390  0.22050465  0.00914669  1
  H+  H133  1  0.67049232  0.34062633  0.94083689  1
  H+  H134  1  0.91735478  0.03933209  0.18296559  1
  H+  H135  1  0.85191481  0.86677463  0.31341301  1
  H+  H136  1  0.64744602  0.01202366  0.32423412  1
  H+  H137  1  0.86606201  0.64636212  0.34086705  1
  H+  H138  1  0.89778139  0.12394268  0.98772091  1
  H+  H139  1  0.17124053  0.84291070  0.93511056  1
  H+  H140  1  0.68254080  1.04048179  0.59814783  1
  H+  H141  1  0.10651654  0.38722329  0.34372676  1
  H+  H142  1  0.11603683  0.27273512  0.32074923  1
  H+  H143  1  0.34946883  0.62634382  0.67686996  1
  H+  H144  1  0.16345878  0.90245224  0.35176298  1
  H+  H145  1  0.74813343  0.86795719  0.18014720  1
  H+  H146  1  0.89988080  0.27401444  0.17471586  1
  H+  H147  1  0.09243355  0.39970106  1.06209080  1
  H+  H148  1  0.28884246  0.14430116  0.01532732  1
  H+  H149  1  0.23193774  0.59595165  0.17124160  1
  H+  H150  1  0.90847591  1.00299140  -0.00635424  1
  H+  H151  1  0.36030153  0.22784120  0.17159356  1
  H+  H152  1  0.51598847  0.38897312  0.34206863  1
  H+  H153  1  0.58778537  0.97678958  0.69280065  1
  H+  H154  1  0.17796711  0.58274788  0.93991746  1
  H+  H155  1  0.45316739  0.85093431  0.65543390  1
  H+  H156  1  0.63021775  0.61095772  0.98715872  1
  H+  H157  1  0.89491312  0.11677938  0.65951884  1
  H+  H158  1  0.03375261  0.65292312  0.81388284  1
  H+  H159  1  0.12716101  0.23641206  0.16439861  1
  H+  H160  1  0.84563690  0.16362126  0.10619464  1
  H+  H161  1  0.37723432  0.64304050  0.82393538  1
  H+  H162  1  0.78961980  0.14783644  0.65837933  1
  H+  H163  1  0.21881775  0.37447290  0.84995096  1
  H+  H164  1  0.72483175  0.87137647  1.04083735  1
  H+  H165  1  0.97961762  0.61652460  0.98863690  1
  H+  H166  1  0.84786143  0.22880967  0.51455081  1
  H+  H167  1  0.88030270  0.51898377  0.17086929  1
  H+  H168  1  0.36760868  0.51231613  0.84220059  1
  H+  H169  1  0.13812127  0.11745875  0.18217209  1
  H+  H170  1  0.39645725  0.11576362  1.00008868  1
  H+  H171  1  1.00095466  0.87317051  0.82819507  1
  H+  H172  1  0.01718345  0.38613608  0.34457596  1
  H+  H173  1  0.74662422  0.12986857  0.56886680  1
  H+  H174  1  0.02967895  0.16541523  0.80904254  1
  H+  H175  1  0.37217708  0.88618619  0.33947122  1
  H+  H176  1  0.60458430  0.63413665  0.66674450  1
  H+  H177  1  0.60923722  0.73168666  0.48651281  1
  H+  H178  1  0.10488061  0.22408266  0.48811409  1
  H+  H179  1  0.90131186  1.04356355  0.83149427  1
  H+  H180  1  0.27382814  0.63377226  0.01251987  1
  H+  H181  1  0.17059482  0.00457457  0.35207489  1
  H+  H182  1  0.08977774  0.18550737  0.07084308  1
  H+  H183  1  0.56528425  0.65363563  0.06536927  1
  H+  H184  1  -0.01421223  0.37666362  0.51131424  1
  H+  H185  1  0.77680835  0.64234651  0.34400933  1
  H+  H186  1  -0.01881149  0.80085071  -0.03010515  1
  H+  H187  1  0.36914253  0.62904242  0.49253340  1
  H+  H188  1  0.97829965  0.37318110  0.66165702  1
  H+  H189  1  0.28021936  0.38801452  0.16465685  1
  H+  H190  1  0.77492850  0.88162866  0.67121777  1
  H+  H191  1  0.63460703  0.82806630  0.83994174  1
  H+  H192  1  0.12812102  0.86757892  0.84372736  1
  H+  H193  1  0.25373640  0.85800521  0.67293137  1
  H+  H194  1  0.11775392  0.72903486  1.00253846  1
  H+  H195  1  0.38816104  0.27901223  0.50127854  1
  H+  H196  1  0.84761954  0.14003082  0.51413994  1
  H+  H197  1  0.66807291  0.57665689  0.26844980  1
  H+  H198  1  0.63386814  0.21698584  0.16114166  1
  H+  H199  1  0.46146479  0.60809954  0.66666705  1
  H+  H200  1  0.63545167  0.34807224  0.33431530  1
  H+  H201  1  0.36770734  0.97386865  0.34120527  1
  H+  H202  1  0.13431176  0.86821001  0.17715942  1
  H+  H203  1  0.65028822  1.01269417  0.17901576  1
  H+  H204  1  0.51559323  0.11264225  0.63512314  1
  H+  H205  1  0.11113191  0.23721472  0.71651066  1
  H+  H206  1  0.40214493  0.28312554  0.83635365  1
  H+  H207  1  0.12540027  0.35980327  0.66722873  1
  H+  H208  1  0.35260396  0.87838969  0.48904780  1
  H+  H209  1  0.37951748  0.01633850  0.83923430  1
  H+  H210  1  0.10635566  0.38237542  0.49702066  1
  H+  H211  1  0.88801971  0.61221619  -0.01289916  1
  H+  H212  1  0.51067925  0.88165102  0.01682784  1
  H+  H213  1  0.46519628  0.87158218  0.85010070  1
  H+  H214  1  0.35532757  0.39243306  0.49071686  1
  H+  H215  1  0.10809956  0.48268596  0.66908530  1
  H+  H216  1  0.89131707  0.28083848  0.65757584  1
  H+  H217  1  0.11584360  0.25039732  0.82243798  1
  H+  H218  1  0.16910634  0.58458692  0.56676994  1
  H+  H219  1  0.57685850  -0.01438045  0.83489792  1
  H+  H220  1  0.38840369  0.61067440  0.17703704  1
  H+  H221  1  0.47841778  0.35950703  0.18052145  1
  H+  H222  1  0.34742737  0.71519091  0.67101644  1
  H+  H223  1  0.36886404  0.10141524  0.18524427  1
  H+  H224  1  0.37272451  0.01215726  0.49184737  1
  H+  H225  1  0.58490925  0.67496775  0.42506581  1
  H+  H226  1  0.78535330  0.38348634  0.49940944  1
  H+  H227  1  0.88753661  0.02468459  0.65762434  1
  H+  H228  1  0.16700176  0.83770121  0.23417948  1
  H+  H229  1  0.87874627  0.15600090  0.34593112  1
  H+  H230  1  0.02611540  0.88129404  0.30943796  1
  H+  H231  1  0.88963502  0.38889507  0.50890857  1
  H+  H232  1  0.78355795  0.14013365  0.34057601  1
  H+  H233  1  0.10703801  0.11405462  0.83889712  1
  H+  H234  1  0.72151057  0.60209159  0.16881746  1
  H+  H235  1  0.65937664  0.58348268  0.59090264  1
  H+  H236  1  0.59487717  0.15964648  0.07051074  1
  H+  H237  1  0.63738782  0.10000640  1.00796231  1
  H+  H238  1  0.78730318  0.91368124  0.82894299  1
  H+  H239  1  0.50070102  0.61777956  1.00646243  1
  H+  H240  1  0.67769711  0.08075197  0.95106406  1
  H+  H241  1  0.72221498  0.37161666  0.84541731  1
  H+  H242  1  0.36439687  0.72567960  0.16548941  1
  H+  H243  1  0.77010203  0.64419204  0.66116121  1
  H+  H244  1  0.11424477  0.98325273  0.49368385  1
  H+  H245  1  0.21272840  0.35079634  0.33029230  1
  H+  H246  1  0.76434821  0.86612808  0.48742918  1
  H+  H247  1  0.12866209  0.17047381  1.01082513  1
  H+  H248  1  0.97998387  0.86218961  0.50403278  1
  H+  H249  1  0.36480594  0.85153394  0.65686078  1
  H+  H250  1  0.48298688  0.85719723  0.32489092  1
  H+  H251  1  0.49030281  0.76993849  0.79624750  1
  H+  H252  1  0.11570709  0.63886915  0.00585551  1
  H+  H253  1  0.74061270  0.10277138  0.17655805  1
  H+  H254  1  0.33268957  0.91977038  0.07150122  1
  H+  H255  1  0.86280774  0.73142132  0.66535721  1
  H+  H256  1  0.37772781  0.60623233  -0.00469499  1
  H+  H257  1  0.78595644  0.38832247  1.00622339  1
  H+  H258  1  0.05419975  0.91269121  0.01120665  1
  H+  H259  1  0.99311185  0.13923229  0.98717235  1
  H+  H260  1  0.86152522  0.47775510  0.82587812  1
  H+  H261  1  0.35495464  0.46583514  1.01069802  1
  H+  H262  1  0.57979169  0.69659834  0.81919119  1
  H+  H263  1  0.36892679  0.50154302  0.32752425  1
  H+  H264  1  0.09522690  0.72926910  0.16009883  1
  H+  H265  1  1.03587986  0.15095270  0.16707047  1
  H+  H266  1  0.03373061  0.38024298  0.15108614  1
  H+  H267  1  0.64898607  0.34971228  0.18205926  1
  H+  H268  1  0.11701357  0.81899630  0.67016398  1
  H+  H269  1  0.78513686  0.15573043  0.82739877  1
  H+  H270  1  0.39709349  0.11692968  0.33621735  1
  H+  H271  1  0.48020377  0.37630426  0.84349491  1
  H+  H272  1  0.04227052  0.65413210  0.49454322  1
  H+  H273  1  0.02321484  0.40372032  0.82284274  1
  H+  H274  1  0.10663165  0.63992181  0.31325566  1
  H+  H275  1  0.86407029  0.72334419  0.49845838  1
  H+  H276  1  0.12574911  0.52112697  0.32413277  1
  H+  H277  1  0.15677081  0.04589149  0.99987990  1
  H+  H278  1  0.35587207  0.71795005  0.32951245  1
  H+  H279  1  0.32466513  0.90643093  0.42827880  1
  H+  H280  1  0.11113930  0.98199411  0.16957038  1
  H+  H281  1  0.62816358  0.59256246  0.17181955  1
  H+  H282  1  0.46796572  0.86276172  0.17697876  1
  H+  H283  1  0.61957783  0.12102121  0.34098289  1
  H+  H284  1  0.15234379  0.35562310  0.90500114  1
  H+  H285  1  0.37748298  0.22934163  0.01488132  1
  H+  H286  1  -0.04076114  0.11653425  0.50366689  1
  H+  H287  1  0.73323449  0.91012051  0.02259260  1
  H+  H288  1  0.92395152  0.58648067  0.89327085  1
  H+  H289  1  0.26380011  0.37676404  0.68063055  1
  H+  H290  1  0.26649904  0.88228803  0.16092510  1
  H+  H291  1  0.90213107  0.36397840  0.17139646  1
  H+  H292  1  0.17376566  0.07893695  0.27822138  1
  H+  H293  1  0.39689242  0.06073340  0.58168597  1
  H+  H294  1  0.15814040  0.82344044  0.56577552  1
  H+  H295  1  0.34132459  0.66792206  0.10497493  1
  H+  H296  1  0.33545611  0.16956178  0.11190479  1
  H+  H297  1  0.93991338  0.09863810  0.24344924  1
  H+  H298  1  0.67512939  0.32041870  0.56004051  1
  H+  H299  1  0.16896067  0.33850591  0.23379420  1
  H+  H300  1  0.85818138  0.78104094  0.32003075  1
  H+  H301  1  0.41767934  0.33971423  0.56001264  1
  H+  H302  1  0.13305971  0.78149761  0.83742543  1
  H+  H303  1  0.72497873  0.61567215  0.49951460  1
  H+  H304  1  0.06628798  0.16197380  0.43086621  1
  H+  H305  1  0.83577280  0.17636906  0.72514808  1
  H+  H306  1  0.67853250  0.07785789  0.26960628  1
  H+  H307  1  0.37444466  0.51853937  0.67236080  1
  H+  H308  1  0.27195505  0.14356564  0.49206728  1
  H+  H309  1  0.38576961  0.77913525  0.84479013  1
  H+  H310  1  0.87424070  0.47736065  0.00359675  1
  H+  H311  1  0.05352374  0.05059582  0.89057757  1
  H+  H312  1  0.63165877  0.12772796  0.15842356  1
  H+  H313  1  0.13136119  0.93617680  0.41709547  1
  H+  H314  1  0.65864978  0.83297620  0.56478847  1
  H+  H315  1  0.84098114  0.41874449  0.40171760  1
  H+  H316  1  0.89199745  0.82274763  0.22368593  1
  H+  H317  1  0.54026934  0.45735756  0.05933413  1
  H+  H318  1  0.08129389  0.42740693  0.73039598  1
  H+  H319  1  0.33743818  0.41547302  0.10339084  1
  H+  H320  1  0.84265798  0.41216961  0.10133335  1
  H+  H321  1  0.63367522  0.83846610  0.38636696  1
  H+  H322  1  0.40257068  0.07043579  0.24145292  1
  H+  H323  1  0.16227919  0.56083862  0.22455948  1
  H+  H324  1  0.56475711  0.85582408  0.76461851  1
  H+  H325  1  0.92529435  0.35177527  0.57577297  1
  H+  H326  1  0.38092258  0.52498378  0.49055471  1
  H+  H327  1  0.40442308  0.56164370  0.26878020  1
  H+  H328  1  0.09682530  0.69963477  0.75669137  1
  H+  H329  1  0.40331940  0.57306820  0.93464243  1
  H+  H330  1  0.07618701  0.89660740  0.73225637  1
  H+  H331  1  0.92218092  0.83461085  0.59774478  1
  H+  H332  1  0.46367328  0.09859511  0.49618118  1
  H+  H333  1  0.82758310  0.90242594  0.43087196  1
  H+  H334  1  0.09244805  0.92884464  0.10765631  1
  H+  H335  1  0.07613486  0.41299566  0.43718368  1
  H+  H336  1  0.58865747  0.92345349  0.43501393  1
  H+  H337  1  0.59477778  0.16746159  0.75917988  1
  H+  H338  1  0.86603792  0.81357978  0.89268241  1
  H+  H339  1  0.57306011  0.65365287  0.72968422  1
  H+  H340  1  0.58014299  0.89296978  0.11477057  1
  H+  H341  1  0.83515333  0.66939981  0.43701158  1
  H+  H342  1  0.31943143  0.40572333  0.77402694  1
  H+  H343  1  0.89903325  0.57846687  0.26416398  1
  H+  H344  1  0.41885458  0.83457492  0.26840015  1
  H+  H345  1  0.36282439  0.17172734  0.71345595  1
  H+  H346  1  0.75132726  0.20107021  0.90250454  1
  H+  H347  1  0.59176186  0.40115182  0.11217994  1
  H+  H348  1  0.65144733  0.57819324  0.92406822  1
  H+  H349  1  0.40574532  0.82635768  0.56002872  1
  H+  H350  1  0.31459245  0.40408599  0.42914457  1
  H+  H351  1  0.34860219  0.62614467  0.33041534  1
  H+  H352  1  0.91788543  0.33445891  0.89566367  1
  H+  H353  1  0.91615481  0.58012500  0.56459045  1
  H+  H354  1  0.88489685  0.85084395  0.50225194  1
  H+  H355  1  0.31875772  0.90468281  0.72789469  1
  H+  H356  1  0.59335252  0.12512316  0.76048121  1
  H+  H357  1  0.48236631  0.11022543  0.99505270  1
  H+  H358  1  0.34841119  0.67661547  0.76339643  1
  H+  H359  1  0.06739883  0.67193687  0.10000542  1
  H+  H360  1  0.81921282  0.40865012  0.73293358  1
  H+  H361  1  0.57420597  0.42364469  0.42148436  1
  H+  H362  1  0.97621015  0.98982168  0.12842153  1
  H+  H363  1  0.90974986  0.08588789  0.56591164  1
  H+  H364  1  0.40985507  0.83554003  0.94426858  1
  H+  H365  1  0.16552778  0.08128224  0.56129867  1
  H+  H366  1  0.47483431  0.36416831  0.99427726  1
  H+  H367  1  0.82351106  0.66022023  0.05566083  1
  H+  H368  1  0.34349505  0.17908731  0.40083515  1
  H+  H369  1  0.40761254  0.07469652  0.90039800  1
  H+  H370  1  0.41653865  0.34287141  0.27368113  1
  H+  H371  1  0.41529984  0.32836635  0.93504776  1
  H+  H372  1  0.62862831  0.81157177  0.93566406  1
  H+  H373  1  0.26981683  0.62855545  0.49998641  1
  H+  H374  1  0.82233572  0.65228634  0.75121848  1
  H+  H375  1  0.89447869  0.95027409  0.05463471  1
  H+  H376  1  0.92268200  0.33837763  0.26855559  1
  H+  H377  1  0.25976117  0.88773569  0.82478043  1
  H+  H378  1  0.12171324  0.89950682  0.50489944  1
  H+  H379  1  0.58542518  0.13803115  0.43379960  1
  H+  H380  1  0.93237777  0.10620177  0.88969103  1
  H+  H381  1  0.27111949  0.30705912  0.37801305  1
  H+  H382  1  0.67277736  0.98999087  0.71938294  1
  H+  H383  1  0.60118758  0.84104426  0.28394017  1
  O2-  O384  1  0.09417896  0.17561225  0.14838741  1
  O2-  O385  1  0.07538755  0.16303551  0.47516633  1
  O2-  O386  1  0.09185377  0.19644114  0.79823380  1
  O2-  O387  1  0.09244437  0.40701537  0.13259689  1
  O2-  O388  1  0.07710487  0.41455967  0.48325524  1
  O2-  O389  1  0.08278005  0.43324213  0.80616671  1
  O2-  O390  1  0.05575213  0.67106792  0.14392153  1
  O2-  O391  1  0.10399590  0.69198215  0.48755670  1
  O2-  O392  1  0.09315572  0.69502576  0.80230157  1
  O2-  O393  1  0.07971477  0.92231921  0.15188661  1
  O2-  O394  1  0.08992944  0.92227966  0.47921686  1
  O2-  O395  1  0.06160333  0.90680031  0.81428941  1
  O2-  O396  1  0.32722052  0.16726577  0.15685391  1
  O2-  O397  1  0.33375634  0.17519422  0.47857924  1
  O2-  O398  1  0.37830255  0.18289129  0.79343576  1
  O2-  O399  1  0.34110974  0.41883558  0.14966079  1
  O2-  O400  1  0.32232849  0.41905886  0.47529651  1
  O2-  O401  1  0.31910793  0.40871301  0.81956789  1
  O2-  O402  1  0.34264819  0.66587693  0.15031594  1
  O2-  O403  1  0.33200013  0.66123729  0.48338025  1
  O2-  O404  1  0.37191232  0.69184880  0.80633512  1
  O2-  O405  1  0.32789154  0.91290944  0.14716781  1
  O2-  O406  1  0.32362711  0.90953131  0.47394834  1
  O2-  O407  1  0.32019791  0.91474857  0.80804745  1
  O2-  O408  1  0.60567255  0.16031434  0.14084295  1
  O2-  O409  1  0.57832433  0.14272828  0.47937459  1
  O2-  O410  1  0.58600117  0.17236284  0.87539767  1
  O2-  O411  1  0.59062193  0.40006685  0.15690900  1
  O2-  O412  1  0.57323460  0.42857283  0.47052931  1
  O2-  O413  1  0.58199923  0.42625993  0.82008259  1
  O2-  O414  1  0.57040230  0.64665122  0.14418559  1
  O2-  O415  1  0.58349610  0.67182208  0.47019761  1
  O2-  O416  1  0.55927868  0.63765959  0.80678116  1
  O2-  O417  1  0.57744885  0.90077712  0.15910746  1
  O2-  O418  1  0.57183140  0.92532879  0.47735886  1
  O2-  O419  1  0.55096638  0.81677100  0.79958701  1
  O2-  O420  1  0.84395764  0.16588477  0.15145906  1
  O2-  O421  1  0.80945492  0.16664701  0.51465147  1
  O2-  O422  1  0.83950999  0.17855079  0.80367890  1
  O2-  O423  1  0.84504628  0.41260951  0.14657177  1
  O2-  O424  1  0.84872455  0.42070466  0.48648957  1
  O2-  O425  1  0.82417260  0.41606805  0.81352717  1
  O2-  O426  1  0.81825627  0.65475461  0.13650505  1
  O2-  O427  1  0.82993500  0.66307166  0.48239440  1
  O2-  O428  1  0.81358171  0.63492593  0.79599312  1
  O2-  O429  1  0.91465126  0.96186003  0.13640158  1
  O2-  O430  1  0.81444161  0.86757165  0.46815850  1
  O2-  O431  1  0.84376263  0.93632595  0.80925211  1
  O2-  O432  1  0.16408589  0.08301339  0.19722371  1
  O2-  O433  1  0.16735443  0.08716421  0.51560025  1
  O2-  O434  1  0.10415035  0.06748859  0.86549180  1
  O2-  O435  1  0.17629890  0.33697491  0.18857506  1
  O2-  O436  1  0.15998877  0.33155714  0.52176363  1
  O2-  O437  1  0.15675915  0.34989099  0.86058562  1
  O2-  O438  1  0.17043973  0.55649697  0.17999784  1
  O2-  O439  1  0.17714012  0.58319530  0.52163206  1
  O2-  O440  1  0.18850252  0.58712569  0.86544253  1
  O2-  O441  1  0.16351393  0.83565715  0.18861635  1
  O2-  O442  1  0.18268737  0.87710563  0.54254272  1
  O2-  O443  1  0.16263078  0.84132968  0.85734780  1
  O2-  O444  1  0.39247090  0.06416888  0.19697473  1
  O2-  O445  1  0.40216458  0.07351973  0.50689396  1
  O2-  O446  1  0.41325627  0.07656768  0.85517496  1
  O2-  O447  1  0.41842440  0.33479824  0.19507188  1
  O2-  O448  1  0.41917104  0.34104979  0.51456475  1
  O2-  O449  1  0.41865877  0.33843973  0.85662612  1
  O2-  O450  1  0.41682751  0.57777400  0.19165145  1
  O2-  O451  1  0.41196684  0.58676512  0.50367905  1
  O2-  O452  1  0.40276526  0.57349913  0.85627125  1
  O2-  O453  1  0.40767826  0.83118872  0.19172933  1
  O2-  O454  1  0.40629130  0.82337126  0.51481750  1
  O2-  O455  1  0.40549822  0.83699095  0.86351636  1
  O2-  O456  1  0.68036547  0.07340230  0.19242847  1
  O2-  O457  1  0.58940149  0.07942002  0.50923006  1
  O2-  O458  1  0.71208822  0.14639137  0.88324333  1
  O2-  O459  1  0.68362057  0.32335967  0.19502906  1
  O2-  O460  1  0.68895124  0.32139871  0.51605049  1
  O2-  O461  1  0.66465927  0.34641718  0.86544520  1
  O2-  O462  1  0.66261477  0.56767704  0.18788251  1
  O2-  O463  1  0.66205810  0.58523335  0.51147082  1
  O2-  O464  1  0.64456725  0.58041441  0.85632532  1
  O2-  O465  1  0.60546885  0.79906526  0.25346421  1
  O2-  O466  1  0.65529483  0.83365437  0.51965652  1
  O2-  O467  1  0.68074198  0.83621246  0.86977033  1
  O2-  O468  1  0.93546077  0.09817758  0.19845502  1
  O2-  O469  1  0.90122773  0.09002132  0.52121017  1
  O2-  O470  1  0.92917463  0.10497071  0.84411011  1
  O2-  O471  1  0.93381118  0.33548560  0.18735735  1
  O2-  O472  1  0.92487924  0.35327656  0.52866900  1
  O2-  O473  1  0.91704920  0.34115241  0.85063263  1
  O2-  O474  1  0.89963276  0.57844254  0.18538699  1
  O2-  O475  1  0.91772074  0.57824755  0.51850651  1
  O2-  O476  1  0.92339831  0.58313834  0.84776059  1
  O2-  O477  1  0.90576616  0.82118753  0.17907795  1
  O2-  O478  1  0.92124065  0.82903522  0.52176989  1
  O2-  O479  1  0.88994594  0.82374029  0.84882477  1
  O2-  O480  1  0.18360392  0.08032234  0.32283663  1
  O2-  O481  1  0.17059418  0.06432676  0.63610148  1
  O2-  O482  1  0.18517902  0.10705536  0.98599198  1
  O2-  O483  1  0.15473461  0.33378839  0.31028067  1
  O2-  O484  1  0.15952316  0.33136304  0.65497462  1
  O2-  O485  1  0.13891165  0.36356151  0.98973135  1
  O2-  O486  1  0.15382319  0.57597514  0.30113849  1
  O2-  O487  1  0.15816248  0.59055718  0.64323178  1
  O2-  O488  1  0.17194630  0.58080745  0.98560873  1
  O2-  O489  1  0.17485799  0.84062838  0.31181256  1
  O2-  O490  1  0.15106469  0.79189586  0.65490791  1
  O2-  O491  1  0.17222509  0.84286615  0.98083419  1
  O2-  O492  1  0.42002252  0.07978718  0.32155898  1
  O2-  O493  1  0.40229932  0.06347129  0.62733041  1
  O2-  O494  1  0.42123513  0.08220235  0.98125953  1
  O2-  O495  1  0.41930729  0.34421499  0.31902386  1
  O2-  O496  1  0.41244238  0.33232011  0.63926404  1
  O2-  O497  1  0.41476996  0.32662144  0.98056595  1
  O2-  O498  1  0.40419659  0.56129131  0.31442134  1
  O2-  O499  1  0.39912638  0.57853583  0.65819596  1
  O2-  O500  1  0.40578352  0.57338374  0.98021157  1
  O2-  O501  1  0.42174445  0.83271557  0.31394253  1
  O2-  O502  1  0.39514198  0.82085992  0.63923155  1
  O2-  O503  1  0.41276137  0.83438658  0.98945102  1
  O2-  O504  1  0.67534646  0.07520992  0.31508134  1
  O2-  O505  1  0.70932936  0.10146305  0.60708257  1
  O2-  O506  1  0.66715799  0.06699911  0.99520917  1
  O2-  O507  1  0.66750630  0.31956555  0.32135021  1
  O2-  O508  1  0.65307392  0.31443501  0.63882155  1
  O2-  O509  1  0.67605431  0.33459458  0.98600170  1
  O2-  O510  1  0.66604493  0.57785056  0.31380849  1
  O2-  O511  1  0.66095854  0.58544826  0.63636014  1
  O2-  O512  1  0.65680831  0.57806608  0.97164965  1
  O2-  O513  1  0.65898861  0.89995225  0.37810443  1
  O2-  O514  1  0.66524468  0.82949730  0.64575612  1
  O2-  O515  1  0.58627398  0.79025686  0.97029687  1
  O2-  O516  1  0.95697110  0.11651988  0.32547415  1
  O2-  O517  1  0.92018963  0.08386842  0.64186348  1
  O2-  O518  1  0.93570767  0.10542771  0.96728179  1
  O2-  O519  1  0.91703115  0.33955026  0.31357161  1
  O2-  O520  1  0.91818381  0.34328674  0.64477738  1
  O2-  O521  1  0.91634493  0.32316441  0.97576833  1
  O2-  O522  1  0.90425163  0.58386519  0.30950239  1
  O2-  O523  1  0.90393903  0.57420424  0.63815556  1
  O2-  O524  1  0.91939863  0.58279789  0.97267609  1
  O2-  O525  1  0.85739989  0.82229825  0.29077164  1
  O2-  O526  1  0.92073117  0.83196974  0.64352527  1
  O2-  O527  1  0.81981639  0.79908227  0.95503901  1
  O2-  O528  1  0.09212861  0.19352023  0.02548924  1
  O2-  O529  1  0.03636412  0.15760087  0.34590097  1
  O2-  O530  1  0.10604938  0.24041521  0.67147720  1
  O2-  O531  1  0.08566984  0.39765474  0.01478955  1
  O2-  O532  1  0.07687324  0.41647897  0.36189686  1
  O2-  O533  1  0.08079779  0.42238556  0.68469644  1
  O2-  O534  1  0.08322224  0.66847239  0.01645215  1
  O2-  O535  1  0.08315211  0.67882516  0.32062121  1
  O2-  O536  1  0.11130744  0.70657029  0.68014688  1
  O2-  O537  1  0.11286723  0.94109686  0.02671566  1
  O2-  O538  1  0.16838733  0.95289969  0.37781718  1
  O2-  O539  1  0.08196081  0.89033221  0.68798263  1
  O2-  O540  1  0.34806260  0.16970266  0.03206301  1
  O2-  O541  1  0.34863079  0.17786697  0.35554104  1
  O2-  O542  1  0.34938163  0.16894071  0.66940289  1
  O2-  O543  1  0.33101452  0.40903075  0.03063823  1
  O2-  O544  1  0.29915023  0.36641732  0.36364493  1
  O2-  O545  1  0.32389537  0.40640792  0.69633181  1
  O2-  O546  1  0.33575899  0.66414637  0.02575602  1
  O2-  O547  1  0.31680465  0.65647741  0.33842167  1
  O2-  O548  1  0.31932558  0.65855205  0.69176429  1
  O2-  O549  1  0.33514825  0.91904593  0.02558103  1
  O2-  O550  1  0.33666201  0.91172562  0.35318779  1
  O2-  O551  1  0.31619456  0.89793521  0.68272118  1
  O2-  O552  1  0.58947684  0.15590594  0.02391920  1
  O2-  O553  1  0.58848814  0.14942979  0.35903205  1
  O2-  O554  1  0.57826529  0.14544534  0.64324300  1
  O2-  O555  1  0.57020634  0.43695188  0.03316534  1
  O2-  O556  1  0.57734517  0.41538912  0.35843241  1
  O2-  O557  1  0.62598680  0.42988710  0.69256361  1
  O2-  O558  1  0.56327882  0.65557767  0.01987843  1
  O2-  O559  1  0.57171468  0.65876952  0.34265217  1
  O2-  O560  1  0.57679802  0.66503487  0.68483600  1
  O2-  O561  1  0.57200466  0.90089993  0.02941655  1
  O2-  O562  1  0.59927607  0.90302350  0.33251385  1
  O2-  O563  1  0.61591588  0.94517467  0.70634452  1
  O2-  O564  1  0.83926656  0.16140342  0.02610922  1
  O2-  O565  1  0.84290189  0.18202504  0.35369716  1
  O2-  O566  1  0.84568804  0.18067805  0.68041247  1
  O2-  O567  1  0.84708080  0.41722694  0.01957990  1
  O2-  O568  1  0.83276780  0.41653328  0.35716890  1
  O2-  O569  1  0.81565125  0.40557231  0.68761410  1
  O2-  O570  1  0.82541957  0.66084727  0.01027347  1
  O2-  O571  1  0.83687695  0.67670409  0.35842248  1
  O2-  O572  1  0.82841698  0.66954448  0.67936379  1
  O2-  O573  1  0.90541596  0.95023679  0.01061193  1
  O2-  O574  1  0.83119808  0.94351231  0.35410257  1
  O2-  O575  1  0.83583972  0.91290698  0.68455506  1
