# generated using pymatgen
data_H2O
_symmetry_space_group_name_H-M   'P 1'
_cell_length_a   17.99214616
_cell_length_b   17.98497891
_cell_length_c   21.99943846
_cell_angle_alpha   89.98112732
_cell_angle_beta   90.02249893
_cell_angle_gamma   120.00190246
_symmetry_Int_Tables_number   1
_chemical_formula_structural   H2O
_chemical_formula_sum   'H384 O192'
_cell_volume   6164.91036006
_cell_formula_units_Z   192
loop_
 _symmetry_equiv_pos_site_id
 _symmetry_equiv_pos_as_xyz
  1  'x, y, z'
loop_
 _atom_type_symbol
 _atom_type_oxidation_number
  H+  1.0
  O2-  -2.0
loop_
 _atom_site_type_symbol
 _atom_site_label
 _atom_site_symmetry_multiplicity
 _atom_site_fract_x
 _atom_site_fract_y
 _atom_site_fract_z
 _atom_site_occupancy
  H+  H0  1  0.97395963  0.36581971  0.97760252  1
  H+  H1  1  0.57215945  0.63308307  0.42476458  1
  H+  H2  1  0.27121385  0.12601147  0.82917005  1
  H+  H3  1  0.39481661  0.86504126  0.17667367  1
  H+  H4  1  0.36730383  0.76130356  0.83598901  1
  H+  H5  1  0.88020476  0.59422707  0.83779708  1
  H+  H6  1  0.38024932  0.38492902  0.16262661  1
  H+  H7  1  0.54045221  0.17475364  0.34330366  1
  H+  H8  1  0.37817646  0.84573181  0.50872762  1
  H+  H9  1  0.89426794  0.53442660  0.17504567  1
  H+  H10  1  0.46402164  0.60223067  0.20446377  1
  H+  H11  1  0.37805471  0.56597832  0.50368285  1
  H+  H12  1  0.41283285  0.83203572  0.27522960  1
  H+  H13  1  0.10560041  0.19716710  0.33531254  1
  H+  H14  1  0.38751638  0.12405076  0.50972544  1
  H+  H15  1  0.88893504  0.37142435  0.16039800  1
  H+  H16  1  0.54056626  0.64382894  0.13285910  1
  H+  H17  1  0.64856447  0.28097367  0.17768099  1
  H+  H18  1  0.89944971  0.61311077  0.50744638  1
  H+  H19  1  0.85620809  0.39589700  0.77331304  1
  H+  H20  1  0.89562329  0.03317503  0.16326267  1
  H+  H21  1  0.36187486  0.46369699  0.17057869  1
  H+  H22  1  0.16690572  0.07913278  0.57219687  1
  H+  H23  1  0.11055042  0.23508409  -0.00379766  1
  H+  H24  1  0.62158249  0.85531347  0.83096516  1
  H+  H25  1  0.10877801  -0.02035189  0.99837225  1
  H+  H26  1  0.27936361  0.64567142  0.34987356  1
  H+  H27  1  0.35641024  0.22475823  0.67594085  1
  H+  H28  1  0.06376780  0.88295381  0.50260191  1
  H+  H29  1  0.11585034  0.88007294  0.65870390  1
  H+  H30  1  0.13813679  0.53218971  0.17314327  1
  H+  H31  1  0.86398532  0.73479407  0.34492631  1
  H+  H32  1  0.04083383  0.39971968  0.50169302  1
  H+  H33  1  0.62312471  1.02368339  0.33345131  1
  H+  H34  1  0.36262697  0.23643684  0.49600488  1
  H+  H35  1  0.14133753  0.73342419  0.48427726  1
  H+  H36  1  0.13579360  0.01163373  0.65843833  1
  H+  H37  1  0.71675366  0.85380749  0.31953636  1
  H+  H38  1  0.16742205  0.62510469  0.92848678  1
  H+  H39  1  0.22063743  0.60330913  0.66822070  1
  H+  H40  1  0.86016017  0.97294556  0.85027295  1
  H+  H41  1  0.62644362  0.76716395  0.83100868  1
  H+  H42  1  0.62018394  0.47420347  1.00719508  1
  H+  H43  1  0.27606293  0.88873886  0.00653889  1
  H+  H44  1  0.22968547  0.81070555  0.50499564  1
  H+  H45  1  0.22766786  0.11628972  0.51268845  1
  H+  H46  1  0.37087479  0.13770767  0.34230460  1
  H+  H47  1  0.16768465  0.69104644  0.19657920  1
  H+  H48  1  0.24010648  0.05538125  0.17691659  1
  H+  H49  1  0.47164608  0.11680943  0.66504694  1
  H+  H50  1  0.72074605  0.60747043  0.16823969  1
  H+  H51  1  0.88586872  0.77018610  -0.00685856  1
  H+  H52  1  0.63357555  0.02039726  0.84317674  1
  H+  H53  1  0.62311103  0.10574645  0.51052253  1
  H+  H54  1  0.84500298  0.19711786  0.33288947  1
  H+  H55  1  0.12346935  0.25543968  0.51465440  1
  H+  H56  1  0.63814866  0.62234839  0.33154736  1
  H+  H57  1  0.89457498  0.72259861  0.49442021  1
  H+  H58  1  0.89609481  0.12711475  0.83750106  1
  H+  H59  1  0.52442019  0.88143839  0.49876034  1
  H+  H60  1  0.11903903  0.62232507  0.71053357  1
  H+  H61  1  0.04726689  0.60292163  0.44350815  1
  H+  H62  1  0.89032050  0.51061792  0.84177763  1
  H+  H63  1  0.15278811  0.01648484  0.83776786  1
  H+  H64  1  0.46931622  0.60924503  0.66173285  1
  H+  H65  1  0.39520600  0.11148349  0.17120279  1
  H+  H66  1  0.88937619  0.60978147  0.66407951  1
  H+  H67  1  0.87044235  0.97712489  0.63398848  1
  H+  H68  1  0.62208120  0.14384804  0.16380540  1
  H+  H69  1  0.05646890  0.83344006  0.13295694  1
  H+  H70  1  0.85801931  0.13675394  0.67276146  1
  H+  H71  1  0.77559189  0.64298104  0.33985784  1
  H+  H72  1  0.35886681  0.13717069  0.67730437  1
  H+  H73  1  0.13728684  0.11667940  0.98868149  1
  H+  H74  1  0.15922038  0.53175455  0.33855510  1
  H+  H75  1  0.12894545  0.38782611  0.19999174  1
  H+  H76  1  0.88268944  0.10320211  0.98850494  1
  H+  H77  1  0.63936530  0.02737692  0.17501817  1
  H+  H78  1  0.74066022  0.35060001  0.84628196  1
  H+  H79  1  0.77681075  -0.10559350  0.14921010  1
  H+  H80  1  0.75358514  0.11367820  0.33547457  1
  H+  H81  1  0.35028130  0.38140124  0.33747350  1
  H+  H82  1  0.10934650  0.12404918  0.49778349  1
  H+  H83  1  0.60426756  0.62098479  0.67713752  1
  H+  H84  1  0.14559216  0.87174090  0.98886017  1
  H+  H85  1  0.47650246  0.61515279  0.83894591  1
  H+  H86  1  0.05877879  0.06528129  0.15981128  1
  H+  H87  1  0.12592209  0.23714579  0.14811132  1
  H+  H88  1  0.65812799  0.36323595  0.84210449  1
  H+  H89  1  0.88740310  0.52253237  -0.00793350  1
  H+  H90  1  0.10812272  0.89928886  0.34920528  1
  H+  H91  1  0.86165920  0.71715203  0.67284654  1
  H+  H92  1  0.63211861  0.10535956  0.99646097  1
  H+  H93  1  0.80959820  0.16875562  0.42251625  1
  H+  H94  1  0.47904819  0.44645713  0.94201844  1
  H+  H95  1  0.11639274  0.38823466  0.36289999  1
  H+  H96  1  0.08181325  0.40650631  0.73640039  1
  H+  H97  1  0.90016782  0.37749266  0.51145118  1
  H+  H98  1  0.64897670  0.26155174  0.66472459  1
  H+  H99  1  0.41283016  0.58781678  0.93399353  1
  H+  H100  1  0.61164640  0.48892072  0.34241012  1
  H+  H101  1  0.23781770  0.34933115  0.83958173  1
  H+  H102  1  0.61262443  0.13181772  0.83272894  1
  H+  H103  1  0.53229598  0.89572152  0.17054156  1
  H+  H104  1  0.79624444  0.37901058  0.68274969  1
  H+  H105  1  0.97777369  0.86130767  0.98969455  1
  H+  H106  1  0.76330472  0.84045368  0.49953485  1
  H+  H107  1  0.88403319  0.11526547  0.16811328  1
  H+  H108  1  1.01536467  0.63331321  0.34424421  1
  H+  H109  1  0.32838386  0.91807080  0.76667178  1
  H+  H110  1  0.61260427  0.71201134  0.67130028  1
  H+  H111  1  0.09757477  0.54222235  0.84285546  1
  H+  H112  1  0.12280903  0.53547578  0.52444962  1
  H+  H113  1  0.84941840  0.88091366  0.35627107  1
  H+  H114  1  0.72624882  0.60193182  0.83228674  1
  H+  H115  1  0.86276859  0.89082911  0.15540776  1
  H+  H116  1  0.63134871  0.52044647  0.17132390  1
  H+  H117  1  0.35581144  0.20791958  0.16465353  1
  H+  H118  1  0.46747518  0.05895634  0.31563807  1
  H+  H119  1  0.42033862  0.32981517  0.23600785  1
  H+  H120  1  0.87735365  0.09553689  0.32502111  1
  H+  H121  1  0.28659639  0.62376056  0.50349661  1
  H+  H122  1  0.91656297  0.08106931  0.92745804  1
  H+  H123  1  0.92203302  0.34473143  0.36041159  1
  H+  H124  1  0.26045346  0.61145401  0.81646707  1
  H+  H125  1  0.73466173  0.83774703  0.63571321  1
  H+  H126  1  0.47486068  0.37199587  0.33145952  1
  H+  H127  1  0.88726456  0.38723377  0.67781918  1
  H+  H128  1  0.27216681  0.13083310  0.01172913  1
  H+  H129  1  0.97847917  0.11269581  0.50702487  1
  H+  H130  1  0.62329854  0.63643306  0.14864342  1
  H+  H131  1  0.71438051  0.11629791  0.50568322  1
  H+  H132  1  0.10217343  0.93210433  0.15655694  1
  H+  H133  1  0.66626378  0.57301642  0.89207816  1
  H+  H134  1  0.62731124  0.83092964  0.49651242  1
  H+  H135  1  0.77444323  0.14704153  0.82635796  1
  H+  H136  1  0.04270720  0.63915342  0.72220575  1
  H+  H137  1  0.14239550  0.66644182  0.16928761  1
  H+  H138  1  0.60923476  0.22457701  0.49530713  1
  H+  H139  1  0.11543076  0.46855106  0.67952759  1
  H+  H140  1  0.87270296  0.84349302  0.84514297  1
  H+  H141  1  0.23447876  0.92618343  0.48396937  1
  H+  H142  1  0.38049847  0.52271927  0.65541834  1
  H+  H143  1  0.39157615  0.27818379  0.33191761  1
  H+  H144  1  0.39021870  0.61706213  0.34533508  1
  H+  H145  1  0.59747078  1.01898152  0.68473953  1
  H+  H146  1  0.37929615  0.35982933  0.65823440  1
  H+  H147  1  0.35751229  0.72739871  0.01045393  1
  H+  H148  1  0.85072095  0.91967894  0.57479312  1
  H+  H149  1  0.21996433  0.10383168  0.66348518  1
  H+  H150  1  0.62471869  0.47384257  0.82714262  1
  H+  H151  1  0.60485971  0.37747885  0.49237791  1
  H+  H152  1  0.18803672  0.31805516  0.90325403  1
  H+  H153  1  0.01672363  0.64035318  0.00549869  1
  H+  H154  1  0.86877975  0.23085196  0.67220540  1
  H+  H155  1  0.88948736  0.78166531  0.21831132  1
  H+  H156  1  0.89729221  0.85768736  0.64212490  1
  H+  H157  1  0.89661092  0.28809799  0.50048758  1
  H+  H158  1  0.37318503  0.41436801  0.49559260  1
  H+  H159  1  0.22801146  0.37212483  0.99600845  1
  H+  H160  1  0.88620050  0.54128489  0.33697630  1
  H+  H161  1  0.14172774  0.37541626  -0.01773760  1
  H+  H162  1  0.15060201  0.81182783  0.17767201  1
  H+  H163  1  0.01621057  0.43146809  0.13489174  1
  H+  H164  1  0.62735221  0.90555662  0.61343016  1
  H+  H165  1  0.12620413  0.66293083  0.81234198  1
  H+  H166  1  0.35378311  0.25145947  0.84884052  1
  H+  H167  1  0.78182522  0.39382888  0.16262566  1
  H+  H168  1  0.29625463  0.28955114  0.87426978  1
  H+  H169  1  0.77905315  0.23084653  0.44512767  1
  H+  H170  1  0.87776068  0.88131198  -0.00048177  1
  H+  H171  1  0.32926127  0.15231916  0.10272338  1
  H+  H172  1  0.38051335  0.86042242  0.99107285  1
  H+  H173  1  0.82544017  0.40948367  0.55502442  1
  H+  H174  1  0.38476043  0.61157877  0.83754582  1
  H+  H175  1  0.38252699  0.98085420  0.15858556  1
  H+  H176  1  0.61278998  -0.03124458  0.50175613  1
  H+  H177  1  0.22715886  0.34328867  0.30986048  1
  H+  H178  1  0.66580148  0.08125103  0.90112504  1
  H+  H179  1  0.84509422  0.40829488  0.37808235  1
  H+  H180  1  0.36285432  0.63197879  0.16466883  1
  H+  H181  1  0.98046217  0.85094235  0.66202304  1
  H+  H182  1  0.60798769  0.86399614  -0.01837262  1
  H+  H183  1  0.73032447  0.39334819  0.33897313  1
  H+  H184  1  0.01556438  0.11137792  0.33815973  1
  H+  H185  1  0.35010806  0.46953494  0.33790499  1
  H+  H186  1  0.15558632  0.40098272  0.17147715  1
  H+  H187  1  0.11241762  0.49050494  -0.02010770  1
  H+  H188  1  0.46657561  0.35637513  0.65968205  1
  H+  H189  1  0.62142801  0.76835204  0.98039946  1
  H+  H190  1  0.85454805  0.71727696  0.14129624  1
  H+  H191  1  0.85420209  0.70852542  0.82578945  1
  H+  H192  1  0.37936101  0.86001600  0.33447345  1
  H+  H193  1  0.13629052  0.98100775  0.50220523  1
  H+  H194  1  0.10490570  0.07951321  0.15284330  1
  H+  H195  1  0.50776773  0.88001558  0.83119791  1
  H+  H196  1  -0.01995311  0.87760044  0.34858387  1
  H+  H197  1  0.77013665  0.88680086  0.84942802  1
  H+  H198  1  0.13227476  0.34285511  0.67077880  1
  H+  H199  1  0.14403310  0.57718626  0.61928940  1
  H+  H200  1  0.35793524  0.88600576  0.67300844  1
  H+  H201  1  0.01316955  0.16395677  0.14737796  1
  H+  H202  1  0.53102774  0.39044679  0.00528717  1
  H+  H203  1  0.62567018  0.92347136  0.64371943  1
  H+  H204  1  0.46965929  0.36660383  0.50613648  1
  H+  H205  1  0.26287410  0.87775552  0.34736984  1
  H+  H206  1  0.60825272  0.14415375  0.68277281  1
  H+  H207  1  0.98980099  0.36075222  0.66144929  1
  H+  H208  1  0.46662515  0.87232327  0.66574251  1
  H+  H209  1  0.87580378  0.97846822  -0.00321410  1
  H+  H210  1  0.72781160  0.36320190  0.50682087  1
  H+  H211  1  0.64051909  0.35962777  -0.00229559  1
  H+  H212  1  0.72593308  0.60809588  0.98529964  1
  H+  H213  1  0.36145639  0.62964611  0.67182042  1
  H+  H214  1  0.36856263  0.73343742  0.35069230  1
  H+  H215  1  0.47466046  0.10953802  0.84429530  1
  H+  H216  1  0.37050509  0.40551796  0.00385960  1
  H+  H217  1  0.61081593  0.63197952  0.82396708  1
  H+  H218  1  0.12217461  0.20721733  0.82991199  1
  H+  H219  1  0.24709775  0.60493670  0.17957137  1
  H+  H220  1  0.32880384  0.66033417  0.10412253  1
  H+  H221  1  0.60694038  0.37803645  0.67259575  1
  H+  H222  1  0.39084169  0.02350542  0.99656489  1
  H+  H223  1  0.47705251  0.61236967  0.33960862  1
  H+  H224  1  0.15603524  0.63823413  0.53124615  1
  H+  H225  1  0.39677168  0.57349384  0.25447194  1
  H+  H226  1  0.36264934  0.39209246  0.82102994  1
  H+  H227  1  0.37533173  0.03028528  0.50991628  1
  H+  H228  1  0.34929720  0.96814835  0.34337755  1
  H+  H229  1  0.36099515  0.97761547  0.67276623  1
  H+  H230  1  0.62974410  0.59716867  0.51240159  1
  H+  H231  1  0.72015826  0.10318388  -0.00718458  1
  H+  H232  1  0.61670052  0.22268587  0.83560773  1
  H+  H233  1  0.01393389  0.68909918  0.15585669  1
  H+  H234  1  0.51010223  0.87640612  -0.00944334  1
  H+  H235  1  0.89989101  0.52699731  0.66719789  1
  H+  H236  1  0.22408410  0.62780203  0.98617211  1
  H+  H237  1  0.83283486  -0.09872200  0.45366570  1
  H+  H238  1  0.65194706  0.29777043  0.33415310  1
  H+  H239  1  0.25073665  0.32213681  0.16177583  1
  H+  H240  1  0.96581242  0.12330055  0.66386871  1
  H+  H241  1  0.63445628  0.51682748  0.66555271  1
  H+  H242  1  0.73456371  0.13306645  0.66264242  1
  H+  H243  1  0.41194800  0.35016300  0.92798406  1
  H+  H244  1  0.88512473  0.50676784  0.51874651  1
  H+  H245  1  0.14268814  0.10440816  0.31594109  1
  H+  H246  1  0.61954915  0.38862833  0.16266133  1
  H+  H247  1  0.38378888  0.53077690  0.99529269  1
  H+  H248  1  0.01531891  0.41048908  0.82327367  1
  H+  H249  1  0.58492253  0.41256767  0.10292443  1
  H+  H250  1  0.52254812  0.63630136  -0.00347423  1
  H+  H251  1  0.13401012  0.76758474  0.33653330  1
  H+  H252  1  0.52479161  0.13417242  0.01050041  1
  H+  H253  1  0.85994016  0.22536649  0.14791300  1
  H+  H254  1  0.13386735  0.34823698  0.52455894  1
  H+  H255  1  0.85984045  0.63312317  0.15715313  1
  H+  H256  1  0.85884187  0.21813934  0.99802376  1
  H+  H257  1  0.23247958  0.87139274  0.64525078  1
  H+  H258  1  0.98060269  0.11708343  0.83668992  1
  H+  H259  1  0.38535544  0.10907907  0.84294300  1
  H+  H260  1  0.90361043  0.33709839  0.92592884  1
  H+  H261  1  0.63664342  0.60820616  0.98285067  1
  H+  H262  1  0.90513912  0.84349084  0.50914464  1
  H+  H263  1  0.50887541  0.59375734  0.48337777  1
  H+  H264  1  0.66061653  0.79257622  0.58831400  1
  H+  H265  1  0.65041203  0.78527383  0.15912399  1
  H+  H266  1  0.88955075  0.11001729  0.49940093  1
  H+  H267  1  0.84699979  -0.03421461  0.34939362  1
  H+  H268  1  0.86196604  0.63149429  0.99485916  1
  H+  H269  1  0.35869163  0.71862718  0.67486958  1
  H+  H270  1  0.39973110  0.82182750  0.93053590  1
  H+  H271  1  0.54222140  0.37957704  0.83121213  1
  H+  H272  1  -0.03438370  0.85478874  0.17689517  1
  H+  H273  1  0.36110317  0.13197035  0.01240053  1
  H+  H274  1  0.62977514  0.51047328  0.51712215  1
  H+  H275  1  0.11192025  0.69724724  0.87364799  1
  H+  H276  1  0.61557733  0.22172989  0.00990832  1
  H+  H277  1  0.36851801  0.48401472  0.82252766  1
  H+  H278  1  0.39108450  0.77467689  0.17953939  1
  H+  H279  1  0.63824805  0.12151237  0.32998722  1
  H+  H280  1  0.86739930  0.28793294  0.82646563  1
  H+  H281  1  0.77575713  0.38561774  0.01035885  1
  H+  H282  1  0.63272530  0.76426287  0.30682233  1
  H+  H283  1  0.29408908  0.89337050  0.16440564  1
  H+  H284  1  0.61074390  0.40009057  0.33977103  1
  H+  H285  1  0.77093196  0.62857813  0.67268121  1
  H+  H286  1  0.35742737  0.63889875  1.00888401  1
  H+  H287  1  0.48018342  0.35442834  0.17660128  1
  H+  H288  1  0.33973774  0.66001855  0.44242604  1
  H+  H289  1  0.92523181  0.86168845  0.28799172  1
  H+  H290  1  0.51827064  0.89648926  0.34686261  1
  H+  H291  1  0.57800563  0.41545522  0.43536100  1
  H+  H292  1  0.33526934  0.41877637  0.72485377  1
  H+  H293  1  0.08417123  0.44233688  0.04157432  1
  H+  H294  1  0.02147983  0.14251194  -0.00401652  1
  H+  H295  1  0.58858036  0.18096345  0.40517955  1
  H+  H296  1  0.93321181  0.33770996  0.59973404  1
  H+  H297  1  0.26994113  0.37685748  0.67009567  1
  H+  H298  1  0.38669228  0.76180648  0.51176965  1
  H+  H299  1  0.57966144  0.92678444  0.40537354  1
  H+  H300  1  0.67952520  0.34551257  0.23549240  1
  H+  H301  1  0.09135358  0.92698450  0.41275246  1
  H+  H302  1  0.94120965  0.34367204  0.20568333  1
  H+  H303  1  0.48932700  0.11962360  0.17299621  1
  H+  H304  1  0.82837573  0.65059665  0.76557818  1
  H+  H305  1  0.62143636  0.89937133  0.16166148  1
  H+  H306  1  0.71961763  0.25969357  0.62750080  1
  H+  H307  1  0.33641973  0.17303693  0.43864923  1
  H+  H308  1  0.10065843  0.90517742  0.72555455  1
  H+  H309  1  0.91441718  0.81235463  0.89203260  1
  H+  H310  1  0.91225276  0.07253899  0.26569711  1
  H+  H311  1  0.06779291  0.19396070  0.08069106  1
  H+  H312  1  0.64087421  0.71449278  0.37400803  1
  H+  H313  1  0.04658572  0.52315070  0.10607535  1
  H+  H314  1  0.67036107  0.10099684  0.60329693  1
  H+  H315  1  0.91541685  0.57662054  0.92933462  1
  H+  H316  1  0.41387867  0.82997924  0.60477239  1
  H+  H317  1  0.59129683  0.17273225  0.10452771  1
  H+  H318  1  0.91769396  0.59264622  0.23521179  1
  H+  H319  1  0.36747774  0.85110961  0.83689575  1
  H+  H320  1  0.61592382  0.73539560  0.49290138  1
  H+  H321  1  0.20644493  0.15528703  0.26375320  1
  H+  H322  1  0.07767165  0.16229424  0.76664738  1
  H+  H323  1  0.34031268  0.91618610  0.06444111  1
  H+  H324  1  0.19521648  0.90997009  0.20130102  1
  H+  H325  1  0.60406707  0.96629073  -0.00706143  1
  H+  H326  1  0.30144303  0.92126208  0.43880022  1
  H+  H327  1  0.17232548  0.82974041  0.27831300  1
  H+  H328  1  0.35941150  -0.02563118  0.82832726  1
  H+  H329  1  0.42482736  0.08082936  0.26090107  1
  H+  H330  1  0.07952387  0.14746798  0.43559184  1
  H+  H331  1  0.67705884  0.83702148  0.22222586  1
  H+  H332  1  0.67435036  0.33036924  0.93997873  1
  H+  H333  1  0.40892544  0.33792177  0.56470111  1
  H+  H334  1  0.83247378  0.17836284  0.76628196  1
  H+  H335  1  0.84608561  0.91971458  0.06170170  1
  H+  H336  1  0.18125224  0.02738968  0.23500265  1
  H+  H337  1  0.66042364  0.57452233  0.60514574  1
  H+  H338  1  0.94113459  0.96023994  0.76249715  1
  H+  H339  1  0.19298500  0.27828809  0.22075607  1
  H+  H340  1  0.66859478  0.58734068  0.27152937  1
  H+  H341  1  0.15371116  0.30335472  0.61296938  1
  H+  H342  1  0.22055368  0.89076675  0.82366377  1
  H+  H343  1  0.89147904  0.63057367  0.32783927  1
  H+  H344  1  0.33982828  0.42236588  0.06805455  1
  H+  H345  1  0.33320849  0.16438086  0.77119567  1
  H+  H346  1  0.13335569  0.09572879  0.83472595  1
  H+  H347  1  0.41567274  0.08825988  0.60341225  1
  H+  H348  1  0.14008412  0.78209567  0.99609184  1
  H+  H349  1  0.57702598  0.16894462  0.74428140  1
  H+  H350  1  0.58507992  0.40482115  0.73572858  1
  H+  H351  1  0.17841776  0.57371032  0.24448863  1
  H+  H352  1  0.64760596  0.82683990  0.91792844  1
  H+  H353  1  0.51713003  0.13707860  0.49393169  1
  H+  H354  1  0.77050970  0.13722266  0.15768772  1
  H+  H355  1  0.85682419  0.32996519  0.30890372  1
  H+  H356  1  0.97225862  0.98068413  0.73673397  1
  H+  H357  1  0.21439390  0.43906322  0.37705232  1
  H+  H358  1  0.86464996  0.38636911  0.00695747  1
  H+  H359  1  0.82258954  0.45412353  0.42833918  1
  H+  H360  1  0.59533346  0.67091310  0.04860928  1
  H+  H361  1  0.56567835  0.92878008  0.77455391  1
  H+  H362  1  0.57899693  0.65899395  0.76412503  1
  H+  H363  1  0.12082647  0.43848380  0.45585799  1
  H+  H364  1  0.16637914  0.08215531  0.93124896  1
  H+  H365  1  0.10860350  0.64740008  0.01089118  1
  H+  H366  1  0.83822933  0.42316986  0.10083302  1
  H+  H367  1  0.13413218  0.60633356  0.33418236  1
  H+  H368  1  0.17016460  0.80894187  0.59392641  1
  H+  H369  1  0.91416601  0.09807374  0.60033146  1
  H+  H370  1  0.93766297  0.81713775  0.56739515  1
  H+  H371  1  0.32571421  0.65433438  0.76223617  1
  H+  H372  1  0.41903648  0.08370592  0.93822640  1
  H+  H373  1  0.51254024  0.99661775  0.71901059  1
  H+  H374  1  0.28427227  0.14008273  0.33611255  1
  H+  H375  1  0.06880835  0.71664805  0.09492189  1
  H+  H376  1  0.07358092  0.91543461  0.05580220  1
  H+  H377  1  0.92644825  0.58472359  0.57502387  1
  H+  H378  1  0.66936212  0.08890099  0.23368250  1
  H+  H379  1  0.83014989  0.16115700  0.05863388  1
  H+  H380  1  0.66868531  0.32246423  0.56328198  1
  H+  H381  1  0.82775797  0.65400288  0.05499571  1
  H+  H382  1  0.85509352  0.66139099  0.43591767  1
  H+  H383  1  0.13661080  0.32309307  0.28006553  1
  O2-  O384  1  0.06372702  0.21210860  0.12484001  1
  O2-  O385  1  0.07783809  0.15224916  0.48031553  1
  O2-  O386  1  0.08093670  0.15053171  0.81167698  1
  O2-  O387  1  0.06793318  0.48550401  0.11960772  1
  O2-  O388  1  0.10479732  0.43392147  0.49890511  1
  O2-  O389  1  0.07677651  0.42705899  0.81900527  1
  O2-  O390  1  0.05947535  0.73940455  0.13395548  1
  O2-  O391  1  0.06101587  0.65937805  0.42727046  1
  O2-  O392  1  0.13757778  0.66483260  0.85746211  1
  O2-  O393  1  0.05070829  0.88599145  0.13492904  1
  O2-  O394  1  0.12068980  0.92314159  0.48474818  1
  O2-  O395  1  0.14569966  0.93308253  0.79913035  1
  O2-  O396  1  0.33113116  0.14840137  0.14929575  1
  O2-  O397  1  0.33695547  0.17442637  0.48374610  1
  O2-  O398  1  0.33332682  0.16102379  0.81693509  1
  O2-  O399  1  0.34570026  0.41129902  0.14662425  1
  O2-  O400  1  0.35391183  0.45335143  0.47742928  1
  O2-  O401  1  0.33787282  0.42558723  0.80351240  1
  O2-  O402  1  0.32861384  0.65837878  0.15029407  1
  O2-  O403  1  0.34500584  0.65566834  0.48771725  1
  O2-  O404  1  0.32153871  0.65123322  0.80846682  1
  O2-  O405  1  0.35171932  0.91966742  0.14460359  1
  O2-  O406  1  0.28821933  0.92345095  0.48272587  1
  O2-  O407  1  0.32449607  0.91441937  0.81224894  1
  O2-  O408  1  0.59312180  0.17652849  0.15008589  1
  O2-  O409  1  0.57805152  0.16434089  0.47895901  1
  O2-  O410  1  0.58239150  0.16326980  0.81893512  1
  O2-  O411  1  0.58463471  0.41438301  0.14836046  1
  O2-  O412  1  0.57367326  0.40759407  0.48049342  1
  O2-  O413  1  0.59954930  0.41087657  0.81352764  1
  O2-  O414  1  0.60245513  0.67320394  0.12730481  1
  O2-  O415  1  0.56949736  0.63289279  0.47089051  1
  O2-  O416  1  0.57973433  0.66176126  0.81053249  1
  O2-  O417  1  0.59067949  0.93128891  0.15377561  1
  O2-  O418  1  0.58407768  0.91064033  0.48321758  1
  O2-  O419  1  0.56895294  0.91297750  0.81735346  1
  O2-  O420  1  0.82961006  0.16332987  0.13861286  1
  O2-  O421  1  0.80116624  0.19476608  0.46064087  1
  O2-  O422  1  0.83400165  0.18578649  0.81162190  1
  O2-  O423  1  0.84250643  0.42473406  0.14671220  1
  O2-  O424  1  0.83854207  0.42188810  0.51181011  1
  O2-  O425  1  0.84860450  0.39066011  0.81957506  1
  O2-  O426  1  0.82486260  0.65500753  0.13553770  1
  O2-  O427  1  0.86528223  0.66120205  0.48002776  1
  O2-  O428  1  0.82490564  0.64652158  0.81112093  1
  O2-  O429  1  0.83890107  0.92293205  0.13431608  1
  O2-  O430  1  0.82682045  0.87609300  0.49447765  1
  O2-  O431  1  0.83127368  0.91114479  0.85975267  1
  O2-  O432  1  0.19191238  0.00410076  0.19724485  1
  O2-  O433  1  0.16693596  0.08065156  0.52550568  1
  O2-  O434  1  0.16929061  0.07472752  0.85499569  1
  O2-  O435  1  0.20154339  0.26681189  0.17749385  1
  O2-  O436  1  0.15363933  0.30919317  0.53863201  1
  O2-  O437  1  0.20307161  0.29803122  0.86544002  1
  O2-  O438  1  0.18958947  0.55902587  0.20185640  1
  O2-  O439  1  0.11724841  0.58026078  0.54688982  1
  O2-  O440  1  0.12334447  0.52110698  0.81273008  1
  O2-  O441  1  0.19814120  0.85586985  0.20305836  1
  O2-  O442  1  0.18525194  0.75152599  0.51638797  1
  O2-  O443  1  0.15862111  0.87469818  0.83073499  1
  O2-  O444  1  0.42836439  0.08417409  0.18770599  1
  O2-  O445  1  0.41549057  0.09008354  0.52332628  1
  O2-  O446  1  0.41419449  0.07752349  0.85887600  1
  O2-  O447  1  0.41915088  0.32566312  0.19058128  1
  O2-  O448  1  0.40842878  0.34114012  0.51920631  1
  O2-  O449  1  0.35721390  0.30387616  0.86880395  1
  O2-  O450  1  0.40175915  0.57381249  0.20834856  1
  O2-  O451  1  0.40719927  0.53255845  0.51133633  1
  O2-  O452  1  0.41661530  0.58452638  0.85584541  1
  O2-  O453  1  0.42032612  0.83281547  0.19715813  1
  O2-  O454  1  0.41329516  0.82317663  0.52528838  1
  O2-  O455  1  0.39809230  0.82103616  0.85218527  1
  O2-  O456  1  0.67238659  0.09064860  0.18848104  1
  O2-  O457  1  0.65847993  0.08149835  0.52678312  1
  O2-  O458  1  0.66655696  0.08202089  0.85548582  1
  O2-  O459  1  0.68021216  0.34300463  0.19016990  1
  O2-  O460  1  0.66546423  0.32798691  0.51864492  1
  O2-  O461  1  0.68079720  0.32800369  0.86071257  1
  O2-  O462  1  0.66079580  0.58269007  0.18305931  1
  O2-  O463  1  0.65774431  0.56927496  0.53415110  1
  O2-  O464  1  0.66382803  0.57051093  0.84674366  1
  O2-  O465  1  0.68022404  0.84408476  0.17580617  1
  O2-  O466  1  0.65259152  0.79554618  0.50859909  1
  O2-  O467  1  0.65260295  0.82692591  0.84782039  1
  O2-  O468  1  0.92251711  0.09232531  0.18052869  1
  O2-  O469  1  0.91939329  0.08923574  0.52479580  1
  O2-  O470  1  0.92109397  0.09345486  0.85415514  1
  O2-  O471  1  0.92767261  0.34464940  0.16289436  1
  O2-  O472  1  0.93277019  0.34553817  0.51829772  1
  O2-  O473  1  0.89875813  0.35082342  0.84121390  1
  O2-  O474  1  0.91783549  0.59448987  0.18970357  1
  O2-  O475  1  0.92480012  0.57732464  0.52893694  1
  O2-  O476  1  0.91315819  0.56935137  0.85708403  1
  O2-  O477  1  0.90872477  0.83639573  0.19788697  1
  O2-  O478  1  0.94356333  0.82128188  0.52186394  1
  O2-  O479  1  0.90021614  0.80735260  0.84861058  1
  O2-  O480  1  0.19093319  0.10713776  0.29128658  1
  O2-  O481  1  0.16375009  0.07162154  0.64294411  1
  O2-  O482  1  0.16480715  0.08309782  0.97702332  1
  O2-  O483  1  0.17053756  0.29648687  0.29084022  1
  O2-  O484  1  0.16354937  0.31278775  0.65830024  1
  O2-  O485  1  0.17012987  0.34050195  0.97651396  1
  O2-  O486  1  0.17197714  0.58550121  0.31709531  1
  O2-  O487  1  0.15701834  0.57098887  0.66287145  1
  O2-  O488  1  0.16453179  0.60275179  0.97008181  1
  O2-  O489  1  0.16507506  0.82843408  0.32341790  1
  O2-  O490  1  0.18163735  0.85765049  0.61997670  1
  O2-  O491  1  0.17781779  0.84133314  0.98147405  1
  O2-  O492  1  0.42613302  0.07782284  0.30737375  1
  O2-  O493  1  0.41218252  0.08384262  0.64870228  1
  O2-  O494  1  0.42204888  0.08520954  0.98366636  1
  O2-  O495  1  0.41458168  0.33719194  0.31533677  1
  O2-  O496  1  0.40760353  0.32653314  0.64315620  1
  O2-  O497  1  0.44578404  0.39121084  0.96244861  1
  O2-  O498  1  0.41494223  0.58256937  0.32828230  1
  O2-  O499  1  0.40968216  0.58515444  0.64629744  1
  O2-  O500  1  0.41538075  0.59115865  0.97967944  1
  O2-  O501  1  0.41126426  0.83089620  0.32080381  1
  O2-  O502  1  0.40929245  0.83058794  0.64985732  1
  O2-  O503  1  0.40672242  0.82552226  0.97590347  1
  O2-  O504  1  0.66020192  0.08454145  0.31437610  1
  O2-  O505  1  0.67355026  0.11267073  0.64812112  1
  O2-  O506  1  0.65939991  0.07345148  0.97842791  1
  O2-  O507  1  0.67722382  0.35594823  0.31550459  1
  O2-  O508  1  0.70002729  0.29992582  0.63855842  1
  O2-  O509  1  0.67233197  0.32968386  0.98532878  1
  O2-  O510  1  0.67161295  0.58869124  0.31627902  1
  O2-  O511  1  0.66414708  0.57716857  0.65174097  1
  O2-  O512  1  0.66444057  0.57391897  0.97184635  1
  O2-  O513  1  0.66566988  0.82463201  0.29265309  1
  O2-  O514  1  0.67202890  0.79861407  0.63275083  1
  O2-  O515  1  0.64517922  0.82863547  0.96465587  1
  O2-  O516  1  0.91103291  0.06865870  0.31066583  1
  O2-  O517  1  0.90638084  0.08906610  0.64544983  1
  O2-  O518  1  0.91600121  0.07591121  0.97363859  1
  O2-  O519  1  0.86104424  0.32172627  0.35232181  1
  O2-  O520  1  0.92900433  0.33434497  0.64488612  1
  O2-  O521  1  0.91083613  0.33214611  0.97014921  1
  O2-  O522  1  0.92063080  0.59663810  0.31503054  1
  O2-  O523  1  0.92530550  0.58502279  0.64943232  1
  O2-  O524  1  0.91597276  0.58209203  0.97559089  1
  O2-  O525  1  0.91891020  0.84656681  0.33128760  1
  O2-  O526  1  0.92145563  0.81837587  0.64363487  1
  O2-  O527  1  0.91438091  0.83153297  0.97952685  1
  O2-  O528  1  0.08003146  0.17600470  0.01467420  1
  O2-  O529  1  0.07661503  0.13825010  0.35198604  1
  O2-  O530  1  0.06061802  0.18572248  0.69754370  1
  O2-  O531  1  0.08453418  0.43139783  -0.00228909  1
  O2-  O532  1  0.16261149  0.44441355  0.37581652  1
  O2-  O533  1  0.08457544  0.40582485  0.69155041  1
  O2-  O534  1  0.07407966  0.67275428  0.02618236  1
  O2-  O535  1  0.07579877  0.65464029  0.36189112  1
  O2-  O536  1  0.09920578  0.65343300  0.73764966  1
  O2-  O537  1  0.07791694  0.91734609  0.01084904  1
  O2-  O538  1  0.07840142  0.92656715  0.36812568  1
  O2-  O539  1  0.08384578  0.90312482  0.68215739  1
  O2-  O540  1  0.32953306  0.15842960  0.03113039  1
  O2-  O541  1  0.34154523  0.16825991  0.35640173  1
  O2-  O542  1  0.32926694  0.16637474  0.69493484  1
  O2-  O543  1  0.33390568  0.42617120  0.02318821  1
  O2-  O544  1  0.31188499  0.40646527  0.34223399  1
  O2-  O545  1  0.33272415  0.41318398  0.67976034  1
  O2-  O546  1  0.32652931  0.66696408  0.02689025  1
  O2-  O547  1  0.33825840  0.67247087  0.36663872  1
  O2-  O548  1  0.32849146  0.65824755  0.68893173  1
  O2-  O549  1  0.33870223  0.91723151  0.01922974  1
  O2-  O550  1  0.32421569  0.91128990  0.36292328  1
  O2-  O551  1  0.33036586  0.91799007  0.68952111  1
  O2-  O552  1  0.58558873  0.16179972  0.02600090  1
  O2-  O553  1  0.59742861  0.19145194  0.35973187  1
  O2-  O554  1  0.57449043  0.17048705  0.69835113  1
  O2-  O555  1  0.58902724  0.41407823  0.02350431  1
  O2-  O556  1  0.57846360  0.42692314  0.35650905  1
  O2-  O557  1  0.57714940  0.40518041  0.69070293  1
  O2-  O558  1  0.58634974  0.66715245  0.00373376  1
  O2-  O559  1  0.59567158  0.66408425  0.35323434  1
  O2-  O560  1  0.57604069  0.65391620  0.69121926  1
  O2-  O561  1  0.57299340  0.90289852  0.00142465  1
  O2-  O562  1  0.57764919  0.93596564  0.36091081  1
  O2-  O563  1  0.54766919  0.97175477  0.70715387  1
  O2-  O564  1  0.83000348  0.15806677  0.01325721  1
  O2-  O565  1  0.81593658  0.13949453  0.35049786  1
  O2-  O566  1  0.83110367  0.17146619  0.68840545  1
  O2-  O567  1  0.83698479  0.41766359  0.02488881  1
  O2-  O568  1  0.82535477  0.45014732  0.38385130  1
  O2-  O569  1  0.85509757  0.41254981  0.69920496  1
  O2-  O570  1  0.83061775  0.66140694  0.01015325  1
  O2-  O571  1  0.83758162  0.67215924  0.35324696  1
  O2-  O572  1  0.83141615  0.65644444  0.68807812  1
  O2-  O573  1  0.84926555  0.91801804  0.01525037  1
  O2-  O574  1  0.81425785  0.90765920  0.36734555  1
  O2-  O575  1  0.85017336  0.91738696  0.61973330  1
