# generated using pymatgen
data_H2O
_symmetry_space_group_name_H-M   'P 1'
_cell_length_a   17.99220996
_cell_length_b   17.98824778
_cell_length_c   22.00714935
_cell_angle_alpha   89.99287406
_cell_angle_beta   90.00100527
_cell_angle_gamma   120.00575674
_symmetry_Int_Tables_number   1
_chemical_formula_structural   H2O
_chemical_formula_sum   'H384 O192'
_cell_volume   6167.97485090
_cell_formula_units_Z   192
loop_
 _symmetry_equiv_pos_site_id
 _symmetry_equiv_pos_as_xyz
  1  'x, y, z'
loop_
 _atom_type_symbol
 _atom_type_oxidation_number
  H+  1.0
  O2-  -2.0
loop_
 _atom_site_type_symbol
 _atom_site_label
 _atom_site_symmetry_multiplicity
 _atom_site_fract_x
 _atom_site_fract_y
 _atom_site_fract_z
 _atom_site_occupancy
  H+  H0  1  0.38769526  0.61740601  0.83768050  1
  H+  H1  1  0.35146564  0.22345818  0.00279283  1
  H+  H2  1  0.51985859  0.38006481  0.51591889  1
  H+  H3  1  0.72614383  0.12145093  0.99234765  1
  H+  H4  1  0.12433373  0.76933092  0.24284104  1
  H+  H5  1  0.13613825  0.61924168  0.66617269  1
  H+  H6  1  0.07636658  0.42823327  0.43441983  1
  H+  H7  1  0.70066827  0.84285788  0.33386626  1
  H+  H8  1  0.21795800  0.86513924  0.66891079  1
  H+  H9  1  0.92714943  0.07687136  0.60433082  1
  H+  H10  1  0.85802971  0.57522638  0.65751734  1
  H+  H11  1  0.88383309  0.50377617  0.66219782  1
  H+  H12  1  0.23125222  0.36358822  0.83995531  1
  H+  H13  1  0.97967182  0.87380961  0.66461093  1
  H+  H14  1  0.60455851  0.65871295  0.40072736  1
  H+  H15  1  0.68041026  0.57273719  0.28260839  1
  H+  H16  1  0.11932131  0.12650223  0.01073389  1
  H+  H17  1  0.35462946  0.85596328  0.00328473  1
  H+  H18  1  0.35553226  0.97306134  0.67924722  1
  H+  H19  1  0.31327940  0.16427207  0.43012650  1
  H+  H20  1  0.05960267  0.59833981  0.14006412  1
  H+  H21  1  0.18342272  0.55191032  0.33216046  1
  H+  H22  1  0.17239134  0.32868568  0.89934349  1
  H+  H23  1  0.59093718  0.63533373  0.00834020  1
  H+  H24  1  0.05775664  0.42288418  0.34065320  1
  H+  H25  1  0.90202706  0.12042756  0.32111574  1
  H+  H26  1  0.48130898  0.35814614  0.65301918  1
  H+  H27  1  0.74486238  0.39451977  0.99156366  1
  H+  H28  1  0.25699601  0.13275461  0.33063271  1
  H+  H29  1  0.36481980  0.62720418  0.66103182  1
  H+  H30  1  0.51139252  0.62114950  0.68740844  1
  H+  H31  1  0.40364101  0.08228353  0.60414125  1
  H+  H32  1  0.35482306  0.47878604  1.00562789  1
  H+  H33  1  0.68459999  0.60180705  0.57639102  1
  H+  H34  1  0.79087996  0.38351258  0.48669667  1
  H+  H35  1  0.89638967  0.02440981  0.99364228  1
  H+  H36  1  0.88913146  0.39555591  0.33146631  1
  H+  H37  1  0.57054834  0.16271510  0.08777381  1
  H+  H38  1  0.88605413  0.14719394  0.52323687  1
  H+  H39  1  -0.03310015  0.34655555  0.64406921  1
  H+  H40  1  0.98205458  0.37651031  0.98962130  1
  H+  H41  1  0.51420970  0.14006760  0.50846747  1
  H+  H42  1  0.73170331  0.10844541  0.84209801  1
  H+  H43  1  0.13952014  0.11900165  0.68042285  1
  H+  H44  1  0.24938067  0.36219607  0.15444596  1
  H+  H45  1  0.13160572  0.75190908  0.35289166  1
  H+  H46  1  0.37627355  -0.01100830  0.34763911  1
  H+  H47  1  0.62575834  0.39283249  0.65275060  1
  H+  H48  1  0.63732097  0.73909613  0.48218561  1
  H+  H49  1  0.75924648  0.36546150  0.31115911  1
  H+  H50  1  0.23507858  0.35453407  0.99668236  1
  H+  H51  1  0.73518331  0.38512494  0.83220600  1
  H+  H52  1  0.97587136  0.10964879  0.83916871  1
  H+  H53  1  0.61009041  0.61538010  0.11005105  1
  H+  H54  1  0.10889178  0.63403240  0.82139885  1
  H+  H55  1  0.10130993  0.48496790  0.67708487  1
  H+  H56  1  0.77084999  0.11847067  0.67314754  1
  H+  H57  1  0.88081800  0.26597432  0.83537245  1
  H+  H58  1  0.60991570  0.42075467  0.35247048  1
  H+  H59  1  0.25565658  0.89481475  0.34681455  1
  H+  H60  1  0.36324756  0.39287136  1.00654114  1
  H+  H61  1  0.85879735  0.20768740  0.67053049  1
  H+  H62  1  0.77035071  0.87088005  0.14320200  1
  H+  H63  1  0.52585509  0.88202270  0.16324913  1
  H+  H64  1  0.61445259  0.38849615  0.51399931  1
  H+  H65  1  0.88243169  0.41992075  0.11604071  1
  H+  H66  1  0.10195947  0.69627001  0.15977729  1
  H+  H67  1  0.07732393  0.37390359  0.49009689  1
  H+  H68  1  0.83655957  0.17991960  0.38393398  1
  H+  H69  1  0.24907101  0.62289356  0.02304277  1
  H+  H70  1  0.39050993  0.35262531  0.33377708  1
  H+  H71  1  0.37308574  0.11697897  0.50836987  1
  H+  H72  1  0.65215362  0.53443429  0.66437712  1
  H+  H73  1  0.20952209  0.11673176  0.49117110  1
  H+  H74  1  0.46377416  0.13132081  0.32986718  1
  H+  H75  1  0.84625926  0.63542781  0.15704315  1
  H+  H76  1  0.34471808  0.96935501  0.00863260  1
  H+  H77  1  0.86910448  0.20642683  0.16147124  1
  H+  H78  1  0.86307109  0.36889538  0.66563574  1
  H+  H79  1  0.72264244  0.87295392  0.66113256  1
  H+  H80  1  0.64943352  0.28022989  0.50780536  1
  H+  H81  1  0.86223982  0.97278500  0.33760208  1
  H+  H82  1  0.29554583  0.63498343  0.16541775  1
  H+  H83  1  0.13932981  0.86590283  0.50967941  1
  H+  H84  1  0.37083390  0.89378700  0.33885696  1
  H+  H85  1  0.42714024  0.72266623  0.36533294  1
  H+  H86  1  0.63294439  0.11342319  0.15696997  1
  H+  H87  1  0.66866223  0.26465366  0.80622449  1
  H+  H88  1  0.61525318  -0.02609059  0.48762906  1
  H+  H89  1  0.38229853  0.51684920  0.65878715  1
  H+  H90  1  0.26914592  0.62656035  0.85086016  1
  H+  H91  1  0.41027174  0.83997703  0.23807979  1
  H+  H92  1  0.36000991  0.66548221  0.44758186  1
  H+  H93  1  0.38352423  0.49315701  0.16255386  1
  H+  H94  1  0.63851627  0.76300822  0.84481437  1
  H+  H95  1  0.86766812  0.52432529  0.15447216  1
  H+  H96  1  0.12849652  0.77737304  0.66331459  1
  H+  H97  1  0.60084188  0.81449099  0.33361908  1
  H+  H98  1  0.16454141  0.59031638  0.18684381  1
  H+  H99  1  0.36934336  0.45693233  0.34906117  1
  H+  H100  1  0.86450684  0.08447261  0.17033210  1
  H+  H101  1  0.90249229  0.29159640  0.59030018  1
  H+  H102  1  -0.00166395  0.16392085  0.01915587  1
  H+  H103  1  0.88363531  0.76943648  0.32965633  1
  H+  H104  1  0.68683154  0.15246145  0.32089627  1
  H+  H105  1  0.39373063  0.87388021  0.51278685  1
  H+  H106  1  0.27930529  0.89255845  0.16860460  1
  H+  H107  1  0.49118992  0.61401948  0.17062930  1
  H+  H108  1  0.85620680  0.63113070  0.33888640  1
  H+  H109  1  0.64601991  0.53189685  0.52434132  1
  H+  H110  1  0.36359303  0.60900847  0.99371388  1
  H+  H111  1  0.40863451  0.62537954  0.17476220  1
  H+  H112  1  0.89232229  0.78562191  0.66655843  1
  H+  H113  1  0.67072499  0.89135740  0.98562435  1
  H+  H114  1  0.51291667  0.08720414  0.76594994  1
  H+  H115  1  0.73629809  0.62462234  0.67943586  1
  H+  H116  1  0.37512474  0.10231723  -0.00080083  1
  H+  H117  1  0.31041544  0.40514975  0.50795772  1
  H+  H118  1  0.72803654  0.61508379  0.18444318  1
  H+  H119  1  0.87150614  0.85341795  0.84747705  1
  H+  H120  1  0.63229652  0.99587078  0.33863637  1
  H+  H121  1  0.15099991  0.07632226  0.22089026  1
  H+  H122  1  0.85972764  0.97094039  0.82687302  1
  H+  H123  1  0.11034581  0.16207309  0.37810021  1
  H+  H124  1  0.88896494  0.10579493  0.66038474  1
  H+  H125  1  0.38193144  0.78242905  0.85840353  1
  H+  H126  1  0.03215005  0.14043357  0.44994049  1
  H+  H127  1  0.34968886  0.21973948  0.33297717  1
  H+  H128  1  0.15355001  0.33077221  0.13823918  1
  H+  H129  1  0.73437458  0.85697078  0.83308322  1
  H+  H130  1  0.10922845  0.37566464  0.82380877  1
  H+  H131  1  0.11532304  0.72779923  0.82806535  1
  H+  H132  1  0.34649818  0.40581371  0.41349432  1
  H+  H133  1  0.41248034  0.52410841  0.51069389  1
  H+  H134  1  0.28295787  0.14170495  0.69275641  1
  H+  H135  1  0.40928489  0.61235475  0.51472950  1
  H+  H136  1  0.38183283  0.77255876  0.66057928  1
  H+  H137  1  0.39325238  0.86685012  0.17185829  1
  H+  H138  1  0.97327299  0.85768575  0.32738844  1
  H+  H139  1  0.62405313  -0.02543620  0.30801970  1
  H+  H140  1  0.39272853  0.35783471  0.66287383  1
  H+  H141  1  0.82085785  0.43263181  0.06967769  1
  H+  H142  1  0.46345333  0.35737404  1.00043305  1
  H+  H143  1  0.10467422  0.12684774  0.97872197  1
  H+  H144  1  0.12151715  0.76101710  0.99281517  1
  H+  H145  1  0.48952501  0.58740296  0.32821225  1
  H+  H146  1  0.86831732  -0.00490991  0.16896479  1
  H+  H147  1  0.59432136  -0.01188671  0.83386510  1
  H+  H148  1  0.39461590  0.62444065  0.35191448  1
  H+  H149  1  0.87617311  0.88722912  0.49119798  1
  H+  H150  1  0.58976440  0.18580851  0.34954296  1
  H+  H151  1  0.59270959  0.37440074  0.00699687  1
  H+  H152  1  0.34974208  0.78484330  0.31515329  1
  H+  H153  1  0.11270995  -0.02061756  0.68862587  1
  H+  H154  1  0.11492694  0.22763529  0.82724931  1
  H+  H155  1  0.37302386  0.22830389  0.68401959  1
  H+  H156  1  0.21547326  0.85219272  0.84213102  1
  H+  H157  1  1.12978516  0.45608803  0.16234360  1
  H+  H158  1  0.35230528  0.75986672  1.00144110  1
  H+  H159  1  0.64399889  0.76395767  0.14979102  1
  H+  H160  1  0.60842868  0.89043898  0.67920260  1
  H+  H161  1  -0.03027493  0.35442287  0.83591203  1
  H+  H162  1  0.93424838  0.30120123  0.34285044  1
  H+  H163  1  0.08414432  0.11727056  0.15182984  1
  H+  H164  1  0.88809351  0.76698162  0.50733481  1
  H+  H165  1  0.37135276  0.39492440  0.83030984  1
  H+  H166  1  0.21910746  0.50811832  0.90191015  1
  H+  H167  1  0.61953697  0.70614295  0.33512649  1
  H+  H168  1  0.36879701  0.48207886  0.82826712  1
  H+  H169  1  0.73444276  0.87736198  0.50393980  1
  H+  H170  1  0.51124210  0.37300858  0.82180411  1
  H+  H171  1  0.63755484  0.60542479  0.19985688  1
  H+  H172  1  0.61671816  0.51540346  1.02530710  1
  H+  H173  1  0.77039092  0.13014489  0.15785118  1
  H+  H174  1  0.86100309  0.87415009  0.15669175  1
  H+  H175  1  0.55926536  0.92249089  0.77818571  1
  H+  H176  1  0.12123020  0.73106839  0.50080343  1
  H+  H177  1  0.98800573  0.62526314  0.51045672  1
  H+  H178  1  0.52467864  0.10337451  0.79809604  1
  H+  H179  1  0.11934919  0.89474434  0.34372434  1
  H+  H180  1  0.83521117  0.48560308  0.98558918  1
  H+  H181  1  0.10651822  0.97989180  0.15101127  1
  H+  H182  1  0.11949526  0.00758685  0.32170421  1
  H+  H183  1  0.85800520  0.63830697  0.83020800  1
  H+  H184  1  0.02476201  0.13444168  0.67450013  1
  H+  H185  1  0.64526922  0.27724957  0.64778822  1
  H+  H186  1  0.27954493  0.89699239  0.50083199  1
  H+  H187  1  0.53250369  0.85849814  0.40014608  1
  H+  H188  1  0.46900437  0.87746862  0.85585455  1
  H+  H189  1  1.01811072  0.63427559  0.67280419  1
  H+  H190  1  0.77817502  0.09625403  0.30768484  1
  H+  H191  1  0.87109058  0.22568193  0.00330316  1
  H+  H192  1  0.85164105  0.72692778  0.16137128  1
  H+  H193  1  0.08998271  0.25077042  0.02666823  1
  H+  H194  1  0.58778493  0.42579092  0.60312076  1
  H+  H195  1  0.86212877  0.88555150  0.67368264  1
  H+  H196  1  0.16774700  0.06176708  0.92301976  1
  H+  H197  1  0.39752493  0.58256602  0.93358215  1
  H+  H198  1  0.07999180  0.66956804  0.73053095  1
  H+  H199  1  0.99762844  0.34629996  0.16869571  1
  H+  H200  1  0.86476763  0.97468686  0.67678197  1
  H+  H201  1  0.73708061  0.36160195  0.14788038  1
  H+  H202  1  0.61767459  0.26608198  0.97953528  1
  H+  H203  1  0.14558668  0.49402580  0.85709864  1
  H+  H204  1  0.01510788  0.87508685  0.49289366  1
  H+  H205  1  -0.02725920  0.85862626  0.17408893  1
  H+  H206  1  0.11594519  0.84759342  -0.00767965  1
  H+  H207  1  0.11152214  0.63691103  0.50039879  1
  H+  H208  1  0.86359506  0.38528265  0.82253329  1
  H+  H209  1  0.64150829  0.86885269  0.50084878  1
  H+  H210  1  0.14470097  0.25517240  0.64839816  1
  H+  H211  1  0.42861801  0.56992756  0.27115097  1
  H+  H212  1  0.47649712  0.61690624  0.84662242  1
  H+  H213  1  0.57209383  0.65882740  0.78287815  1
  H+  H214  1  0.49164985  0.12129343  0.16810864  1
  H+  H215  1  0.23403513  0.08896579  0.97785478  1
  H+  H216  1  0.63860209  0.10443997  0.65387083  1
  H+  H217  1  0.08836192  0.67549902  0.39710447  1
  H+  H218  1  0.47423806  0.84235878  0.33955928  1
  H+  H219  1  0.60575164  0.13419025  -0.00068922  1
  H+  H220  1  0.92110777  0.07931558  0.26332547  1
  H+  H221  1  0.10343663  0.39902794  0.67733631  1
  H+  H222  1  0.47772191  0.35639890  0.17638201  1
  H+  H223  1  0.85596511  0.90110933  0.06229663  1
  H+  H224  1  0.22298718  0.61185046  0.66601047  1
  H+  H225  1  0.37505609  0.73268266  0.16271629  1
  H+  H226  1  0.16030249  0.34466513  0.62370737  1
  H+  H227  1  0.66494499  0.13724464  0.83398643  1
  H+  H228  1  0.96022443  0.61135980  0.97953006  1
  H+  H229  1  0.61827686  0.46898524  0.16974423  1
  H+  H230  1  0.09975539  0.96652020  0.48354119  1
  H+  H231  1  0.73848123  0.36202341  0.65870074  1
  H+  H232  1  0.74213579  0.61232248  0.34328884  1
  H+  H233  1  0.32969518  0.25289700  0.15151961  1
  H+  H234  1  0.20280614  0.12800061  0.16036503  1
  H+  H235  1  0.86163469  0.88391358  0.33803308  1
  H+  H236  1  0.98307905  0.10259913  0.15996305  1
  H+  H237  1  0.86562081  0.12930178  0.82801031  1
  H+  H238  1  0.93929600  0.37988937  0.48302151  1
  H+  H239  1  0.64986102  0.11486264  0.51167681  1
  H+  H240  1  0.62590060  0.52398724  0.83954271  1
  H+  H241  1  0.68605286  0.84469609  0.90148313  1
  H+  H242  1  0.34664292  0.10986506  0.84314874  1
  H+  H243  1  0.90260674  0.68224690  0.70052668  1
  H+  H244  1  0.10705251  0.88881283  0.68828970  1
  H+  H245  1  0.51144175  0.12597132  0.99926323  1
  H+  H246  1  0.13566036  0.29408659  0.36275099  1
  H+  H247  1  0.34543313  0.22527017  0.49037559  1
  H+  H248  1  0.62273716  0.38290487  0.16137167  1
  H+  H249  1  0.60381559  0.62894773  0.69332461  1
  H+  H250  1  0.38172970  0.23732529  0.84957465  1
  H+  H251  1  0.61312474  0.22657534  0.14558581  1
  H+  H252  1  -0.03954287  0.88131450  0.00264559  1
  H+  H253  1  0.11213416  0.89443207  0.14965865  1
  H+  H254  1  0.23387825  0.36344315  0.35070109  1
  H+  H255  1  0.97643369  0.61609221  0.82727586  1
  H+  H256  1  0.14028292  0.41570170  0.35439296  1
  H+  H257  1  0.34146219  -0.02441289  0.83637697  1
  H+  H258  1  0.38902467  0.11448673  0.66876941  1
  H+  H259  1  1.01561822  0.13675321  0.35326984  1
  H+  H260  1  0.38704601  0.36281699  0.50265744  1
  H+  H261  1  0.39446269  0.02713571  0.17464570  1
  H+  H262  1  0.06509662  0.09801427  0.50540048  1
  H+  H263  1  0.24481046  0.24752310  0.12640136  1
  H+  H264  1  0.35122832  0.89147612  0.83661224  1
  H+  H265  1  0.37934408  0.03067696  0.50999115  1
  H+  H266  1  0.19840373  0.75118174  0.23832555  1
  H+  H267  1  0.62652719  -0.02008732  1.00504584  1
  H+  H268  1  0.82451690  0.66874548  1.06524604  1
  H+  H269  1  0.15422794  0.81648322  0.90061759  1
  H+  H270  1  0.61413245  0.96945053  0.16182108  1
  H+  H271  1  0.36982742  0.11295601  0.31673224  1
  H+  H272  1  0.79348612  0.13755810  0.29022786  1
  H+  H273  1  0.87606885  0.10323530  -0.00820017  1
  H+  H274  1  0.58814243  0.16581346  0.59701898  1
  H+  H275  1  0.60598827  0.63262741  0.84255432  1
  H+  H276  1  0.09052733  0.95562183  0.78464111  1
  H+  H277  1  0.95246767  0.61364672  0.16431281  1
  H+  H278  1  0.10823378  0.96112544  -0.00841685  1
  H+  H279  1  0.08625909  0.61241731  0.00410536  1
  H+  H280  1  0.64308559  0.37998000  0.82556949  1
  H+  H281  1  0.19560127  0.33996344  0.47117041  1
  H+  H282  1  0.91735536  0.83051271  0.56635070  1
  H+  H283  1  0.90726991  0.33859698  0.18213916  1
  H+  H284  1  0.64175428  0.65243805  0.49141863  1
  H+  H285  1  0.38362271  0.72837468  0.50335895  1
  H+  H286  1  0.25252306  0.87965701  0.01165626  1
  H+  H287  1  0.90921052  1.01102348  0.49660714  1
  H+  H288  1  0.04735008  0.17162193  0.09948928  1
  H+  H289  1  0.41340039  0.32718542  0.26826646  1
  H+  H290  1  0.52517387  0.88926753  0.49942227  1
  H+  H291  1  0.14983561  0.05946892  0.54513245  1
  H+  H292  1  0.32382333  0.92153314  0.10335253  1
  H+  H293  1  0.19109853  0.26000439  0.97227240  1
  H+  H294  1  0.35640003  0.66562454  0.72216301  1
  H+  H295  1  0.83301132  0.15396070  0.76768920  1
  H+  H296  1  0.52011938  0.13473028  0.64940487  1
  H+  H297  1  0.78642659  0.63784695  0.49855686  1
  H+  H298  1  0.83230743  0.91275078  0.76578364  1
  H+  H299  1  0.64062177  0.61122280  0.34038060  1
  H+  H300  1  0.16877873  0.84398400  0.57255868  1
  H+  H301  1  0.80296584  0.15488228  0.51902126  1
  H+  H302  1  0.08325304  0.17456920  0.73449556  1
  H+  H303  1  0.60064567  0.91677830  0.06139915  1
  H+  H304  1  0.92440976  0.58794472  0.56774420  1
  H+  H305  1  0.42814502  0.09361452  0.23683767  1
  H+  H306  1  0.63092628  0.01245996  0.66545381  1
  H+  H307  1  0.87112044  0.47895895  0.81580431  1
  H+  H308  1  0.28004812  0.37037313  0.66877954  1
  H+  H309  1  0.84343796  0.73099697  0.00995191  1
  H+  H310  1  0.39699828  0.83121497  0.93990040  1
  H+  H311  1  0.35482272  0.43390048  0.10179259  1
  H+  H312  1  0.91521532  0.82935287  0.23547584  1
  H+  H313  1  0.67405264  0.07563483  0.56765088  1
  H+  H314  1  0.33313087  0.15875375  0.78057184  1
  H+  H315  1  0.56978027  0.66475886  0.08545108  1
  H+  H316  1  0.07356677  0.91170054  0.39910569  1
  H+  H317  1  0.66012561  0.34398119  0.30531617  1
  H+  H318  1  0.28094792  0.62724110  0.32811815  1
  H+  H319  1  0.84815286  0.41274409  0.39043731  1
  H+  H320  1  0.91321904  0.58476852  0.88468419  1
  H+  H321  1  0.18815499  0.10216125  0.62796536  1
  H+  H322  1  0.66709918  0.84941894  0.60103966  1
  H+  H323  1  0.05779269  0.65481492  0.05460210  1
  H+  H324  1  0.87010499  0.51637193  0.31709021  1
  H+  H325  1  0.94990233  0.33143564  0.27283252  1
  H+  H326  1  0.88023456  0.57091788  0.25657322  1
  H+  H327  1  0.44002326  0.09549971  0.85030000  1
  H+  H328  1  0.14952214  0.57298746  0.57085726  1
  H+  H329  1  0.65878272  0.10650343  0.22286028  1
  H+  H330  1  0.32365737  0.91642137  0.74020029  1
  H+  H331  1  0.67853793  0.22772575  0.28974974  1
  H+  H332  1  0.51963163  0.34823363  0.32793786  1
  H+  H333  1  0.37691523  0.85946595  0.66825496  1
  H+  H334  1  0.85247258  0.72511533  0.84281580  1
  H+  H335  1  0.55879883  0.41939871  0.76021850  1
  H+  H336  1  0.20757267  0.88205926  0.28435499  1
  H+  H337  1  0.07946498  0.41664971  0.76986609  1
  H+  H338  1  0.32643272  0.66600265  0.07172373  1
  H+  H339  1  0.21515098  0.09312793  0.82182730  1
  H+  H340  1  0.10000827  0.08138457  0.30425010  1
  H+  H341  1  0.64978785  0.20596478  0.74848750  1
  H+  H342  1  0.10699219  0.13452930  0.81705631  1
  H+  H343  1  0.56313667  0.25472624  0.36975517  1
  H+  H344  1  0.64855444  0.33183759  0.92202304  1
  H+  H345  1  0.40182167  0.37794574  0.17558127  1
  H+  H346  1  0.29349581  0.68307376  0.79192560  1
  H+  H347  1  0.57244171  0.17477453  0.45156841  1
  H+  H348  1  0.51731866  0.88712980  0.67939812  1
  H+  H349  1  0.66793906  0.09129511  0.93278985  1
  H+  H350  1  0.41096965  0.32609291  0.93790419  1
  H+  H351  1  0.69134709  0.34569155  0.56171598  1
  H+  H352  1  0.14107002  0.53993345  0.95929363  1
  H+  H353  1  0.30266345  0.17216845  0.06038617  1
  H+  H354  1  0.50410367  0.63759832  0.00096002  1
  H+  H355  1  0.11024122  0.51361983  0.51262929  1
  H+  H356  1  0.07155202  0.91486399  0.05630461  1
  H+  H357  1  0.71542047  0.61022351  0.84447757  1
  H+  H358  1  0.84983672  0.92222060  0.43009865  1
  H+  H359  1  0.33231766  0.40830127  0.73167161  1
  H+  H360  1  0.83415199  0.16284034  0.06134194  1
  H+  H361  1  0.70395274  0.60601471  1.02193732  1
  H+  H362  1  0.69343821  0.33119280  0.21305334  1
  H+  H363  1  0.88679686  0.82823002  0.91309605  1
  H+  H364  1  0.42069979  0.84332197  0.57255023  1
  H+  H365  1  0.87800912  0.64032781  0.49803644  1
  H+  H366  1  0.46998935  0.27665426  0.88471197  1
  H+  H367  1  0.34255651  0.92826860  0.44236690  1
  H+  H368  1  0.42259907  0.57670055  0.59832533  1
  H+  H369  1  0.16338888  0.30609950  0.53674429  1
  H+  H370  1  0.21199481  0.57756932  0.24311263  1
  H+  H371  1  0.92230716  0.33064943  0.93175693  1
  H+  H372  1  0.91766606  0.07879513  0.89923649  1
  H+  H373  1  0.84254023  0.68568951  0.75187406  1
  H+  H374  1  0.84065280  0.40335654  0.72842622  1
  H+  H375  1  0.40456148  0.31406425  0.56181470  1
  H+  H376  1  0.75539986  0.87834477  -0.01749993  1
  H+  H377  1  0.39170509  0.06761110  0.93603926  1
  H+  H378  1  0.64135755  0.85164990  0.15581095  1
  H+  H379  1  0.09031957  0.43101165  0.09547078  1
  H+  H380  1  0.89877313  0.21778183  0.43744570  1
  H+  H381  1  0.87758601  0.62313644  0.97885357  1
  H+  H382  1  0.57000743  0.39882144  0.07258687  1
  H+  H383  1  0.84157457  0.66647212  0.40470879  1
  O2-  O384  1  0.04454176  0.14048747  0.14306341  1
  O2-  O385  1  0.02929179  0.12754026  0.49774924  1
  O2-  O386  1  0.07884475  0.16963756  0.80898970  1
  O2-  O387  1  0.09109758  0.40625733  0.13685696  1
  O2-  O388  1  0.05295316  0.40961944  0.47686555  1
  O2-  O389  1  0.08134769  0.41049898  0.81475482  1
  O2-  O390  1  0.05603787  0.65024876  0.13440842  1
  O2-  O391  1  0.08638417  0.67241537  0.48426278  1
  O2-  O392  1  0.08310190  0.66687386  0.80640071  1
  O2-  O393  1  0.07574390  0.91774384  0.13772967  1
  O2-  O394  1  0.07451525  0.90493637  0.47412584  1
  O2-  O395  1  0.10155219  0.98055341  0.82642128  1
  O2-  O396  1  0.27593597  0.21470579  0.12818203  1
  O2-  O397  1  0.30717718  0.16311927  0.47514085  1
  O2-  O398  1  0.31887330  0.14998906  0.82471843  1
  O2-  O399  1  0.35882917  0.43293230  0.14692722  1
  O2-  O400  1  0.35932446  0.41682114  0.48272164  1
  O2-  O401  1  0.33859359  0.42038427  0.81423660  1
  O2-  O402  1  0.35201085  0.67367608  0.14490915  1
  O2-  O403  1  0.36133006  0.66773479  0.49255596  1
  O2-  O404  1  0.31920476  0.67262482  0.82757369  1
  O2-  O405  1  0.33460270  0.92868274  0.14865179  1
  O2-  O406  1  0.34113274  0.93052906  0.48787838  1
  O2-  O407  1  0.31794970  0.91528804  0.81748970  1
  O2-  O408  1  0.57422337  0.16457863  0.13408308  1
  O2-  O409  1  0.57609523  0.16721500  0.49609736  1
  O2-  O410  1  0.68059154  0.22178489  0.78685678  1
  O2-  O411  1  0.58741441  0.41031217  0.15238758  1
  O2-  O412  1  0.58267056  0.41824309  0.52568209  1
  O2-  O413  1  0.56768475  0.41566565  0.80356725  1
  O2-  O414  1  0.58491516  0.64887686  0.12691383  1
  O2-  O415  1  0.62269060  0.68297148  0.46365086  1
  O2-  O416  1  0.57621662  0.66569524  0.82925457  1
  O2-  O417  1  0.58517032  0.91013361  0.14613530  1
  O2-  O418  1  0.58126109  0.91219165  0.47713151  1
  O2-  O419  1  0.55134821  0.92809855  0.82224562  1
  O2-  O420  1  0.83006824  0.14865087  0.14386449  1
  O2-  O421  1  0.86669437  0.18921148  0.51872616  1
  O2-  O422  1  0.83480002  0.15910339  0.81281084  1
  O2-  O423  1  0.83563504  0.43240985  0.11681489  1
  O2-  O424  1  0.84919053  0.40824835  0.46767000  1
  O2-  O425  1  0.83745812  0.41733354  0.80296632  1
  O2-  O426  1  0.81559070  0.66727633  0.14509986  1
  O2-  O427  1  0.84535151  0.66941458  0.48090258  1
  O2-  O428  1  0.82512611  0.66790696  0.82022118  1
  O2-  O429  1  0.83561159  0.90436903  0.13400636  1
  O2-  O430  1  0.85687847  0.92785149  0.47584068  1
  O2-  O431  1  0.82858451  0.91041888  0.81163897  1
  O2-  O432  1  0.14614369  0.07908938  0.17595545  1
  O2-  O433  1  0.14563375  0.07920382  0.50474206  1
  O2-  O434  1  0.15170208  0.07284849  0.81408376  1
  O2-  O435  1  0.19319035  0.30969646  0.14732456  1
  O2-  O436  1  0.14419951  0.31392904  0.49656444  1
  O2-  O437  1  0.17044249  0.33325453  0.85408505  1
  O2-  O438  1  0.20021206  0.56537978  0.19627909  1
  O2-  O439  1  0.14403606  0.57391344  0.52649698  1
  O2-  O440  1  0.19009192  0.53763405  0.88593258  1
  O2-  O441  1  0.16844943  0.77415620  0.21439577  1
  O2-  O442  1  0.17517137  0.84373843  0.52746713  1
  O2-  O443  1  0.15522016  0.81195301  0.85571908  1
  O2-  O444  1  0.43117892  0.08850543  0.18958937  1
  O2-  O445  1  0.40612943  0.09155441  0.52598786  1
  O2-  O446  1  0.38149279  0.06671701  0.86590950  1
  O2-  O447  1  0.41747834  0.33429113  0.19007278  1
  O2-  O448  1  0.40955456  0.31784802  0.51705908  1
  O2-  O449  1  0.43206402  0.29524532  0.86711740  1
  O2-  O450  1  0.43446527  0.59148380  0.19102361  1
  O2-  O451  1  0.43666866  0.58037816  0.53228418  1
  O2-  O452  1  0.41175297  0.58361010  0.85523040  1
  O2-  O453  1  0.41848397  0.83534068  0.19123811  1
  O2-  O454  1  0.42515250  0.84482971  0.52737667  1
  O2-  O455  1  0.40832041  0.84075796  0.87602560  1
  O2-  O456  1  0.66373423  0.09008808  0.18086798  1
  O2-  O457  1  0.68192263  0.08557970  0.52272394  1
  O2-  O458  1  0.67229962  0.09237035  0.85543643  1
  O2-  O459  1  0.68017822  0.32869460  0.16860172  1
  O2-  O460  1  0.68647524  0.34251450  0.51636226  1
  O2-  O461  1  0.67331938  0.35264015  0.84469423  1
  O2-  O462  1  0.67220484  0.57836780  0.20752667  1
  O2-  O463  1  0.68337431  0.59456726  0.53151949  1
  O2-  O464  1  0.65484449  0.58116201  0.85865125  1
  O2-  O465  1  0.67703761  0.82447163  0.16266199  1
  O2-  O466  1  0.67444465  0.84145073  0.51697481  1
  O2-  O467  1  0.67507951  0.82759272  0.85380726  1
  O2-  O468  1  0.89553645  0.05518514  0.18723614  1
  O2-  O469  1  0.94096087  0.07540698  0.51923428  1
  O2-  O470  1  0.91543201  0.07607015  0.85388676  1
  O2-  O471  1  0.94012902  0.31014876  0.19052515  1
  O2-  O472  1  0.87599641  0.34870991  0.49072576  1
  O2-  O473  1  0.90893029  0.32731976  0.84893626  1
  O2-  O474  1  0.89151361  0.58044347  0.17680131  1
  O2-  O475  1  0.92600682  0.59638713  0.52360367  1
  O2-  O476  1  0.91454250  0.58331747  0.83915759  1
  O2-  O477  1  0.91306517  0.82795194  0.18980193  1
  O2-  O478  1  0.91697510  0.82947942  0.52086301  1
  O2-  O479  1  0.89223798  0.81912922  0.86962856  1
  O2-  O480  1  0.14488303  0.06639575  0.30109009  1
  O2-  O481  1  0.17455907  0.09020868  0.67075752  1
  O2-  O482  1  0.18649718  0.03934762  0.95625602  1
  O2-  O483  1  0.17307161  0.34668880  0.34048147  1
  O2-  O484  1  0.18534333  0.30768062  0.62381882  1
  O2-  O485  1  0.18087316  0.30822322  0.97611587  1
  O2-  O486  1  0.22383957  0.60333897  0.30792835  1
  O2-  O487  1  0.16078361  0.58164446  0.65586785  1
  O2-  O488  1  0.13401708  0.55084291  1.00271364  1
  O2-  O489  1  0.19495901  0.87146078  0.32751655  1
  O2-  O490  1  0.15817837  0.83959399  0.65251124  1
  O2-  O491  1  0.15360300  0.82326333  0.98201144  1
  O2-  O492  1  0.41188132  0.09391506  0.30453398  1
  O2-  O493  1  0.41365516  0.08126732  0.64883845  1
  O2-  O494  1  0.40010315  0.06822734  0.98282624  1
  O2-  O495  1  0.41616967  0.32004261  0.31325605  1
  O2-  O496  1  0.41781314  0.32250561  0.64812639  1
  O2-  O497  1  0.40403370  0.33128745  0.98231647  1
  O2-  O498  1  0.42839908  0.56072287  0.31575658  1
  O2-  O499  1  0.41276027  0.57754460  0.64547753  1
  O2-  O500  1  0.39329136  0.57840781  0.97876671  1
  O2-  O501  1  0.39471906  0.84330613  0.30569360  1
  O2-  O502  1  0.41147426  0.83487969  0.65110541  1
  O2-  O503  1  0.38381069  0.82253853  0.98787319  1
  O2-  O504  1  0.64918551  0.16340227  0.29519260  1
  O2-  O505  1  0.66835510  0.07153611  0.64659105  1
  O2-  O506  1  0.66513952  0.09084901  0.97839140  1
  O2-  O507  1  0.70263950  0.32943500  0.28866074  1
  O2-  O508  1  0.68014170  0.34003440  0.63990303  1
  O2-  O509  1  0.64067262  0.32709999  0.96707639  1
  O2-  O510  1  0.67847573  0.57452078  0.32840462  1
  O2-  O511  1  0.67878331  0.59790078  0.66085162  1
  O2-  O512  1  0.64268678  0.57774483  1.03363162  1
  O2-  O513  1  0.64409074  0.79955430  0.31853920  1
  O2-  O514  1  0.66413404  0.85340601  0.64569610  1
  O2-  O515  1  0.70886735  0.87824862  0.95909017  1
  O2-  O516  1  0.92993847  0.08803032  0.30846712  1
  O2-  O517  1  0.92503757  0.07919799  0.64903137  1
  O2-  O518  1  0.91654442  0.08299060  0.97824266  1
  O2-  O519  1  0.95189742  0.35120947  0.31514833  1
  O2-  O520  1  0.90600338  0.30767259  0.63344123  1
  O2-  O521  1  0.92764360  0.32601293  0.97613549  1
  O2-  O522  1  0.86917580  0.56714991  0.30075201  1
  O2-  O523  1  0.90701213  0.56654713  0.65237508  1
  O2-  O524  1  0.90234611  0.58945189  0.96089641  1
  O2-  O525  1  0.91272622  0.82923640  0.31244654  1
  O2-  O526  1  0.92120705  0.84240161  0.64552870  1
  O2-  O527  1  0.89542440  0.85034213  0.99658325  1
  O2-  O528  1  0.03758267  0.20866834  0.04879927  1
  O2-  O529  1  0.05898322  0.16558909  0.38695292  1
  O2-  O530  1  0.08610948  0.16857711  0.68896434  1
  O2-  O531  1  0.07935151  0.46249191  0.02651195  1
  O2-  O532  1  0.11299412  0.45186925  0.36316247  1
  O2-  O533  1  0.06700966  0.42186579  0.68998964  1
  O2-  O534  1  0.06257360  0.65201987  0.00993663  1
  O2-  O535  1  0.09453316  0.68947437  0.35320854  1
  O2-  O536  1  0.07924659  0.66920463  0.68488825  1
  O2-  O537  1  0.06276982  0.90624504  0.01185359  1
  O2-  O538  1  0.07806451  0.91546909  0.35339693  1
  O2-  O539  1  0.07720458  0.91960254  0.70347603  1
  O2-  O540  1  0.32120253  0.16396150  0.01975409  1
  O2-  O541  1  0.31556940  0.15800474  0.34752259  1
  O2-  O542  1  0.34515758  0.16898160  0.70230436  1
  O2-  O543  1  0.33080917  0.41997112  0.02376903  1
  O2-  O544  1  0.33936152  0.39802075  0.36646517  1
  O2-  O545  1  0.33767027  0.40740545  0.68690339  1
  O2-  O546  1  0.31205546  0.66196853  0.02677555  1
  O2-  O547  1  0.37507636  0.66409393  0.36707543  1
  O2-  O548  1  0.33736048  0.66047732  0.68014729  1
  O2-  O549  1  0.31368289  0.90931881  0.02713874  1
  O2-  O550  1  0.34786938  0.93063464  0.36493972  1
  O2-  O551  1  0.32346025  0.91292082  0.69455326  1
  O2-  O552  1  0.57210935  0.16236545  0.01342248  1
  O2-  O553  1  0.54968547  0.19464790  0.37575236  1
  O2-  O554  1  0.58437825  0.16580333  0.64141934  1
  O2-  O555  1  0.56258690  0.40128911  0.02785330  1
  O2-  O556  1  0.57940005  0.36100615  0.33888410  1
  O2-  O557  1  0.59228348  0.42347632  0.64875727  1
  O2-  O558  1  0.56459339  0.67196469  0.01416146  1
  O2-  O559  1  0.59812883  0.64578966  0.35329113  1
  O2-  O560  1  0.56382455  0.64411760  0.71300253  1
  O2-  O561  1  0.60770517  0.91984698  0.01679172  1
  O2-  O562  1  0.51387718  0.82564654  0.36180749  1
  O2-  O563  1  0.57636631  0.91868955  0.69668431  1
  O2-  O564  1  0.83363685  0.16392806  0.01626988  1
  O2-  O565  1  0.89797181  0.21222332  0.39225200  1
  O2-  O566  1  0.83214959  0.14843004  0.68736696  1
  O2-  O567  1  0.80501183  0.42880484  0.00627080  1
  O2-  O568  1  0.84934064  0.41602190  0.34494072  1
  O2-  O569  1  0.83832746  0.40309670  0.68253392  1
  O2-  O570  1  0.82337111  0.67026077  0.01986857  1
  O2-  O571  1  0.83454729  0.66806392  0.35933646  1
  O2-  O572  1  0.85260790  0.68933782  0.70534434  1
  O2-  O573  1  0.86610306  0.90974914  0.01628501  1
  O2-  O574  1  0.83332326  0.91480304  0.35582891  1
  O2-  O575  1  0.83145832  0.91419395  0.69118082  1
