# generated using pymatgen
data_H2O
_symmetry_space_group_name_H-M   'P 1'
_cell_length_a   17.99484943
_cell_length_b   17.99125264
_cell_length_c   22.00297739
_cell_angle_alpha   90.00686455
_cell_angle_beta   90.01032820
_cell_angle_gamma   119.99227325
_symmetry_Int_Tables_number   1
_chemical_formula_structural   H2O
_chemical_formula_sum   'H384 O192'
_cell_volume   6169.57846871
_cell_formula_units_Z   192
loop_
 _symmetry_equiv_pos_site_id
 _symmetry_equiv_pos_as_xyz
  1  'x, y, z'
loop_
 _atom_type_symbol
 _atom_type_oxidation_number
  H+  1.0
  O2-  -2.0
loop_
 _atom_site_type_symbol
 _atom_site_label
 _atom_site_symmetry_multiplicity
 _atom_site_fract_x
 _atom_site_fract_y
 _atom_site_fract_z
 _atom_site_occupancy
  H+  H0  1  0.88045631  0.14157334  0.68346868  1
  H+  H1  1  0.86704598  0.63852338  0.33723075  1
  H+  H2  1  0.92600661  0.58874814  0.90354110  1
  H+  H3  1  0.39035570  0.53343338  0.32464773  1
  H+  H4  1  0.40647077  0.28654219  0.31875767  1
  H+  H5  1  0.02122969  0.63953627  0.16064311  1
  H+  H6  1  0.23459382  0.62768999  0.32433312  1
  H+  H7  1  0.09150885  0.65961838  0.76811732  1
  H+  H8  1  0.38692438  0.51419108  0.17206861  1
  H+  H9  1  0.77460031  0.63313383  0.34142594  1
  H+  H10  1  0.35299661  0.81711339  0.87603850  1
  H+  H11  1  0.35525550  0.57974565  0.52639914  1
  H+  H12  1  0.88467992  0.10521975  0.84368215  1
  H+  H13  1  0.38123554  0.36605969  0.99398230  1
  H+  H14  1  0.97509148  0.62069031  0.32263257  1
  H+  H15  1  0.68783679  0.08287274  0.59946967  1
  H+  H16  1  0.13120033  0.27574831  0.50298039  1
  H+  H17  1  0.87773737  0.77019483  0.50508625  1
  H+  H18  1  0.65139980  0.62193797  0.66114194  1
  H+  H19  1  0.62417269  0.38817783  0.67945379  1
  H+  H20  1  0.96326041  0.33947518  0.51424981  1
  H+  H21  1  0.98887476  0.61270133  0.84582161  1
  H+  H22  1  0.38425729  0.88857531  0.33981455  1
  H+  H23  1  0.39749903  0.50697109  0.66463514  1
  H+  H24  1  0.36585712  0.89683892  0.15878411  1
  H+  H25  1  0.42963533  0.26935482  0.50854530  1
  H+  H26  1  0.74232364  0.84836472  0.84858975  1
  H+  H27  1  0.26631754  0.63554460  0.67553068  1
  H+  H28  1  0.14200138  0.53213971  0.16897773  1
  H+  H29  1  0.52084515  0.63034334  0.16474656  1
  H+  H30  1  0.71875534  0.76578421  0.88710857  1
  H+  H31  1  0.10837539  0.87957068  0.67181408  1
  H+  H32  1  0.14342663  0.12239529  0.16556638  1
  H+  H33  1  0.87381534  0.25238699  0.50965997  1
  H+  H34  1  0.62589476  0.33411041  0.00106916  1
  H+  H35  1  0.13048993  0.71813758  0.82810919  1
  H+  H36  1  0.87899168  0.47372015  0.49894508  1
  H+  H37  1  0.60653769  0.87871271  0.15873796  1
  H+  H38  1  0.63629857  1.10811139  0.83624276  1
  H+  H39  1  0.35166761  -0.01994550  0.67034349  1
  H+  H40  1  0.72872580  0.10130475  0.98233566  1
  H+  H41  1  0.07544834  0.45957362  0.51926577  1
  H+  H42  1  0.63009477  0.76330759  0.32366802  1
  H+  H43  1  0.11739652  0.35432328  0.36711855  1
  H+  H44  1  0.35101620  0.36753347  0.67289385  1
  H+  H45  1  0.88782986  0.11296353  -0.00492961  1
  H+  H46  1  0.88657270  0.26894781  0.67148725  1
  H+  H47  1  0.37507326  1.01560999  0.17953276  1
  H+  H48  1  0.37886174  0.10842339  0.18587643  1
  H+  H49  1  0.33562082  0.20885595  0.67633197  1
  H+  H50  1  0.51474131  0.12851171  0.18823970  1
  H+  H51  1  0.25275913  0.65466512  0.49970309  1
  H+  H52  1  0.56137092  0.13060584  0.66305499  1
  H+  H53  1  0.21897995  0.35502090  0.98739637  1
  H+  H54  1  0.03727499  0.89777690  0.00901835  1
  H+  H55  1  0.75283432  0.66362909  -0.01668947  1
  H+  H56  1  0.73940548  0.35444799  0.50339464  1
  H+  H57  1  0.88563310  0.61357340  -0.00554125  1
  H+  H58  1  0.76746684  0.89122786  0.49992050  1
  H+  H59  1  0.56884943  0.42227225  0.64423488  1
  H+  H60  1  0.36852977  0.74450620  0.85031351  1
  H+  H61  1  0.03724010  0.39000652  0.16032040  1
  H+  H62  1  0.38299321  0.77704655  0.32535058  1
  H+  H63  1  0.35065152  0.62030437  0.81547158  1
  H+  H64  1  0.65590229  1.02363851  0.66022852  1
  H+  H65  1  0.13393439  0.60975706  0.65657909  1
  H+  H66  1  0.41898027  0.56365847  0.87351437  1
  H+  H67  1  0.88495726  0.11698403  0.17146706  1
  H+  H68  1  0.73650649  0.37414365  0.67696765  1
  H+  H69  1  0.15346437  0.78066682  0.50471266  1
  H+  H70  1  0.64234540  0.11218635  0.50777144  1
  H+  H71  1  0.10476201  0.63740357  0.00915074  1
  H+  H72  1  0.04349949  0.03388899  0.27032143  1
  H+  H73  1  0.07844099  0.32360244  0.34909465  1
  H+  H74  1  0.26673916  0.35926591  0.30953101  1
  H+  H75  1  0.11111462  0.78472482  0.17122692  1
  H+  H76  1  0.10759169  0.13421963  1.00758978  1
  H+  H77  1  0.02017775  0.13857407  0.50274571  1
  H+  H78  1  0.94956177  0.41923151  0.19899242  1
  H+  H79  1  0.15332898  0.31524142  0.88799898  1
  H+  H80  1  0.36165609  0.99172288  0.00822146  1
  H+  H81  1  0.59758601  0.12575946  0.35271712  1
  H+  H82  1  0.13223811  0.50004713  0.83007702  1
  H+  H83  1  0.12464207  0.65374779  0.49265606  1
  H+  H84  1  0.89387455  0.82295259  0.27328888  1
  H+  H85  1  0.12417131  0.89521910  0.00020489  1
  H+  H86  1  0.00235141  0.87563986  0.48924399  1
  H+  H87  1  0.01490141  0.38576862  0.67916284  1
  H+  H88  1  0.12808395  0.26203548  0.82352941  1
  H+  H89  1  0.64614193  0.87076609  1.00044117  1
  H+  H90  1  0.13051336  0.26663932  -0.01056775  1
  H+  H91  1  0.39021449  0.83108769  0.58963009  1
  H+  H92  1  0.64876830  0.38168687  0.84400130  1
  H+  H93  1  0.62056703  0.51087332  0.18261762  1
  H+  H94  1  0.47985984  0.82909770  1.00607362  1
  H+  H95  1  0.35235720  0.47452565  0.01562141  1
  H+  H96  1  0.13612343  0.77624533  0.99475187  1
  H+  H97  1  0.70212504  0.36342662  0.15921287  1
  H+  H98  1  0.38218446  0.13211081  -0.00072238  1
  H+  H99  1  0.88415406  0.34469912  0.34056542  1
  H+  H100  1  0.37353510  0.50170089  0.81928321  1
  H+  H101  1  0.13761954  0.60204475  0.83232732  1
  H+  H102  1  0.52847542  0.65072019  0.01426456  1
  H+  H103  1  0.06559497  0.19029180  0.35526941  1
  H+  H104  1  0.77756382  0.89796128  0.01352607  1
  H+  H105  1  0.14447941  0.36389160  0.17177238  1
  H+  H106  1  0.97589398  0.83350511  0.16569255  1
  H+  H107  1  0.26307921  0.14158452  0.01390137  1
  H+  H108  1  0.37167620  0.27315925  0.99627093  1
  H+  H109  1  0.27813363  0.64650737  0.16271486  1
  H+  H110  1  0.65832187  0.36171217  0.33423752  1
  H+  H111  1  0.61472808  0.62670570  0.33386584  1
  H+  H112  1  0.37082924  0.98218516  0.82147613  1
  H+  H113  1  0.88015504  0.51827649  0.16757560  1
  H+  H114  1  0.70970167  0.09539656  0.33327769  1
  H+  H115  1  0.62371348  0.12337199  -0.00020830  1
  H+  H116  1  0.12576678  0.36285683  0.49532401  1
  H+  H117  1  0.12943856  1.02442411  0.83767859  1
  H+  H118  1  0.62038427  0.27155403  0.17513837  1
  H+  H119  1  0.12667801  0.51904142  -0.00285435  1
  H+  H120  1  0.25044886  0.38260525  0.48111873  1
  H+  H121  1  0.09373960  0.08931953  0.53274405  1
  H+  H122  1  0.02016741  0.13525691  0.16266289  1
  H+  H123  1  0.47832474  0.61952999  0.31964635  1
  H+  H124  1  0.88020424  0.60609764  0.16561809  1
  H+  H125  1  0.40577472  0.92087119  0.80257490  1
  H+  H126  1  0.23184942  0.60200396  0.82981569  1
  H+  H127  1  0.96621626  0.78617681  0.22424703  1
  H+  H128  1  0.26128452  0.37084765  0.82381526  1
  H+  H129  1  0.58492504  0.66444758  0.10807496  1
  H+  H130  1  0.87011010  -0.00714581  1.01348196  1
  H+  H131  1  0.38223557  0.26940240  0.84171479  1
  H+  H132  1  0.37934851  0.11117627  0.83513216  1
  H+  H133  1  0.34763061  0.35448262  0.15474864  1
  H+  H134  1  0.83958044  0.66436095  0.43368872  1
  H+  H135  1  0.36658383  0.85914645  0.65113830  1
  H+  H136  1  0.13895192  1.02757584  -0.00669252  1
  H+  H137  1  0.97766920  0.87500515  0.85237129  1
  H+  H138  1  0.34022125  0.68680133  0.39762830  1
  H+  H139  1  0.88993590  0.86901018  0.66063388  1
  H+  H140  1  0.87141259  0.37991983  0.50504269  1
  H+  H141  1  0.38498271  0.70253890  0.49187565  1
  H+  H142  1  0.42951568  0.35689663  0.52206235  1
  H+  H143  1  0.89678609  0.61743309  0.66190077  1
  H+  H144  1  0.30217365  0.87384707  0.50014780  1
  H+  H145  1  0.54543837  0.39223164  0.34130251  1
  H+  H146  1  0.63606767  1.02017901  0.50548347  1
  H+  H147  1  0.28832105  0.15279497  0.33182185  1
  H+  H148  1  0.72016438  0.09805759  0.83459562  1
  H+  H149  1  0.85811898  0.23130570  0.15094790  1
  H+  H150  1  0.26606980  0.13442264  0.83030169  1
  H+  H151  1  0.38038981  0.98631453  0.34607886  1
  H+  H152  1  0.27630810  0.90187303  1.00867310  1
  H+  H153  1  0.51532792  0.63288234  0.81068519  1
  H+  H154  1  0.63064089  0.60416984  0.17704363  1
  H+  H155  1  0.36431154  0.64205760  0.16052009  1
  H+  H156  1  0.76505606  0.89029056  0.15806990  1
  H+  H157  1  0.60462692  0.87320876  0.34058191  1
  H+  H158  1  0.61490862  0.96849513  0.00239084  1
  H+  H159  1  0.86866633  0.76279868  0.33226041  1
  H+  H160  1  0.86446853  0.22472960  -0.00361277  1
  H+  H161  1  0.11529262  0.72311554  0.67571584  1
  H+  H162  1  0.77318969  0.13925632  0.14875647  1
  H+  H163  1  0.36708949  0.64766362  0.33946460  1
  H+  H164  1  0.11555641  1.00929181  0.68318545  1
  H+  H165  1  0.33112947  0.36871407  0.48387310  1
  H+  H166  1  0.49312848  0.88396569  0.82122872  1
  H+  H167  1  -0.02221614  0.11167259  0.00007031  1
  H+  H168  1  0.89629369  0.61270757  0.50734308  1
  H+  H169  1  0.60534145  0.42379294  0.40048995  1
  H+  H170  1  0.47668456  0.86135480  0.32792305  1
  H+  H171  1  0.78232559  0.63510430  0.49412803  1
  H+  H172  1  0.64631970  0.52201317  0.32851251  1
  H+  H173  1  0.01815306  0.87937433  0.67208485  1
  H+  H174  1  0.39014271  0.77805859  0.17156518  1
  H+  H175  1  0.03251689  0.64828806  0.49684699  1
  H+  H176  1  0.49550873  0.63601984  0.48891530  1
  H+  H177  1  0.63503802  0.76981161  0.17456353  1
  H+  H178  1  0.13193010  0.86324888  0.30475631  1
  H+  H179  1  0.88905390  0.02613317  0.51721754  1
  H+  H180  1  0.93065989  0.34255118  0.24093887  1
  H+  H181  1  0.94379868  0.29422782  0.33931791  1
  H+  H182  1  0.10573906  0.47437145  0.67409350  1
  H+  H183  1  0.83764927  0.91923380  0.73545160  1
  H+  H184  1  0.63527453  0.50741486  -0.01002896  1
  H+  H185  1  0.86840351  0.38990756  0.67995516  1
  H+  H186  1  0.13049232  0.77733631  0.31226257  1
  H+  H187  1  0.55427621  0.38806419  0.49964941  1
  H+  H188  1  0.18205253  0.88090570  0.50660352  1
  H+  H189  1  0.36942193  0.78936875  0.48614461  1
  H+  H190  1  0.54269300  0.12692023  0.02450628  1
  H+  H191  1  0.51859505  0.88362275  0.15770904  1
  H+  H192  1  0.87320785  0.85873513  0.50586235  1
  H+  H193  1  0.68231077  0.83419582  0.94573966  1
  H+  H194  1  0.64429245  0.77397182  0.66157263  1
  H+  H195  1  0.18629423  0.26615886  0.31808585  1
  H+  H196  1  0.88669453  0.36339595  0.84172462  1
  H+  H197  1  0.62722121  0.86790163  0.51339506  1
  H+  H198  1  0.17598964  0.56190858  0.48705630  1
  H+  H199  1  0.06152191  0.83958649  0.47281990  1
  H+  H200  1  0.03149692  0.14212613  0.70925053  1
  H+  H201  1  0.41035619  0.32963220  0.90128691  1
  H+  H202  1  0.61730976  0.88109708  0.84214197  1
  H+  H203  1  0.63508065  0.48255278  0.49592295  1
  H+  H204  1  0.71546229  0.85516938  0.33071841  1
  H+  H205  1  0.58180255  0.36981381  0.17519664  1
  H+  H206  1  0.10955989  0.22513715  0.15849550  1
  H+  H207  1  0.63759586  1.00916270  0.16312613  1
  H+  H208  1  0.78067579  0.39603976  0.83161105  1
  H+  H209  1  0.83642138  0.37386287  0.15537857  1
  H+  H210  1  0.25829274  0.15453156  0.54226727  1
  H+  H211  1  0.11184968  0.12236391  0.70815867  1
  H+  H212  1  0.90322015  0.66165765  0.82672382  1
  H+  H213  1  0.87696901  0.73566383  0.67146402  1
  H+  H214  1  0.64654028  0.25980446  0.99173981  1
  H+  H215  1  0.60256914  0.96242520  0.34319160  1
  H+  H216  1  0.61800202  0.74000531  0.01656255  1
  H+  H217  1  0.13840102  0.54821144  0.33009464  1
  H+  H218  1  0.77181538  0.38207272  1.00231930  1
  H+  H219  1  0.60375160  0.88235818  0.87423213  1
  H+  H220  1  0.65273140  0.52493062  1.02125855  1
  H+  H221  1  0.62422061  0.22695265  0.49688253  1
  H+  H222  1  0.40044520  0.14247267  0.48074643  1
  H+  H223  1  0.51842635  0.38926921  0.83061532  1
  H+  H224  1  0.90501235  1.03017446  0.67350308  1
  H+  H225  1  0.51234985  0.89676034  0.49133385  1
  H+  H226  1  0.01000303  0.80131045  0.80582767  1
  H+  H227  1  0.02310478  0.38046206  0.00768181  1
  H+  H228  1  0.62227998  0.61127687  0.83880670  1
  H+  H229  1  0.02631896  0.63421079  0.67563335  1
  H+  H230  1  0.60803170  0.71782122  0.82447608  1
  H+  H231  1  0.85583238  -0.01520116  0.16105690  1
  H+  H232  1  0.25761999  0.11270397  0.53900524  1
  H+  H233  1  0.40430633  0.01428312  0.51391335  1
  H+  H234  1  0.53367721  0.13625805  0.50389135  1
  H+  H235  1  -0.00047648  0.87465508  0.33659827  1
  H+  H236  1  0.12309965  0.35000679  0.66506042  1
  H+  H237  1  0.08761524  -0.00113852  0.31517181  1
  H+  H238  1  0.46242104  0.33404729  0.67905788  1
  H+  H239  1  0.83930584  0.09998429  0.32799500  1
  H+  H240  1  0.97547618  0.61565471  0.99915256  1
  H+  H241  1  0.85689543  0.71209176  0.16124672  1
  H+  H242  1  0.88739886  0.36051328  0.99331105  1
  H+  H243  1  0.87196103  0.73901448  0.00986116  1
  H+  H244  1  0.85823783  -0.02275264  0.82970973  1
  H+  H245  1  0.44748827  0.12750407  0.66465480  1
  H+  H246  1  0.86600021  0.89285058  0.82858728  1
  H+  H247  1  0.64700031  0.61597188  0.51176414  1
  H+  H248  1  0.36943837  0.50454573  0.50424307  1
  H+  H249  1  0.11414678  0.38258068  0.82316181  1
  H+  H250  1  0.78154435  0.89323260  0.67476199  1
  H+  H251  1  0.82926857  0.19113065  0.32916643  1
  H+  H252  1  0.47180604  0.10890149  0.33431525  1
  H+  H253  1  0.24111224  0.85841142  0.83630575  1
  H+  H254  1  0.76415009  0.62612651  0.15721238  1
  H+  H255  1  0.39223077  0.40655034  0.33897074  1
  H+  H256  1  0.62131520  0.89282461  0.67836768  1
  H+  H257  1  0.53331765  0.62586809  0.66556557  1
  H+  H258  1  0.22208402  0.86239638  0.66407513  1
  H+  H259  1  0.65595109  0.66029766  0.98511119  1
  H+  H260  1  0.83801995  0.16247099  0.77234888  1
  H+  H261  1  0.78774221  0.13368560  0.67523772  1
  H+  H262  1  0.14559869  0.84548533  0.83453595  1
  H+  H263  1  0.10000758  0.00396328  0.53386782  1
  H+  H264  1  0.83795928  0.96676722  0.33970183  1
  H+  H265  1  0.65545598  0.36094314  0.49869573  1
  H+  H266  1  0.84365803  0.87977626  0.34559374  1
  H+  H267  1  0.83833048  0.38880339  0.40907102  1
  H+  H268  1  0.78997108  0.64684705  0.67682587  1
  H+  H269  1  0.86052194  0.47345587  0.00342867  1
  H+  H270  1  0.11195270  0.38079163  0.00348516  1
  H+  H271  1  0.35259820  0.10670996  0.66054659  1
  H+  H272  1  0.65148089  0.28248800  0.67271408  1
  H+  H273  1  0.76926826  0.12500129  0.49084825  1
  H+  H274  1  0.39495080  0.59666679  0.95824755  1
  H+  H275  1  0.60270707  0.13150457  0.17291828  1
  H+  H276  1  0.86135420  0.21905578  0.83232701  1
  H+  H277  1  0.49899250  0.34966686  0.01837760  1
  H+  H278  1  0.63944636  0.26598176  0.33797283  1
  H+  H279  1  0.87313388  0.48130359  0.83242404  1
  H+  H280  1  0.10260825  0.12797825  0.34147980  1
  H+  H281  1  0.65126960  0.14058670  0.67073862  1
  H+  H282  1  0.77320379  0.35354448  0.34989629  1
  H+  H283  1  0.11417644  0.64871743  0.16143360  1
  H+  H284  1  0.00702959  0.42431830  0.35259622  1
  H+  H285  1  0.35291391  0.37306865  0.82810543  1
  H+  H286  1  0.52725929  0.13113208  0.81981413  1
  H+  H287  1  0.89783673  0.87583024  1.00521536  1
  H+  H288  1  0.91501985  0.07273789  0.90076523  1
  H+  H289  1  0.07842539  0.16464875  0.06761659  1
  H+  H290  1  0.59200745  0.66594955  0.72416904  1
  H+  H291  1  0.08952251  0.16167005  0.44867241  1
  H+  H292  1  0.38467621  0.68515517  0.02193107  1
  H+  H293  1  0.45064583  0.35674794  0.26692074  1
  H+  H294  1  0.84542315  0.42555746  0.73969919  1
  H+  H295  1  0.01834455  0.51062663  0.37947854  1
  H+  H296  1  0.57771370  0.65481091  0.39081565  1
  H+  H297  1  0.33600728  0.93182846  0.10310032  1
  H+  H298  1  0.42123874  0.84237988  0.22818378  1
  H+  H299  1  0.20660994  0.34573449  0.65965939  1
  H+  H300  1  0.41267943  0.78696271  0.95323842  1
  H+  H301  1  0.09219717  0.41649309  0.09918009  1
  H+  H302  1  0.36865861  0.13859978  0.33261417  1
  H+  H303  1  0.65916263  0.53691995  0.66636276  1
  H+  H304  1  0.67489857  0.34328117  0.89984387  1
  H+  H305  1  0.93262159  0.08978333  0.32543100  1
  H+  H306  1  0.42414902  0.56380805  0.60518862  1
  H+  H307  1  0.37410262  0.18542720  0.42571726  1
  H+  H308  1  0.41205831  0.57734861  0.22938372  1
  H+  H309  1  0.18152653  0.32453265  0.22428391  1
  H+  H310  1  0.16854725  0.59160378  0.22831330  1
  H+  H311  1  0.12943896  0.11299957  0.82565798  1
  H+  H312  1  0.67077501  0.58021710  0.26798568  1
  H+  H313  1  0.47333214  0.16385914  0.97161705  1
  H+  H314  1  0.88699527  0.11252054  0.51315999  1
  H+  H315  1  0.57974698  0.42739210  0.77306224  1
  H+  H316  1  0.70088634  0.05733571  0.21682526  1
  H+  H317  1  0.58758172  0.91404693  0.06554873  1
  H+  H318  1  0.33218342  0.92139596  0.72960048  1
  H+  H319  1  0.92207834  0.84602130  0.94363014  1
  H+  H320  1  0.83052244  0.92900835  0.08825071  1
  H+  H321  1  0.56804290  0.97988318  0.81365745  1
  H+  H322  1  0.91439146  0.58874067  0.26425193  1
  H+  H323  1  0.08655532  0.67532120  0.39764620  1
  H+  H324  1  0.16895272  0.82867682  0.60335721  1
  H+  H325  1  0.59028097  0.41633912  0.04294999  1
  H+  H326  1  0.16301097  0.08941844  0.93490136  1
  H+  H327  1  0.83329992  0.16699861  0.05577255  1
  H+  H328  1  0.89681176  0.78722403  0.84827649  1
  H+  H329  1  0.11969804  0.65004206  0.33682797  1
  H+  H330  1  0.42738156  0.31196803  0.61117440  1
  H+  H331  1  0.32001305  0.16054920  0.76954210  1
  H+  H332  1  0.63760772  0.07742785  0.28140002  1
  H+  H333  1  0.57393182  0.90885798  0.43540368  1
  H+  H334  1  0.52986024  0.39189678  0.12915783  1
  H+  H335  1  0.32286655  0.39927623  0.73091107  1
  H+  H336  1  0.97438038  0.36132173  0.84054284  1
  H+  H337  1  0.66489541  0.06741543  0.92436084  1
  H+  H338  1  0.62783447  0.78050290  0.51260689  1
  H+  H339  1  0.17047856  0.58657282  0.59746153  1
  H+  H340  1  0.82362390  0.91805603  0.43950482  1
  H+  H341  1  0.56832832  0.92324760  0.72137617  1
  H+  H342  1  0.08274511  0.41800577  0.76490364  1
  H+  H343  1  0.17249713  0.83051182  0.93356694  1
  H+  H344  1  0.91465775  0.83737888  0.59897226  1
  H+  H345  1  0.82496625  0.66871554  0.06298284  1
  H+  H346  1  0.59430804  0.16096285  0.76522576  1
  H+  H347  1  0.16290581  0.08112659  0.22215079  1
  H+  H348  1  0.43322596  0.29640872  0.17686115  1
  H+  H349  1  0.91856056  0.33300268  0.93355379  1
  H+  H350  1  0.89737646  0.07696647  0.23424957  1
  H+  H351  1  0.05825768  0.44180219  0.44742993  1
  H+  H352  1  0.52876290  0.71526427  0.44613607  1
  H+  H353  1  0.66373972  0.83118209  0.23256868  1
  H+  H354  1  0.32430510  0.17707762  0.07390403  1
  H+  H355  1  0.87647390  0.69382330  0.76577526  1
  H+  H356  1  0.06722878  0.91134751  0.39045858  1
  H+  H357  1  0.57331935  0.16137548  0.41059650  1
  H+  H358  1  0.36534519  0.92125561  0.40831191  1
  H+  H359  1  0.67056518  0.83939761  0.60674186  1
  H+  H360  1  0.94530558  0.09748173  0.61968661  1
  H+  H361  1  0.89447805  0.52652426  0.66392794  1
  H+  H362  1  0.27213951  0.14948598  0.16738679  1
  H+  H363  1  0.24174420  0.12146781  0.68099699  1
  H+  H364  1  0.41092222  0.07723166  0.56778468  1
  H+  H365  1  0.15800706  0.57748806  0.93893125  1
  H+  H366  1  0.67914672  0.62200057  0.91686059  1
  H+  H367  1  0.09683708  0.88560061  0.09864888  1
  H+  H368  1  0.32570987  0.40581544  0.06826126  1
  H+  H369  1  0.92711780  0.58606189  0.56775916  1
  H+  H370  1  0.40810045  0.08189316  0.89400432  1
  H+  H371  1  0.08039916  0.67372750  0.06824362  1
  H+  H372  1  0.90852997  0.32095751  0.60942279  1
  H+  H373  1  0.26974455  0.37170330  0.15654720  1
  H+  H374  1  0.32228021  0.66374317  0.76054347  1
  H+  H375  1  0.40903946  0.07189571  0.27370288  1
  H+  H376  1  0.34893088  0.72857595  0.67328971  1
  H+  H377  1  0.82398015  0.41189215  0.09344452  1
  H+  H378  1  0.12088837  0.06531291  0.62565949  1
  H+  H379  1  0.62690757  0.52481383  0.85126626  1
  H+  H380  1  0.07002468  0.88089307  0.76521126  1
  H+  H381  1  0.34248305  0.42390931  0.39341651  1
  H+  H382  1  0.82637428  0.15126580  0.43054167  1
  H+  H383  1  0.67934542  0.59029686  0.57163002  1
  O2-  O384  1  0.07863430  0.16328699  0.14474012  1
  O2-  O385  1  0.08310823  0.16583774  0.49306135  1
  O2-  O386  1  0.08909861  0.16334375  0.79329078  1
  O2-  O387  1  0.09672339  0.42071608  0.14487232  1
  O2-  O388  1  0.06701221  0.41900475  0.48697086  1
  O2-  O389  1  0.08785439  0.41908874  0.81173777  1
  O2-  O390  1  0.08177644  0.67717589  0.14727989  1
  O2-  O391  1  0.09235973  0.68292300  0.47976091  1
  O2-  O392  1  0.09596601  0.65707544  0.81366995  1
  O2-  O393  1  0.05843319  0.83735648  0.12563994  1
  O2-  O394  1  0.06137789  0.89369261  0.47206419  1
  O2-  O395  1  0.06159723  0.85993940  0.80849351  1
  O2-  O396  1  0.33771664  0.18194563  0.15393428  1
  O2-  O397  1  0.39613892  0.19288587  0.46765364  1
  O2-  O398  1  0.32645480  0.16410051  0.81476701  1
  O2-  O399  1  0.33147813  0.39761856  0.14315676  1
  O2-  O400  1  0.31706580  0.41144155  0.46972458  1
  O2-  O401  1  0.32258449  0.40159984  0.80943698  1
  O2-  O402  1  0.34039030  0.67999270  0.15362185  1
  O2-  O403  1  0.34231448  0.71153453  0.47109056  1
  O2-  O404  1  0.31918888  0.65190478  0.80819446  1
  O2-  O405  1  0.33678634  0.92951606  0.14849866  1
  O2-  O406  1  0.36230858  0.90641931  0.48338184  1
  O2-  O407  1  0.35163929  0.92289812  0.80511200  1
  O2-  O408  1  0.57834688  0.16492790  0.18948874  1
  O2-  O409  1  0.59117401  0.16337947  0.48447682  1
  O2-  O410  1  0.58851721  0.15678291  0.80993266  1
  O2-  O411  1  0.53936538  0.39325998  0.17325828  1
  O2-  O412  1  0.60916513  0.42426241  0.47779892  1
  O2-  O413  1  0.57955661  0.42661192  0.81775066  1
  O2-  O414  1  0.58362067  0.66290617  0.15318834  1
  O2-  O415  1  0.54845863  0.68092751  0.46782113  1
  O2-  O416  1  0.57825747  0.66204129  0.80264874  1
  O2-  O417  1  0.58044606  0.91197740  0.14196932  1
  O2-  O418  1  0.57300851  0.91418251  0.48064820  1
  O2-  O419  1  0.51625037  0.93301994  0.79305096  1
  O2-  O420  1  0.83478766  0.17273019  0.13557920  1
  O2-  O421  1  0.83046206  0.15564417  0.47575164  1
  O2-  O422  1  0.83273559  0.15870654  0.81778355  1
  O2-  O423  1  0.81840120  0.41301167  0.13909652  1
  O2-  O424  1  0.84805863  0.41333370  0.48438941  1
  O2-  O425  1  0.84244692  0.42123744  0.81690284  1
  O2-  O426  1  0.82282338  0.65669569  0.13895809  1
  O2-  O427  1  0.84259512  0.66660976  0.47947229  1
  O2-  O428  1  0.90119152  0.71104624  0.80754608  1
  O2-  O429  1  0.82539349  0.92544359  0.14139123  1
  O2-  O430  1  0.82770337  0.91812803  0.48492704  1
  O2-  O431  1  0.82946135  0.91559573  0.81274142  1
  O2-  O432  1  0.17961402  0.09789005  0.17951862  1
  O2-  O433  1  0.08802104  0.04143067  0.55899493  1
  O2-  O434  1  0.15837197  0.08466800  0.84963770  1
  O2-  O435  1  0.16949994  0.32620684  0.17966028  1
  O2-  O436  1  0.16448994  0.33984399  0.50215263  1
  O2-  O437  1  0.15597302  0.32164360  0.84289379  1
  O2-  O438  1  0.16722391  0.59249649  0.18305458  1
  O2-  O439  1  0.19035842  0.61133174  0.51297476  1
  O2-  O440  1  0.16738459  0.56850377  0.84600552  1
  O2-  O441  1  0.11180456  0.84049611  0.17688511  1
  O2-  O442  1  0.19614376  0.83878186  0.52257214  1
  O2-  O443  1  0.18191470  0.82289792  0.85193807  1
  O2-  O444  1  0.40405384  0.07475444  0.20183327  1
  O2-  O445  1  0.42491428  0.07506694  0.52438386  1
  O2-  O446  1  0.40996463  0.08052673  0.84915818  1
  O2-  O447  1  0.36972296  0.26685775  0.18293151  1
  O2-  O448  1  0.45553935  0.32386422  0.53610974  1
  O2-  O449  1  0.41206979  0.33055558  0.85562822  1
  O2-  O450  1  0.41651109  0.57536715  0.18422033  1
  O2-  O451  1  0.39962369  0.56393947  0.52282748  1
  O2-  O452  1  0.40747919  0.56563566  0.83051346  1
  O2-  O453  1  0.42345567  0.84145979  0.18335347  1
  O2-  O454  1  0.40381478  0.85922805  0.50726553  1
  O2-  O455  1  0.39607853  0.79939776  0.87405866  1
  O2-  O456  1  0.67656971  0.06895689  0.18099616  1
  O2-  O457  1  0.67234334  0.08006727  0.52070901  1
  O2-  O458  1  0.65953137  0.06938060  0.84917837  1
  O2-  O459  1  0.64067923  0.33376376  0.16936360  1
  O2-  O460  1  0.67741675  0.32380402  0.51383861  1
  O2-  O461  1  0.68502366  0.35750021  0.85608357  1
  O2-  O462  1  0.66087371  0.57286906  0.19047066  1
  O2-  O463  1  0.67748785  0.58706881  0.52567740  1
  O2-  O464  1  0.65351398  0.58729285  0.86217719  1
  O2-  O465  1  0.66551805  0.83192594  0.18694255  1
  O2-  O466  1  0.66058402  0.84011304  0.52745167  1
  O2-  O467  1  0.69418031  0.80048873  0.87332157  1
  O2-  O468  1  0.90851950  0.08173708  0.18833015  1
  O2-  O469  1  0.91968013  0.08670856  0.53156223  1
  O2-  O470  1  0.90983855  0.06919038  0.85610324  1
  O2-  O471  1  0.93152257  0.35826510  0.19696301  1
  O2-  O472  1  0.90388438  0.31021154  0.53012234  1
  O2-  O473  1  0.91528153  0.33084900  0.85683108  1
  O2-  O474  1  0.91244342  0.57883043  0.18205091  1
  O2-  O475  1  0.92987538  0.58582040  0.52221378  1
  O2-  O476  1  0.92802000  0.58921124  0.85795973  1
  O2-  O477  1  0.93349851  0.80507659  0.19953474  1
  O2-  O478  1  0.90637088  0.83080404  0.52038889  1
  O2-  O479  1  0.91749367  0.84563040  0.86672045  1
  O2-  O480  1  0.09651109  0.05333543  0.29323674  1
  O2-  O481  1  0.13740152  0.07104604  0.67085491  1
  O2-  O482  1  0.16394712  0.08932193  0.97995893  1
  O2-  O483  1  0.21910032  0.31039026  0.28752182  1
  O2-  O484  1  0.14509102  0.31332727  0.64997663  1
  O2-  O485  1  0.15973891  0.32502074  0.97046302  1
  O2-  O486  1  0.17492931  0.60185570  0.30753914  1
  O2-  O487  1  0.16162682  0.57670787  0.64168929  1
  O2-  O488  1  0.14782496  0.57853062  0.98243626  1
  O2-  O489  1  0.15913020  0.83145387  0.28951966  1
  O2-  O490  1  0.16147958  0.82795298  0.64804739  1
  O2-  O491  1  0.16737178  0.83601601  0.97797759  1
  O2-  O492  1  0.41001563  0.07344252  0.32034071  1
  O2-  O493  1  0.39360721  0.08689252  0.64516173  1
  O2-  O494  1  0.41834464  0.11177514  0.97799468  1
  O2-  O495  1  0.44166013  0.34957174  0.31087340  1
  O2-  O496  1  0.40941316  0.30912628  0.65467540  1
  O2-  O497  1  0.40816754  0.33223792  0.97911320  1
  O2-  O498  1  0.41642557  0.59353322  0.30866739  1
  O2-  O499  1  0.43663658  0.56606796  0.64880625  1
  O2-  O500  1  0.41151903  0.59415504  1.00021593  1
  O2-  O501  1  0.41627567  0.83945800  0.31238956  1
  O2-  O502  1  0.38552445  0.82070197  0.63378287  1
  O2-  O503  1  0.42116293  0.78193340  0.99711466  1
  O2-  O504  1  0.64451603  0.06680634  0.32395777  1
  O2-  O505  1  0.69238283  0.08576937  0.64472470  1
  O2-  O506  1  0.66714214  0.06739417  0.97036706  1
  O2-  O507  1  0.68247426  0.32443131  0.32435888  1
  O2-  O508  1  0.67388244  0.34456056  0.66745255  1
  O2-  O509  1  0.66698801  0.32125877  0.98027341  1
  O2-  O510  1  0.67173805  0.58312633  0.31351339  1
  O2-  O511  1  0.68634650  0.59437056  0.64718186  1
  O2-  O512  1  0.70347136  0.66374419  0.95807139  1
  O2-  O513  1  0.65658221  0.82492983  0.31139027  1
  O2-  O514  1  0.67512551  0.83655420  0.65168391  1
  O2-  O515  1  0.68105292  0.84116630  0.99076616  1
  O2-  O516  1  0.87628427  0.06134612  0.30637769  1
  O2-  O517  1  0.94241469  0.09319413  0.66461086  1
  O2-  O518  1  0.91609529  0.07803391  0.98551029  1
  O2-  O519  1  0.93314928  0.33501519  0.31737875  1
  O2-  O520  1  0.91285197  0.32877004  0.65437086  1
  O2-  O521  1  0.91819136  0.33030903  0.97922419  1
  O2-  O522  1  0.91438253  0.59303706  0.30916630  1
  O2-  O523  1  0.92609844  0.58627782  0.64653877  1
  O2-  O524  1  0.91557420  0.58273192  0.98145431  1
  O2-  O525  1  0.89280889  0.82464906  0.31807838  1
  O2-  O526  1  0.91916905  0.83794080  0.64431045  1
  O2-  O527  1  0.92567287  0.84436183  0.98912785  1
  O2-  O528  1  0.07684300  0.16460916  0.02198612  1
  O2-  O529  1  0.10936349  0.17680131  0.36795469  1
  O2-  O530  1  0.09219039  0.16477230  0.72578012  1
  O2-  O531  1  0.08366070  0.41066063  0.02268190  1
  O2-  O532  1  0.04599783  0.47559848  0.37844420  1
  O2-  O533  1  0.07534173  0.41780333  0.69514249  1
  O2-  O534  1  0.07723140  0.67135708  0.02271164  1
  O2-  O535  1  0.07781095  0.66596964  0.35319263  1
  O2-  O536  1  0.08723963  0.66268171  0.69101800  1
  O2-  O537  1  0.09928327  0.92861553  0.01967456  1
  O2-  O538  1  0.06237253  0.91102392  0.34548080  1
  O2-  O539  1  0.07677298  0.90607314  0.69138618  1
  O2-  O540  1  0.32391497  0.17401408  0.02862843  1
  O2-  O541  1  0.34843105  0.17997256  0.34391351  1
  O2-  O542  1  0.30437049  0.14864575  0.69204024  1
  O2-  O543  1  0.32458041  0.41208246  0.02272419  1
  O2-  O544  1  0.35625995  0.43262023  0.34917274  1
  O2-  O545  1  0.32649957  0.40333537  0.68570711  1
  O2-  O546  1  0.35811794  0.62161895  0.03332106  1
  O2-  O547  1  0.33651307  0.67884083  0.35204249  1
  O2-  O548  1  0.32285897  0.67206213  0.69504651  1
  O2-  O549  1  0.33518335  0.93395746  0.02544025  1
  O2-  O550  1  0.35943557  0.92423936  0.36294379  1
  O2-  O551  1  0.32325401  0.91964753  0.68453352  1
  O2-  O552  1  0.60460594  0.16131752  0.01950760  1
  O2-  O553  1  0.56855450  0.15816412  0.36476065  1
  O2-  O554  1  0.61521282  0.16712255  0.68390585  1
  O2-  O555  1  0.54767444  0.35522568  0.04393080  1
  O2-  O556  1  0.60620979  0.42379822  0.35503472  1
  O2-  O557  1  0.58863503  0.41970676  0.68508647  1
  O2-  O558  1  0.58970137  0.67686925  0.02617925  1
  O2-  O559  1  0.58214487  0.65690845  0.34615730  1
  O2-  O560  1  0.59560972  0.66486379  0.67908575  1
  O2-  O561  1  0.58981192  0.90938332  0.02024777  1
  O2-  O562  1  0.57262692  0.90130028  0.35741917  1
  O2-  O563  1  0.59679488  0.93117192  0.68163925  1
  O2-  O564  1  0.83437617  0.16330940  0.01069761  1
  O2-  O565  1  0.80543753  0.13564068  0.34941384  1
  O2-  O566  1  0.84547917  0.16796682  0.69563387  1
  O2-  O567  1  0.83246433  0.41276206  0.01797553  1
  O2-  O568  1  0.83395362  0.37258422  0.36535356  1
  O2-  O569  1  0.84429893  0.42635052  0.69400579  1
  O2-  O570  1  0.83073348  0.67636928  0.01741303  1
  O2-  O571  1  0.83504105  0.66644111  0.35668312  1
  O2-  O572  1  0.85145352  0.67672615  0.68947357  1
  O2-  O573  1  0.83799200  0.93012197  0.03154548  1
  O2-  O574  1  0.81271171  0.90911688  0.36104630  1
  O2-  O575  1  0.84230103  0.92283769  0.68987643  1
