# generated using pymatgen
data_Fe302.4Co129.6
_symmetry_space_group_name_H-M   'P 1'
_cell_length_a   17.19060000
_cell_length_b   17.19060000
_cell_length_c   17.19060000
_cell_angle_alpha   90.00000000
_cell_angle_beta   90.00000000
_cell_angle_gamma   90.00000000
_symmetry_Int_Tables_number   1
_chemical_formula_structural   Fe302.4Co129.6
_chemical_formula_sum   'Fe302.4 Co129.6'
_cell_volume   5080.10987055
_cell_formula_units_Z   1
loop_
 _symmetry_equiv_pos_site_id
 _symmetry_equiv_pos_as_xyz
  1  'x, y, z'
loop_
 _atom_type_symbol
 _atom_type_oxidation_number
  Fe0+  0.0
  Co0+  0.0
loop_
 _atom_site_type_symbol
 _atom_site_label
 _atom_site_symmetry_multiplicity
 _atom_site_fract_x
 _atom_site_fract_y
 _atom_site_fract_z
 _atom_site_occupancy
