# generated using pymatgen
data_Sr64Ca21.3344Nb42.6656O192
_symmetry_space_group_name_H-M   'P 1'
_cell_length_a   16.38000000
_cell_length_b   16.38000000
_cell_length_c   16.41800000
_cell_angle_alpha   90.00000000
_cell_angle_beta   90.00000000
_cell_angle_gamma   90.00000000
_symmetry_Int_Tables_number   1
_chemical_formula_structural   Sr64Ca21.3344Nb42.6656O192
_chemical_formula_sum   'Sr64 Ca21.3344 Nb42.6656 O192'
_cell_volume   4405.02163920
_cell_formula_units_Z   1
loop_
 _symmetry_equiv_pos_site_id
 _symmetry_equiv_pos_as_xyz
  1  'x, y, z'
loop_
 _atom_type_symbol
 _atom_type_oxidation_number
  Sr2+  2.0
  Ca2+  2.0
  Nb5+  5.0
  O2-  -2.0
loop_
 _atom_site_type_symbol
 _atom_site_label
 _atom_site_symmetry_multiplicity
 _atom_site_fract_x
 _atom_site_fract_y
 _atom_site_fract_z
 _atom_site_occupancy
  Sr2+  Sr1  1  0.12500000  0.12500000  0.12750000  1.0
  Sr2+  Sr1  1  0.12500000  0.12500000  0.62750000  1.0
  Sr2+  Sr1  1  0.12500000  0.62500000  0.12750000  1.0
  Sr2+  Sr1  1  0.12500000  0.62500000  0.62750000  1.0
  Sr2+  Sr1  1  0.62500000  0.12500000  0.12750000  1.0
  Sr2+  Sr1  1  0.62500000  0.12500000  0.62750000  1.0
  Sr2+  Sr1  1  0.62500000  0.62500000  0.12750000  1.0
  Sr2+  Sr1  1  0.62500000  0.62500000  0.62750000  1.0
  Sr2+  Sr1  1  0.37500000  0.37500000  0.12750000  1.0
  Sr2+  Sr1  1  0.37500000  0.37500000  0.62750000  1.0
  Sr2+  Sr1  1  0.37500000  0.87500000  0.12750000  1.0
  Sr2+  Sr1  1  0.37500000  0.87500000  0.62750000  1.0
  Sr2+  Sr1  1  0.87500000  0.37500000  0.12750000  1.0
  Sr2+  Sr1  1  0.87500000  0.37500000  0.62750000  1.0
  Sr2+  Sr1  1  0.87500000  0.87500000  0.12750000  1.0
  Sr2+  Sr1  1  0.87500000  0.87500000  0.62750000  1.0
  Sr2+  Sr1  1  0.12500000  0.37500000  0.37250000  1.0
  Sr2+  Sr1  1  0.12500000  0.37500000  0.87250000  1.0
  Sr2+  Sr1  1  0.12500000  0.87500000  0.37250000  1.0
  Sr2+  Sr1  1  0.12500000  0.87500000  0.87250000  1.0
  Sr2+  Sr1  1  0.62500000  0.37500000  0.37250000  1.0
  Sr2+  Sr1  1  0.62500000  0.37500000  0.87250000  1.0
  Sr2+  Sr1  1  0.62500000  0.87500000  0.37250000  1.0
  Sr2+  Sr1  1  0.62500000  0.87500000  0.87250000  1.0
  Sr2+  Sr1  1  0.37500000  0.12500000  0.37250000  1.0
  Sr2+  Sr1  1  0.37500000  0.12500000  0.87250000  1.0
  Sr2+  Sr1  1  0.37500000  0.62500000  0.37250000  1.0
  Sr2+  Sr1  1  0.37500000  0.62500000  0.87250000  1.0
  Sr2+  Sr1  1  0.87500000  0.12500000  0.37250000  1.0
  Sr2+  Sr1  1  0.87500000  0.12500000  0.87250000  1.0
  Sr2+  Sr1  1  0.87500000  0.62500000  0.37250000  1.0
  Sr2+  Sr1  1  0.87500000  0.62500000  0.87250000  1.0
  Sr2+  Sr2  1  0.12500000  0.12500000  0.36950000  1.0
  Sr2+  Sr2  1  0.12500000  0.12500000  0.86950000  1.0
  Sr2+  Sr2  1  0.12500000  0.62500000  0.36950000  1.0
  Sr2+  Sr2  1  0.12500000  0.62500000  0.86950000  1.0
  Sr2+  Sr2  1  0.62500000  0.12500000  0.36950000  1.0
  Sr2+  Sr2  1  0.62500000  0.12500000  0.86950000  1.0
  Sr2+  Sr2  1  0.62500000  0.62500000  0.36950000  1.0
  Sr2+  Sr2  1  0.62500000  0.62500000  0.86950000  1.0
  Sr2+  Sr2  1  0.37500000  0.37500000  0.36950000  1.0
  Sr2+  Sr2  1  0.37500000  0.37500000  0.86950000  1.0
  Sr2+  Sr2  1  0.37500000  0.87500000  0.36950000  1.0
  Sr2+  Sr2  1  0.37500000  0.87500000  0.86950000  1.0
  Sr2+  Sr2  1  0.87500000  0.37500000  0.36950000  1.0
  Sr2+  Sr2  1  0.87500000  0.37500000  0.86950000  1.0
  Sr2+  Sr2  1  0.87500000  0.87500000  0.36950000  1.0
  Sr2+  Sr2  1  0.87500000  0.87500000  0.86950000  1.0
  Sr2+  Sr2  1  0.12500000  0.37500000  0.13050000  1.0
  Sr2+  Sr2  1  0.12500000  0.37500000  0.63050000  1.0
  Sr2+  Sr2  1  0.12500000  0.87500000  0.13050000  1.0
  Sr2+  Sr2  1  0.12500000  0.87500000  0.63050000  1.0
  Sr2+  Sr2  1  0.62500000  0.37500000  0.13050000  1.0
  Sr2+  Sr2  1  0.62500000  0.37500000  0.63050000  1.0
  Sr2+  Sr2  1  0.62500000  0.87500000  0.13050000  1.0
  Sr2+  Sr2  1  0.62500000  0.87500000  0.63050000  1.0
  Sr2+  Sr2  1  0.37500000  0.12500000  0.13050000  1.0
  Sr2+  Sr2  1  0.37500000  0.12500000  0.63050000  1.0
  Sr2+  Sr2  1  0.37500000  0.62500000  0.13050000  1.0
  Sr2+  Sr2  1  0.37500000  0.62500000  0.63050000  1.0
  Sr2+  Sr2  1  0.87500000  0.12500000  0.13050000  1.0
  Sr2+  Sr2  1  0.87500000  0.12500000  0.63050000  1.0
  Sr2+  Sr2  1  0.87500000  0.62500000  0.13050000  1.0
  Sr2+  Sr2  1  0.87500000  0.62500000  0.63050000  1.0
  Ca2+  Nb1  1  0.50000000  0.50000000  0.00000000  1.0
  Ca2+  Nb1  1  0.50000000  0.00000000  0.00000000  1.0
  Ca2+  Nb1  1  0.00000000  0.50000000  0.00000000  1.0
  Ca2+  Nb1  1  0.00000000  0.50000000  0.50000000  1.0
  Ca2+  Nb1  1  0.00000000  0.00000000  0.00000000  1.0
  Nb5+  Nb1  1  0.50000000  0.00000000  0.50000000  1.0
  Nb5+  Nb1  1  0.00000000  0.00000000  0.50000000  1.0
  Nb5+  Nb1  1  0.50000000  0.50000000  0.50000000  1.0
  Ca2+  Nb2  1  0.25000000  0.75000000  0.00000000  1.0
  Ca2+  Nb2  1  0.25000000  0.25000000  0.50000000  1.0
  Ca2+  Nb2  1  0.75000000  0.25000000  0.00000000  1.0
  Ca2+  Nb2  1  0.25000000  0.75000000  0.50000000  1.0
  Ca2+  Nb2  1  0.75000000  0.75000000  0.50000000  1.0
  Nb5+  Nb2  1  0.25000000  0.25000000  0.00000000  1.0
  Nb5+  Nb2  1  0.75000000  0.25000000  0.50000000  1.0
  Nb5+  Nb2  1  0.75000000  0.75000000  0.00000000  1.0
  Ca2+  Nb3  1  0.25000000  0.00000000  0.26050000  1.0
  Ca2+  Nb3  1  0.50000000  0.75000000  0.23950000  1.0
  Ca2+  Nb3  1  0.00000000  0.75000000  0.73950000  1.0
  Ca2+  Nb3  1  0.75000000  0.50000000  0.26050000  1.0
  Ca2+  Nb3  1  0.00000000  0.25000000  0.23950000  1.0
  Ca2+  Nb3  1  0.50000000  0.25000000  0.73950000  1.0
  Ca2+  Nb3  1  0.50000000  0.75000000  0.73950000  1.0
  Ca2+  Nb3  1  0.75000000  0.00000000  0.76050000  1.0
  Ca2+  Nb3  1  0.25000000  0.00000000  0.76050000  1.0
  Ca2+  Nb3  1  0.00000000  0.25000000  0.73950000  1.0
  Ca2+  Nb3  1  0.75000000  0.50000000  0.76050000  1.0
  Nb5+  Nb3  1  0.25000000  0.50000000  0.76050000  1.0
  Nb5+  Nb3  1  0.75000000  0.00000000  0.26050000  1.0
  Nb5+  Nb3  1  0.00000000  0.75000000  0.23950000  1.0
  Nb5+  Nb3  1  0.50000000  0.25000000  0.23950000  1.0
  Nb5+  Nb3  1  0.25000000  0.50000000  0.26050000  1.0
  Nb5+  Nb4  1  0.00000000  0.00000000  0.25000000  1.0
  Nb5+  Nb4  1  0.00000000  0.00000000  0.75000000  1.0
  Nb5+  Nb4  1  0.00000000  0.50000000  0.25000000  1.0
  Nb5+  Nb4  1  0.00000000  0.50000000  0.75000000  1.0
  Nb5+  Nb4  1  0.50000000  0.00000000  0.25000000  1.0
  Nb5+  Nb4  1  0.50000000  0.00000000  0.75000000  1.0
  Nb5+  Nb4  1  0.50000000  0.50000000  0.25000000  1.0
  Nb5+  Nb4  1  0.50000000  0.50000000  0.75000000  1.0
  Nb5+  Nb5  1  0.25000000  0.25000000  0.25000000  1.0
  Nb5+  Nb5  1  0.25000000  0.25000000  0.75000000  1.0
  Nb5+  Nb5  1  0.25000000  0.75000000  0.25000000  1.0
  Nb5+  Nb5  1  0.25000000  0.75000000  0.75000000  1.0
  Nb5+  Nb5  1  0.75000000  0.25000000  0.25000000  1.0
  Nb5+  Nb5  1  0.75000000  0.25000000  0.75000000  1.0
  Nb5+  Nb5  1  0.75000000  0.75000000  0.25000000  1.0
  Nb5+  Nb5  1  0.75000000  0.75000000  0.75000000  1.0
  Nb5+  Nb6  1  0.00000000  0.25000000  0.48900000  1.0
  Nb5+  Nb6  1  0.00000000  0.25000000  0.98900000  1.0
  Nb5+  Nb6  1  0.00000000  0.75000000  0.48900000  1.0
  Nb5+  Nb6  1  0.00000000  0.75000000  0.98900000  1.0
  Nb5+  Nb6  1  0.50000000  0.25000000  0.48900000  1.0
  Nb5+  Nb6  1  0.50000000  0.25000000  0.98900000  1.0
  Nb5+  Nb6  1  0.50000000  0.75000000  0.48900000  1.0
  Nb5+  Nb6  1  0.50000000  0.75000000  0.98900000  1.0
  Nb5+  Nb6  1  0.25000000  0.00000000  0.01100000  1.0
  Nb5+  Nb6  1  0.25000000  0.00000000  0.51100000  1.0
  Nb5+  Nb6  1  0.25000000  0.50000000  0.01100000  1.0
  Nb5+  Nb6  1  0.25000000  0.50000000  0.51100000  1.0
  Nb5+  Nb6  1  0.75000000  0.00000000  0.01100000  1.0
  Nb5+  Nb6  1  0.75000000  0.00000000  0.51100000  1.0
  Nb5+  Nb6  1  0.75000000  0.50000000  0.01100000  1.0
  Nb5+  Nb6  1  0.75000000  0.50000000  0.51100000  1.0
  O2-  O1  1  0.00000000  0.00000000  0.13480000  1.0
  O2-  O1  1  0.00000000  0.00000000  0.63480000  1.0
  O2-  O1  1  0.00000000  0.50000000  0.13480000  1.0
  O2-  O1  1  0.00000000  0.50000000  0.63480000  1.0
  O2-  O1  1  0.50000000  0.00000000  0.13480000  1.0
  O2-  O1  1  0.50000000  0.00000000  0.63480000  1.0
  O2-  O1  1  0.50000000  0.50000000  0.13480000  1.0
  O2-  O1  1  0.50000000  0.50000000  0.63480000  1.0
  O2-  O1  1  0.00000000  0.00000000  0.36520000  1.0
  O2-  O1  1  0.00000000  0.00000000  0.86520000  1.0
  O2-  O1  1  0.00000000  0.50000000  0.36520000  1.0
  O2-  O1  1  0.00000000  0.50000000  0.86520000  1.0
  O2-  O1  1  0.50000000  0.00000000  0.36520000  1.0
  O2-  O1  1  0.50000000  0.00000000  0.86520000  1.0
  O2-  O1  1  0.50000000  0.50000000  0.36520000  1.0
  O2-  O1  1  0.50000000  0.50000000  0.86520000  1.0
  O2-  O2  1  0.25000000  0.25000000  0.13470000  1.0
  O2-  O2  1  0.25000000  0.25000000  0.63470000  1.0
  O2-  O2  1  0.25000000  0.75000000  0.13470000  1.0
  O2-  O2  1  0.25000000  0.75000000  0.63470000  1.0
  O2-  O2  1  0.75000000  0.25000000  0.13470000  1.0
  O2-  O2  1  0.75000000  0.25000000  0.63470000  1.0
  O2-  O2  1  0.75000000  0.75000000  0.13470000  1.0
  O2-  O2  1  0.75000000  0.75000000  0.63470000  1.0
  O2-  O2  1  0.25000000  0.25000000  0.36530000  1.0
  O2-  O2  1  0.25000000  0.25000000  0.86530000  1.0
  O2-  O2  1  0.25000000  0.75000000  0.36530000  1.0
  O2-  O2  1  0.25000000  0.75000000  0.86530000  1.0
  O2-  O2  1  0.75000000  0.25000000  0.36530000  1.0
  O2-  O2  1  0.75000000  0.25000000  0.86530000  1.0
  O2-  O2  1  0.75000000  0.75000000  0.36530000  1.0
  O2-  O2  1  0.75000000  0.75000000  0.86530000  1.0
  O2-  O3  1  0.00000000  0.25000000  0.11520000  1.0
  O2-  O3  1  0.00000000  0.25000000  0.61520000  1.0
  O2-  O3  1  0.00000000  0.75000000  0.11520000  1.0
  O2-  O3  1  0.00000000  0.75000000  0.61520000  1.0
  O2-  O3  1  0.50000000  0.25000000  0.11520000  1.0
  O2-  O3  1  0.50000000  0.25000000  0.61520000  1.0
  O2-  O3  1  0.50000000  0.75000000  0.11520000  1.0
  O2-  O3  1  0.50000000  0.75000000  0.61520000  1.0
  O2-  O3  1  0.25000000  0.00000000  0.38480000  1.0
  O2-  O3  1  0.25000000  0.00000000  0.88480000  1.0
  O2-  O3  1  0.25000000  0.50000000  0.38480000  1.0
  O2-  O3  1  0.25000000  0.50000000  0.88480000  1.0
  O2-  O3  1  0.75000000  0.00000000  0.38480000  1.0
  O2-  O3  1  0.75000000  0.00000000  0.88480000  1.0
  O2-  O3  1  0.75000000  0.50000000  0.38480000  1.0
  O2-  O3  1  0.75000000  0.50000000  0.88480000  1.0
  O2-  O4  1  0.00000000  0.25000000  0.38480000  1.0
  O2-  O4  1  0.00000000  0.25000000  0.88480000  1.0
  O2-  O4  1  0.00000000  0.75000000  0.38480000  1.0
  O2-  O4  1  0.00000000  0.75000000  0.88480000  1.0
  O2-  O4  1  0.50000000  0.25000000  0.38480000  1.0
  O2-  O4  1  0.50000000  0.25000000  0.88480000  1.0
  O2-  O4  1  0.50000000  0.75000000  0.38480000  1.0
  O2-  O4  1  0.50000000  0.75000000  0.88480000  1.0
  O2-  O4  1  0.25000000  0.00000000  0.11520000  1.0
  O2-  O4  1  0.25000000  0.00000000  0.61520000  1.0
  O2-  O4  1  0.25000000  0.50000000  0.11520000  1.0
  O2-  O4  1  0.25000000  0.50000000  0.61520000  1.0
  O2-  O4  1  0.75000000  0.00000000  0.11520000  1.0
  O2-  O4  1  0.75000000  0.00000000  0.61520000  1.0
  O2-  O4  1  0.75000000  0.50000000  0.11520000  1.0
  O2-  O4  1  0.75000000  0.50000000  0.61520000  1.0
  O2-  O5  1  0.12400000  0.29200000  0.25000000  1.0
  O2-  O5  1  0.12400000  0.29200000  0.75000000  1.0
  O2-  O5  1  0.12400000  0.79200000  0.25000000  1.0
  O2-  O5  1  0.12400000  0.79200000  0.75000000  1.0
  O2-  O5  1  0.62400000  0.29200000  0.25000000  1.0
  O2-  O5  1  0.62400000  0.29200000  0.75000000  1.0
  O2-  O5  1  0.62400000  0.79200000  0.25000000  1.0
  O2-  O5  1  0.62400000  0.79200000  0.75000000  1.0
  O2-  O5  1  0.37600000  0.20800000  0.25000000  1.0
  O2-  O5  1  0.37600000  0.20800000  0.75000000  1.0
  O2-  O5  1  0.37600000  0.70800000  0.25000000  1.0
  O2-  O5  1  0.37600000  0.70800000  0.75000000  1.0
  O2-  O5  1  0.87600000  0.20800000  0.25000000  1.0
  O2-  O5  1  0.87600000  0.20800000  0.75000000  1.0
  O2-  O5  1  0.87600000  0.70800000  0.25000000  1.0
  O2-  O5  1  0.87600000  0.70800000  0.75000000  1.0
  O2-  O5  1  0.29200000  0.37600000  0.25000000  1.0
  O2-  O5  1  0.29200000  0.37600000  0.75000000  1.0
  O2-  O5  1  0.29200000  0.87600000  0.25000000  1.0
  O2-  O5  1  0.29200000  0.87600000  0.75000000  1.0
  O2-  O5  1  0.79200000  0.37600000  0.25000000  1.0
  O2-  O5  1  0.79200000  0.37600000  0.75000000  1.0
  O2-  O5  1  0.79200000  0.87600000  0.25000000  1.0
  O2-  O5  1  0.79200000  0.87600000  0.75000000  1.0
  O2-  O5  1  0.20800000  0.12400000  0.25000000  1.0
  O2-  O5  1  0.20800000  0.12400000  0.75000000  1.0
  O2-  O5  1  0.20800000  0.62400000  0.25000000  1.0
  O2-  O5  1  0.20800000  0.62400000  0.75000000  1.0
  O2-  O5  1  0.70800000  0.12400000  0.25000000  1.0
  O2-  O5  1  0.70800000  0.12400000  0.75000000  1.0
  O2-  O5  1  0.70800000  0.62400000  0.25000000  1.0
  O2-  O5  1  0.70800000  0.62400000  0.75000000  1.0
  O2-  O6  1  0.11500000  0.45800000  0.25000000  1.0
  O2-  O6  1  0.11500000  0.45800000  0.75000000  1.0
  O2-  O6  1  0.11500000  0.95800000  0.25000000  1.0
  O2-  O6  1  0.11500000  0.95800000  0.75000000  1.0
  O2-  O6  1  0.61500000  0.45800000  0.25000000  1.0
  O2-  O6  1  0.61500000  0.45800000  0.75000000  1.0
  O2-  O6  1  0.61500000  0.95800000  0.25000000  1.0
  O2-  O6  1  0.61500000  0.95800000  0.75000000  1.0
  O2-  O6  1  0.38500000  0.04200000  0.25000000  1.0
  O2-  O6  1  0.38500000  0.04200000  0.75000000  1.0
  O2-  O6  1  0.38500000  0.54200000  0.25000000  1.0
  O2-  O6  1  0.38500000  0.54200000  0.75000000  1.0
  O2-  O6  1  0.88500000  0.04200000  0.25000000  1.0
  O2-  O6  1  0.88500000  0.04200000  0.75000000  1.0
  O2-  O6  1  0.88500000  0.54200000  0.25000000  1.0
  O2-  O6  1  0.88500000  0.54200000  0.75000000  1.0
  O2-  O6  1  0.45800000  0.38500000  0.25000000  1.0
  O2-  O6  1  0.45800000  0.38500000  0.75000000  1.0
  O2-  O6  1  0.45800000  0.88500000  0.25000000  1.0
  O2-  O6  1  0.45800000  0.88500000  0.75000000  1.0
  O2-  O6  1  0.95800000  0.38500000  0.25000000  1.0
  O2-  O6  1  0.95800000  0.38500000  0.75000000  1.0
  O2-  O6  1  0.95800000  0.88500000  0.25000000  1.0
  O2-  O6  1  0.95800000  0.88500000  0.75000000  1.0
  O2-  O6  1  0.04200000  0.11500000  0.25000000  1.0
  O2-  O6  1  0.04200000  0.11500000  0.75000000  1.0
  O2-  O6  1  0.04200000  0.61500000  0.25000000  1.0
  O2-  O6  1  0.04200000  0.61500000  0.75000000  1.0
  O2-  O6  1  0.54200000  0.11500000  0.25000000  1.0
  O2-  O6  1  0.54200000  0.11500000  0.75000000  1.0
  O2-  O6  1  0.54200000  0.61500000  0.25000000  1.0
  O2-  O6  1  0.54200000  0.61500000  0.75000000  1.0
  O2-  O7  1  0.12400000  0.45800000  0.00000000  1.0
  O2-  O7  1  0.12400000  0.45800000  0.50000000  1.0
  O2-  O7  1  0.12400000  0.95800000  0.00000000  1.0
  O2-  O7  1  0.12400000  0.95800000  0.50000000  1.0
  O2-  O7  1  0.62400000  0.45800000  0.00000000  1.0
  O2-  O7  1  0.62400000  0.45800000  0.50000000  1.0
  O2-  O7  1  0.62400000  0.95800000  0.00000000  1.0
  O2-  O7  1  0.62400000  0.95800000  0.50000000  1.0
  O2-  O7  1  0.37600000  0.04200000  0.00000000  1.0
  O2-  O7  1  0.37600000  0.04200000  0.50000000  1.0
  O2-  O7  1  0.37600000  0.54200000  0.00000000  1.0
  O2-  O7  1  0.37600000  0.54200000  0.50000000  1.0
  O2-  O7  1  0.87600000  0.04200000  0.00000000  1.0
  O2-  O7  1  0.87600000  0.04200000  0.50000000  1.0
  O2-  O7  1  0.87600000  0.54200000  0.00000000  1.0
  O2-  O7  1  0.87600000  0.54200000  0.50000000  1.0
  O2-  O7  1  0.45800000  0.37600000  0.00000000  1.0
  O2-  O7  1  0.45800000  0.37600000  0.50000000  1.0
  O2-  O7  1  0.45800000  0.87600000  0.00000000  1.0
  O2-  O7  1  0.45800000  0.87600000  0.50000000  1.0
  O2-  O7  1  0.95800000  0.37600000  0.00000000  1.0
  O2-  O7  1  0.95800000  0.37600000  0.50000000  1.0
  O2-  O7  1  0.95800000  0.87600000  0.00000000  1.0
  O2-  O7  1  0.95800000  0.87600000  0.50000000  1.0
  O2-  O7  1  0.04200000  0.12400000  0.00000000  1.0
  O2-  O7  1  0.04200000  0.12400000  0.50000000  1.0
  O2-  O7  1  0.04200000  0.62400000  0.00000000  1.0
  O2-  O7  1  0.04200000  0.62400000  0.50000000  1.0
  O2-  O7  1  0.54200000  0.12400000  0.00000000  1.0
  O2-  O7  1  0.54200000  0.12400000  0.50000000  1.0
  O2-  O7  1  0.54200000  0.62400000  0.00000000  1.0
  O2-  O7  1  0.54200000  0.62400000  0.50000000  1.0
  O2-  O8  1  0.11500000  0.29200000  0.00000000  1.0
  O2-  O8  1  0.11500000  0.29200000  0.50000000  1.0
  O2-  O8  1  0.11500000  0.79200000  0.00000000  1.0
  O2-  O8  1  0.11500000  0.79200000  0.50000000  1.0
  O2-  O8  1  0.61500000  0.29200000  0.00000000  1.0
  O2-  O8  1  0.61500000  0.29200000  0.50000000  1.0
  O2-  O8  1  0.61500000  0.79200000  0.00000000  1.0
  O2-  O8  1  0.61500000  0.79200000  0.50000000  1.0
  O2-  O8  1  0.38500000  0.20800000  0.00000000  1.0
  O2-  O8  1  0.38500000  0.20800000  0.50000000  1.0
  O2-  O8  1  0.38500000  0.70800000  0.00000000  1.0
  O2-  O8  1  0.38500000  0.70800000  0.50000000  1.0
  O2-  O8  1  0.88500000  0.20800000  0.00000000  1.0
  O2-  O8  1  0.88500000  0.20800000  0.50000000  1.0
  O2-  O8  1  0.88500000  0.70800000  0.00000000  1.0
  O2-  O8  1  0.88500000  0.70800000  0.50000000  1.0
  O2-  O8  1  0.29200000  0.38500000  0.00000000  1.0
  O2-  O8  1  0.29200000  0.38500000  0.50000000  1.0
  O2-  O8  1  0.29200000  0.88500000  0.00000000  1.0
  O2-  O8  1  0.29200000  0.88500000  0.50000000  1.0
  O2-  O8  1  0.79200000  0.38500000  0.00000000  1.0
  O2-  O8  1  0.79200000  0.38500000  0.50000000  1.0
  O2-  O8  1  0.79200000  0.88500000  0.00000000  1.0
  O2-  O8  1  0.79200000  0.88500000  0.50000000  1.0
  O2-  O8  1  0.20800000  0.11500000  0.00000000  1.0
  O2-  O8  1  0.20800000  0.11500000  0.50000000  1.0
  O2-  O8  1  0.20800000  0.61500000  0.00000000  1.0
  O2-  O8  1  0.20800000  0.61500000  0.50000000  1.0
  O2-  O8  1  0.70800000  0.11500000  0.00000000  1.0
  O2-  O8  1  0.70800000  0.11500000  0.50000000  1.0
  O2-  O8  1  0.70800000  0.61500000  0.00000000  1.0
  O2-  O8  1  0.70800000  0.61500000  0.50000000  1.0
