# generated using pymatgen
data_Ti27Cu105.732Te108
_symmetry_space_group_name_H-M   'P 1'
_cell_length_a   17.82750000
_cell_length_b   17.82750000
_cell_length_c   17.82750000
_cell_angle_alpha   90.00000000
_cell_angle_beta   90.00000000
_cell_angle_gamma   90.00000000
_symmetry_Int_Tables_number   1
_chemical_formula_structural   Ti27Cu105.732Te108
_chemical_formula_sum   'Ti27 Cu105.732 Te108'
_cell_volume   5665.93170455
_cell_formula_units_Z   1
loop_
 _symmetry_equiv_pos_site_id
 _symmetry_equiv_pos_as_xyz
  1  'x, y, z'
loop_
 _atom_type_symbol
 _atom_type_oxidation_number
  Ti4+  4.0
  Cu+  1.0
  Te2-  -2.0
loop_
 _atom_site_type_symbol
 _atom_site_label
 _atom_site_symmetry_multiplicity
 _atom_site_fract_x
 _atom_site_fract_y
 _atom_site_fract_z
 _atom_site_occupancy
  Ti4+  Ti1  1  0.16666667  0.16666667  0.16666667  1.0
  Ti4+  Ti1  1  0.16666667  0.16666667  0.50000000  1.0
  Ti4+  Ti1  1  0.16666667  0.16666667  0.83333333  1.0
  Ti4+  Ti1  1  0.16666667  0.50000000  0.16666667  1.0
  Ti4+  Ti1  1  0.16666667  0.50000000  0.50000000  1.0
  Ti4+  Ti1  1  0.16666667  0.50000000  0.83333333  1.0
  Ti4+  Ti1  1  0.16666667  0.83333333  0.16666667  1.0
  Ti4+  Ti1  1  0.16666667  0.83333333  0.50000000  1.0
  Ti4+  Ti1  1  0.16666667  0.83333333  0.83333333  1.0
  Ti4+  Ti1  1  0.50000000  0.16666667  0.16666667  1.0
  Ti4+  Ti1  1  0.50000000  0.16666667  0.50000000  1.0
  Ti4+  Ti1  1  0.50000000  0.16666667  0.83333333  1.0
  Ti4+  Ti1  1  0.50000000  0.50000000  0.16666667  1.0
  Ti4+  Ti1  1  0.50000000  0.50000000  0.50000000  1.0
  Ti4+  Ti1  1  0.50000000  0.50000000  0.83333333  1.0
  Ti4+  Ti1  1  0.50000000  0.83333333  0.16666667  1.0
  Ti4+  Ti1  1  0.50000000  0.83333333  0.50000000  1.0
  Ti4+  Ti1  1  0.50000000  0.83333333  0.83333333  1.0
  Ti4+  Ti1  1  0.83333333  0.16666667  0.16666667  1.0
  Ti4+  Ti1  1  0.83333333  0.16666667  0.50000000  1.0
  Ti4+  Ti1  1  0.83333333  0.16666667  0.83333333  1.0
  Ti4+  Ti1  1  0.83333333  0.50000000  0.16666667  1.0
  Ti4+  Ti1  1  0.83333333  0.50000000  0.50000000  1.0
  Ti4+  Ti1  1  0.83333333  0.50000000  0.83333333  1.0
  Ti4+  Ti1  1  0.83333333  0.83333333  0.16666667  1.0
  Ti4+  Ti1  1  0.83333333  0.83333333  0.50000000  1.0
  Ti4+  Ti1  1  0.83333333  0.83333333  0.83333333  1.0
  Cu+  Cu1  1  0.16666667  0.16666667  0.00000000  1.0
  Cu+  Cu1  1  0.16666667  0.16666667  0.33333333  1.0
  Cu+  Cu1  1  0.16666667  0.16666667  0.66666667  1.0
  Cu+  Cu1  1  0.16666667  0.50000000  0.00000000  1.0
  Cu+  Cu1  1  0.16666667  0.50000000  0.33333333  1.0
  Cu+  Cu1  1  0.16666667  0.50000000  0.66666667  1.0
  Cu+  Cu1  1  0.16666667  0.83333333  0.00000000  1.0
  Cu+  Cu1  1  0.16666667  0.83333333  0.33333333  1.0
  Cu+  Cu1  1  0.16666667  0.83333333  0.66666667  1.0
  Cu+  Cu1  1  0.50000000  0.16666667  0.00000000  1.0
  Cu+  Cu1  1  0.50000000  0.16666667  0.33333333  1.0
  Cu+  Cu1  1  0.50000000  0.16666667  0.66666667  1.0
  Cu+  Cu1  1  0.50000000  0.50000000  0.00000000  1.0
  Cu+  Cu1  1  0.50000000  0.50000000  0.33333333  1.0
  Cu+  Cu1  1  0.50000000  0.50000000  0.66666667  1.0
  Cu+  Cu1  1  0.50000000  0.83333333  0.00000000  1.0
  Cu+  Cu1  1  0.50000000  0.83333333  0.33333333  1.0
  Cu+  Cu1  1  0.50000000  0.83333333  0.66666667  1.0
  Cu+  Cu1  1  0.83333333  0.16666667  0.00000000  1.0
  Cu+  Cu1  1  0.83333333  0.16666667  0.33333333  1.0
  Cu+  Cu1  1  0.83333333  0.16666667  0.66666667  1.0
  Cu+  Cu1  1  0.83333333  0.50000000  0.00000000  1.0
  Cu+  Cu1  1  0.83333333  0.50000000  0.33333333  1.0
  Cu+  Cu1  1  0.83333333  0.50000000  0.66666667  1.0
  Cu+  Cu1  1  0.83333333  0.83333333  0.00000000  1.0
  Cu+  Cu1  1  0.83333333  0.83333333  0.33333333  1.0
  Cu+  Cu1  1  0.83333333  0.83333333  0.66666667  1.0
  Cu+  Cu1  1  0.16666667  0.00000000  0.16666667  1.0
  Cu+  Cu1  1  0.16666667  0.00000000  0.50000000  1.0
  Cu+  Cu1  1  0.16666667  0.00000000  0.83333333  1.0
  Cu+  Cu1  1  0.16666667  0.33333333  0.16666667  1.0
  Cu+  Cu1  1  0.16666667  0.33333333  0.50000000  1.0
  Cu+  Cu1  1  0.16666667  0.33333333  0.83333333  1.0
  Cu+  Cu1  1  0.16666667  0.66666667  0.16666667  1.0
  Cu+  Cu1  1  0.16666667  0.66666667  0.50000000  1.0
  Cu+  Cu1  1  0.16666667  0.66666667  0.83333333  1.0
  Cu+  Cu1  1  0.50000000  0.00000000  0.16666667  1.0
  Cu+  Cu1  1  0.50000000  0.00000000  0.50000000  1.0
  Cu+  Cu1  1  0.50000000  0.00000000  0.83333333  1.0
  Cu+  Cu1  1  0.50000000  0.33333333  0.16666667  1.0
  Cu+  Cu1  1  0.50000000  0.33333333  0.50000000  1.0
  Cu+  Cu1  1  0.50000000  0.33333333  0.83333333  1.0
  Cu+  Cu1  1  0.50000000  0.66666667  0.16666667  1.0
  Cu+  Cu1  1  0.50000000  0.66666667  0.50000000  1.0
  Cu+  Cu1  1  0.50000000  0.66666667  0.83333333  1.0
  Cu+  Cu1  1  0.83333333  0.00000000  0.16666667  1.0
  Cu+  Cu1  1  0.83333333  0.00000000  0.50000000  1.0
  Cu+  Cu1  1  0.83333333  0.00000000  0.83333333  1.0
  Cu+  Cu1  1  0.83333333  0.33333333  0.16666667  1.0
  Cu+  Cu1  1  0.83333333  0.33333333  0.50000000  1.0
  Cu+  Cu1  1  0.83333333  0.33333333  0.83333333  1.0
  Cu+  Cu1  1  0.83333333  0.66666667  0.16666667  1.0
  Cu+  Cu1  1  0.83333333  0.66666667  0.50000000  1.0
  Cu+  Cu1  1  0.83333333  0.66666667  0.83333333  1.0
  Cu+  Cu1  1  0.00000000  0.16666667  0.16666667  1.0
  Cu+  Cu1  1  0.00000000  0.16666667  0.50000000  1.0
  Cu+  Cu1  1  0.00000000  0.16666667  0.83333333  1.0
  Cu+  Cu1  1  0.00000000  0.50000000  0.16666667  1.0
  Cu+  Cu1  1  0.00000000  0.50000000  0.50000000  1.0
  Cu+  Cu1  1  0.00000000  0.50000000  0.83333333  1.0
  Cu+  Cu1  1  0.00000000  0.83333333  0.16666667  1.0
  Cu+  Cu1  1  0.00000000  0.83333333  0.50000000  1.0
  Cu+  Cu1  1  0.00000000  0.83333333  0.83333333  1.0
  Cu+  Cu1  1  0.33333333  0.16666667  0.16666667  1.0
  Cu+  Cu1  1  0.33333333  0.16666667  0.50000000  1.0
  Cu+  Cu1  1  0.33333333  0.16666667  0.83333333  1.0
  Cu+  Cu1  1  0.33333333  0.50000000  0.16666667  1.0
  Cu+  Cu1  1  0.33333333  0.50000000  0.50000000  1.0
  Cu+  Cu1  1  0.33333333  0.50000000  0.83333333  1.0
  Cu+  Cu1  1  0.33333333  0.83333333  0.16666667  1.0
  Cu+  Cu1  1  0.33333333  0.83333333  0.50000000  1.0
  Cu+  Cu1  1  0.33333333  0.83333333  0.83333333  1.0
  Cu+  Cu1  1  0.66666667  0.16666667  0.16666667  1.0
  Cu+  Cu1  1  0.66666667  0.16666667  0.50000000  1.0
  Cu+  Cu1  1  0.66666667  0.16666667  0.83333333  1.0
  Cu+  Cu1  1  0.66666667  0.50000000  0.16666667  1.0
  Cu+  Cu1  1  0.66666667  0.50000000  0.50000000  1.0
  Cu+  Cu1  1  0.66666667  0.50000000  0.83333333  1.0
  Cu+  Cu1  1  0.66666667  0.83333333  0.16666667  1.0
  Cu+  Cu1  1  0.66666667  0.83333333  0.50000000  1.0
  Cu+  Cu1  1  0.66666667  0.83333333  0.83333333  1.0
  Cu+  Cu2  1  0.26263333  0.73736667  0.73736667  1.0
  Cu+  Cu2  1  0.73736667  0.92930000  0.40403333  1.0
  Cu+  Cu2  1  0.07070000  0.92930000  0.07070000  1.0
  Cu+  Cu2  1  0.07070000  0.59596667  0.73736667  1.0
  Cu+  Cu2  1  0.07070000  0.73736667  0.26263333  1.0
  Cu+  Cu2  1  0.59596667  0.92930000  0.26263333  1.0
  Cu+  Cu2  1  0.92930000  0.40403333  0.40403333  1.0
  Cu+  Cu2  1  0.40403333  0.73736667  0.59596667  1.0
  Cu+  Cu2  1  0.26263333  0.59596667  0.26263333  1.0
  Cu+  Cu2  1  0.40403333  0.26263333  0.40403333  1.0
  Cu+  Cu2  1  0.07070000  0.40403333  0.26263333  1.0
  Cu+  Cu2  1  0.40403333  0.92930000  0.40403333  1.0
  Cu+  Cu2  1  0.07070000  0.73736667  0.92930000  1.0
  Cu+  Cu2  1  0.26263333  0.40403333  0.40403333  1.0
  Cu+  Cu2  1  0.92930000  0.07070000  0.40403333  1.0
  Cu+  Cu2  1  0.40403333  0.26263333  0.73736667  1.0
  Cu+  Cu2  1  0.07070000  0.07070000  0.26263333  1.0
  Cu+  Cu2  1  0.26263333  0.73736667  0.07070000  1.0
  Cu+  Cu2  1  0.92930000  0.07070000  0.07070000  1.0
  Cu+  Cu2  1  0.59596667  0.73736667  0.73736667  1.0
  Cu+  Cu2  1  0.26263333  0.92930000  0.59596667  1.0
  Cu+  Cu2  1  0.26263333  0.59596667  0.92930000  1.0
  Cu+  Cu2  1  0.26263333  0.73736667  0.40403333  1.0
  Cu+  Cu2  1  0.26263333  0.92930000  0.92930000  1.0
  Cu+  Cu2  1  0.26263333  0.07070000  0.73736667  1.0
  Te2-  Te1  1  0.25253300  0.25253300  0.08080033  1.0
  Te2-  Te1  1  0.25253300  0.25253300  0.41413367  1.0
  Te2-  Te1  1  0.25253300  0.25253300  0.74746700  1.0
  Te2-  Te1  1  0.25253300  0.58586633  0.08080033  1.0
  Te2-  Te1  1  0.25253300  0.58586633  0.41413367  1.0
  Te2-  Te1  1  0.25253300  0.58586633  0.74746700  1.0
  Te2-  Te1  1  0.25253300  0.91919967  0.08080033  1.0
  Te2-  Te1  1  0.25253300  0.91919967  0.41413367  1.0
  Te2-  Te1  1  0.25253300  0.91919967  0.74746700  1.0
  Te2-  Te1  1  0.58586633  0.25253300  0.08080033  1.0
  Te2-  Te1  1  0.58586633  0.25253300  0.41413367  1.0
  Te2-  Te1  1  0.58586633  0.25253300  0.74746700  1.0
  Te2-  Te1  1  0.58586633  0.58586633  0.08080033  1.0
  Te2-  Te1  1  0.58586633  0.58586633  0.41413367  1.0
  Te2-  Te1  1  0.58586633  0.58586633  0.74746700  1.0
  Te2-  Te1  1  0.58586633  0.91919967  0.08080033  1.0
  Te2-  Te1  1  0.58586633  0.91919967  0.41413367  1.0
  Te2-  Te1  1  0.58586633  0.91919967  0.74746700  1.0
  Te2-  Te1  1  0.91919967  0.25253300  0.08080033  1.0
  Te2-  Te1  1  0.91919967  0.25253300  0.41413367  1.0
  Te2-  Te1  1  0.91919967  0.25253300  0.74746700  1.0
  Te2-  Te1  1  0.91919967  0.58586633  0.08080033  1.0
  Te2-  Te1  1  0.91919967  0.58586633  0.41413367  1.0
  Te2-  Te1  1  0.91919967  0.58586633  0.74746700  1.0
  Te2-  Te1  1  0.91919967  0.91919967  0.08080033  1.0
  Te2-  Te1  1  0.91919967  0.91919967  0.41413367  1.0
  Te2-  Te1  1  0.91919967  0.91919967  0.74746700  1.0
  Te2-  Te1  1  0.25253300  0.08080033  0.25253300  1.0
  Te2-  Te1  1  0.25253300  0.08080033  0.58586633  1.0
  Te2-  Te1  1  0.25253300  0.08080033  0.91919967  1.0
  Te2-  Te1  1  0.25253300  0.41413367  0.25253300  1.0
  Te2-  Te1  1  0.25253300  0.41413367  0.58586633  1.0
  Te2-  Te1  1  0.25253300  0.41413367  0.91919967  1.0
  Te2-  Te1  1  0.25253300  0.74746700  0.25253300  1.0
  Te2-  Te1  1  0.25253300  0.74746700  0.58586633  1.0
  Te2-  Te1  1  0.25253300  0.74746700  0.91919967  1.0
  Te2-  Te1  1  0.58586633  0.08080033  0.25253300  1.0
  Te2-  Te1  1  0.58586633  0.08080033  0.58586633  1.0
  Te2-  Te1  1  0.58586633  0.08080033  0.91919967  1.0
  Te2-  Te1  1  0.58586633  0.41413367  0.25253300  1.0
  Te2-  Te1  1  0.58586633  0.41413367  0.58586633  1.0
  Te2-  Te1  1  0.58586633  0.41413367  0.91919967  1.0
  Te2-  Te1  1  0.58586633  0.74746700  0.25253300  1.0
  Te2-  Te1  1  0.58586633  0.74746700  0.58586633  1.0
  Te2-  Te1  1  0.58586633  0.74746700  0.91919967  1.0
  Te2-  Te1  1  0.91919967  0.08080033  0.25253300  1.0
  Te2-  Te1  1  0.91919967  0.08080033  0.58586633  1.0
  Te2-  Te1  1  0.91919967  0.08080033  0.91919967  1.0
  Te2-  Te1  1  0.91919967  0.41413367  0.25253300  1.0
  Te2-  Te1  1  0.91919967  0.41413367  0.58586633  1.0
  Te2-  Te1  1  0.91919967  0.41413367  0.91919967  1.0
  Te2-  Te1  1  0.91919967  0.74746700  0.25253300  1.0
  Te2-  Te1  1  0.91919967  0.74746700  0.58586633  1.0
  Te2-  Te1  1  0.91919967  0.74746700  0.91919967  1.0
  Te2-  Te1  1  0.08080033  0.25253300  0.25253300  1.0
  Te2-  Te1  1  0.08080033  0.25253300  0.58586633  1.0
  Te2-  Te1  1  0.08080033  0.25253300  0.91919967  1.0
  Te2-  Te1  1  0.08080033  0.58586633  0.25253300  1.0
  Te2-  Te1  1  0.08080033  0.58586633  0.58586633  1.0
  Te2-  Te1  1  0.08080033  0.58586633  0.91919967  1.0
  Te2-  Te1  1  0.08080033  0.91919967  0.25253300  1.0
  Te2-  Te1  1  0.08080033  0.91919967  0.58586633  1.0
  Te2-  Te1  1  0.08080033  0.91919967  0.91919967  1.0
  Te2-  Te1  1  0.41413367  0.25253300  0.25253300  1.0
  Te2-  Te1  1  0.41413367  0.25253300  0.58586633  1.0
  Te2-  Te1  1  0.41413367  0.25253300  0.91919967  1.0
  Te2-  Te1  1  0.41413367  0.58586633  0.25253300  1.0
  Te2-  Te1  1  0.41413367  0.58586633  0.58586633  1.0
  Te2-  Te1  1  0.41413367  0.58586633  0.91919967  1.0
  Te2-  Te1  1  0.41413367  0.91919967  0.25253300  1.0
  Te2-  Te1  1  0.41413367  0.91919967  0.58586633  1.0
  Te2-  Te1  1  0.41413367  0.91919967  0.91919967  1.0
  Te2-  Te1  1  0.74746700  0.25253300  0.25253300  1.0
  Te2-  Te1  1  0.74746700  0.25253300  0.58586633  1.0
  Te2-  Te1  1  0.74746700  0.25253300  0.91919967  1.0
  Te2-  Te1  1  0.74746700  0.58586633  0.25253300  1.0
  Te2-  Te1  1  0.74746700  0.58586633  0.58586633  1.0
  Te2-  Te1  1  0.74746700  0.58586633  0.91919967  1.0
  Te2-  Te1  1  0.74746700  0.91919967  0.25253300  1.0
  Te2-  Te1  1  0.74746700  0.91919967  0.58586633  1.0
  Te2-  Te1  1  0.74746700  0.91919967  0.91919967  1.0
  Te2-  Te1  1  0.08080033  0.08080033  0.08080033  1.0
  Te2-  Te1  1  0.08080033  0.08080033  0.41413367  1.0
  Te2-  Te1  1  0.08080033  0.08080033  0.74746700  1.0
  Te2-  Te1  1  0.08080033  0.41413367  0.08080033  1.0
  Te2-  Te1  1  0.08080033  0.41413367  0.41413367  1.0
  Te2-  Te1  1  0.08080033  0.41413367  0.74746700  1.0
  Te2-  Te1  1  0.08080033  0.74746700  0.08080033  1.0
  Te2-  Te1  1  0.08080033  0.74746700  0.41413367  1.0
  Te2-  Te1  1  0.08080033  0.74746700  0.74746700  1.0
  Te2-  Te1  1  0.41413367  0.08080033  0.08080033  1.0
  Te2-  Te1  1  0.41413367  0.08080033  0.41413367  1.0
  Te2-  Te1  1  0.41413367  0.08080033  0.74746700  1.0
  Te2-  Te1  1  0.41413367  0.41413367  0.08080033  1.0
  Te2-  Te1  1  0.41413367  0.41413367  0.41413367  1.0
  Te2-  Te1  1  0.41413367  0.41413367  0.74746700  1.0
  Te2-  Te1  1  0.41413367  0.74746700  0.08080033  1.0
  Te2-  Te1  1  0.41413367  0.74746700  0.41413367  1.0
  Te2-  Te1  1  0.41413367  0.74746700  0.74746700  1.0
  Te2-  Te1  1  0.74746700  0.08080033  0.08080033  1.0
  Te2-  Te1  1  0.74746700  0.08080033  0.41413367  1.0
  Te2-  Te1  1  0.74746700  0.08080033  0.74746700  1.0
  Te2-  Te1  1  0.74746700  0.41413367  0.08080033  1.0
  Te2-  Te1  1  0.74746700  0.41413367  0.41413367  1.0
  Te2-  Te1  1  0.74746700  0.41413367  0.74746700  1.0
  Te2-  Te1  1  0.74746700  0.74746700  0.08080033  1.0
  Te2-  Te1  1  0.74746700  0.74746700  0.41413367  1.0
  Te2-  Te1  1  0.74746700  0.74746700  0.74746700  1.0
































































































































































