# generated using pymatgen
data_V85Zn86O256
_symmetry_space_group_name_H-M   'P 1'
_cell_length_a   16.97495026
_cell_length_b   16.95794447
_cell_length_c   16.96952419
_cell_angle_alpha   89.87461242
_cell_angle_beta   89.90195940
_cell_angle_gamma   89.91175179
_symmetry_Int_Tables_number   1
_chemical_formula_structural   V85Zn86O256
_chemical_formula_sum   'V85 Zn86 O256'
_cell_volume   4884.82709692
_cell_formula_units_Z   1
loop_
 _symmetry_equiv_pos_site_id
 _symmetry_equiv_pos_as_xyz
  1  'x, y, z'
loop_
 _atom_site_type_symbol
 _atom_site_label
 _atom_site_symmetry_multiplicity
 _atom_site_fract_x
 _atom_site_fract_y
 _atom_site_fract_z
 _atom_site_occupancy
  V  V0  1  0.24951327  0.75579710  0.50037154  1
  V  V1  1  0.74829605  0.75032798  0.49758261  1
  V  V2  1  0.01062194  0.11671446  0.12855335  1
  V  V3  1  0.37264611  0.25096828  0.62292036  1
  V  V4  1  0.62716367  0.37522270  0.24718548  1
  V  V5  1  0.62570729  0.88032575  0.24068697  1
  V  V6  1  0.24364087  0.74529018  0.00028802  1
  V  V7  1  0.87147469  0.50442489  0.36749901  1
  V  V8  1  0.87232656  0.87420864  0.49815896  1
  V  V9  1  0.24018726  0.00245085  0.25002465  1
  V  V10  1  0.62665521  0.12208657  0.50241109  1
  V  V11  1  0.75428817  0.74887153  0.01068262  1
  V  V12  1  0.62456740  0.50563737  0.12290025  1
  V  V13  1  0.87506227  0.61432163  0.74965550  1
  V  V14  1  0.13132562  0.12622333  0.00423108  1
  V  V15  1  0.24511534  0.50129433  0.25259148  1
  V  V16  1  0.74953391  0.87284745  0.62774884  1
  V  V17  1  0.75074209  0.62410942  0.87264595  1
  V  V18  1  0.00827560  -0.00433874  0.00268949  1
  V  V19  1  0.37369264  0.24653809  0.12818020  1
  V  V20  1  0.75457447  0.01346703  0.76092399  1
  V  V21  1  0.50118652  0.75055557  0.75373289  1
  V  V22  1  -0.00076595  0.50274620  0.49881992  1
  V  V23  1  0.62420745  0.63224078  -0.00585369  1
  V  V24  1  0.50515711  0.87006092  0.87874914  1
  V  V25  1  0.24947431  0.12918147  0.88085791  1
  V  V26  1  0.00588348  0.75657126  0.74510725  1
  V  V27  1  0.37392607  0.50167172  0.87505597  1
  V  V28  1  0.50094266  0.62555705  0.62578432  1
  V  V29  1  0.03924069  0.25630255  0.78082062  1
  V  V30  1  0.37515342  0.49707836  0.37524238  1
  V  V31  1  0.37031234  0.37051817  0.50372343  1
  V  V32  1  0.74982399  -0.00378119  0.22391308  1
  V  V33  1  0.37398281  0.62611873  0.75158309  1
  V  V34  1  0.50148835  0.37646622  0.87637922  1
  V  V35  1  0.37927255  0.74727686  0.12687497  1
  V  V36  1  0.87543977  0.74836831  0.62531364  1
  V  V37  1  -0.00247508  0.37607119  0.37027984  1
  V  V38  1  0.50823642  -0.00265006  0.00705484  1
  V  V39  1  -0.00549657  0.62472138  0.11065923  1
  V  V40  1  0.49941510  0.37203067  0.37565849  1
  V  V41  1  0.12184024  0.50893897  0.11296782  1
  V  V42  1  0.74990243  0.25062028  0.49901001  1
  V  V43  1  0.24167622  -0.00510919  0.75158085  1
  V  V44  1  0.37504360  0.37639112  0.00180718  1
  V  V45  1  0.23411274  0.87622631  0.13306240  1
  V  V46  1  0.74496009  0.62862378  0.37199287  1
  V  V47  1  0.38175431  0.62578948  0.24788977  1
  V  V48  1  0.00519680  0.87419100  0.36909865  1
  V  V49  1  -0.00519075  0.24871718  0.24386831  1
  V  V50  1  0.25417012  0.12192584  0.37291062  1
  V  V51  1  0.49907150  0.50764755  0.00569349  1
  V  V52  1  0.12450012  0.74892930  0.87431518  1
  V  V53  1  0.89430891  0.37606505  -0.00519314  1
  V  V54  1  -0.00403441  0.00340807  0.50468265  1
  V  V55  1  0.86854757  -0.00063263  0.37241879  1
  V  V56  1  0.63028801  0.24771269  0.87770964  1
  V  V57  1  0.50089994  0.12233701  0.12582271  1
  V  V58  1  0.62539134  0.50140925  0.62569230  1
  V  V59  1  0.37376176  0.87562011  0.00305021  1
  V  V60  1  0.37397653  0.75199763  0.62544652  1
  V  V61  1  0.62336744  -0.00063034  0.62619647  1
  V  V62  1  0.87286806  0.37595247  0.49804833  1
  V  V63  1  -0.00180428  0.87738353  0.86982002  1
  V  V64  1  0.49764419  0.24490789  0.24864173  1
  V  V65  1  0.75392004  0.36365756  0.11241469  1
  V  V66  1  0.62826445  0.86869398  0.75703032  1
  V  V67  1  0.37825409  0.12189695  0.75376383  1
  V  V68  1  0.87208462  0.86952635  0.01159418  1
  V  V69  1  0.62810968  0.12810270  -0.00188151  1
  V  V70  1  0.62597145  0.25064420  0.37478121  1
  V  V71  1  0.12322112  0.24773494  0.37418708  1
  V  V72  1  0.88057939  0.23514784  0.63264348  1
  V  V73  1  0.38575230  0.88579559  0.49716162  1
  V  V74  1  0.75099805  0.38008788  0.62823960  1
  V  V75  1  0.24914579  0.37706368  0.12573821  1
  V  V76  1  0.62700450  0.37893833  0.75120425  1
  V  V77  1  0.87451842  0.12681048  0.24029543  1
  V  V78  1  0.49870225  0.76035672  0.25717579  1
  V  V79  1  -0.00210882  0.74946171  0.24473599  1
  V  V80  1  0.50175757  0.12283892  0.62604661  1
  V  V81  1  0.12369177  0.62742047  0.49856299  1
  V  V82  1  0.25030240  0.62623976  0.37586982  1
  V  V83  1  0.24640453  0.49556267  0.74120977  1
  V  V84  1  0.11709610  0.12091269  0.50512060  1
  Zn  Zn85  1  0.87670991  0.02333622  0.87477936  1
  Zn  Zn86  1  0.37605740  -0.00030667  0.87828983  1
  Zn  Zn87  1  0.24221406  0.87419404  0.63089111  1
  Zn  Zn88  1  0.62058441  0.62760319  0.49733577  1
  Zn  Zn89  1  0.74975148  0.12599398  0.36808488  1
  Zn  Zn90  1  0.24837059  0.25325053  -0.00091206  1
  Zn  Zn91  1  -0.00010716  0.62411365  0.62428461  1
  Zn  Zn92  1  0.10904578  -0.00468327  0.63815620  1
  Zn  Zn93  1  0.24370765  0.62262002  0.87767535  1
  Zn  Zn94  1  0.86592274  0.63653531  0.23572103  1
  Zn  Zn95  1  0.74951451  0.50150455  0.24416039  1
  Zn  Zn96  1  0.61785433  0.76448847  0.37783671  1
  Zn  Zn97  1  0.12953257  0.75711257  0.36673165  1
  Zn  Zn98  1  0.39471868  -0.00991202  0.35953756  1
  Zn  Zn99  1  0.87301417  0.49406001  0.87414240  1
  Zn  Zn100  1  0.12192205  0.37660499  0.24932454  1
  Zn  Zn101  1  0.79153756  0.20724868  -0.04386646  1
  Zn  Zn102  1  0.12538291  0.49056246  0.62156415  1
  Zn  Zn103  1  0.19361464  0.33230688  0.67698754  1
  Zn  Zn104  1  0.49841170  0.50063308  0.49941603  1
  Zn  Zn105  1  0.24503161  0.24652563  0.50536161  1
  Zn  Zn106  1  0.50018916  0.25049290  0.75303309  1
  Zn  Zn107  1  0.18652387  0.18667744  0.18952335  1
  Zn  Zn108  1  0.18751179  0.16782690  0.68838356  1
  Zn  Zn109  1  0.18394677  0.68965116  0.18773362  1
  Zn  Zn110  1  0.18661356  0.68280048  0.68518626  1
  Zn  Zn111  1  0.68561434  0.18504281  0.18283634  1
  Zn  Zn112  1  0.69122842  0.19420266  0.69047139  1
  Zn  Zn113  1  0.68139618  0.68928434  0.18722090  1
  Zn  Zn114  1  0.69029730  0.68575829  0.68941096  1
  Zn  Zn115  1  0.31145984  0.31092489  0.31411840  1
  Zn  Zn116  1  0.31573532  0.31105377  0.81548849  1
  Zn  Zn117  1  0.31371071  0.81796559  0.31494997  1
  Zn  Zn118  1  0.31465593  0.81239445  0.81669021  1
  Zn  Zn119  1  0.81083560  0.31556062  0.30770669  1
  Zn  Zn120  1  0.81871250  0.31699286  0.81073587  1
  Zn  Zn121  1  0.81187428  0.81483027  0.30543749  1
  Zn  Zn122  1  0.81514076  0.80725504  0.81816100  1
  Zn  Zn123  1  0.18502047  0.43288516  0.44170704  1
  Zn  Zn124  1  0.18784093  0.44137693  0.93558797  1
  Zn  Zn125  1  0.18752899  0.94021823  0.43893773  1
  Zn  Zn126  1  0.18621054  0.93472633  0.93388276  1
  Zn  Zn127  1  0.68546422  0.44027536  0.43807549  1
  Zn  Zn128  1  0.68940887  0.44133195  0.93616193  1
  Zn  Zn129  1  0.68278892  0.93624667  0.43354872  1
  Zn  Zn130  1  0.69074731  0.93691048  0.94181182  1
  Zn  Zn131  1  0.31519764  0.05788777  0.06976756  1
  Zn  Zn132  1  0.30791585  0.06510952  0.56287734  1
  Zn  Zn133  1  0.31055576  0.56381723  0.06474677  1
  Zn  Zn134  1  0.31600741  0.56404399  0.56123251  1
  Zn  Zn135  1  0.83004620  0.06996977  0.04435451  1
  Zn  Zn136  1  0.80831858  0.05775868  0.56485500  1
  Zn  Zn137  1  0.81163016  0.55478522  0.05531598  1
  Zn  Zn138  1  0.81126884  0.56500021  0.55955102  1
  Zn  Zn139  1  0.43801357  0.43549509  0.18878071  1
  Zn  Zn140  1  0.43759498  0.43835246  0.68835737  1
  Zn  Zn141  1  0.43086757  0.93753941  0.18821476  1
  Zn  Zn142  1  0.43463537  0.93549015  0.68579030  1
  Zn  Zn143  1  0.93598864  0.43839289  0.17990521  1
  Zn  Zn144  1  0.94385091  0.42487950  0.68851165  1
  Zn  Zn145  1  0.93848565  0.93577741  0.18764636  1
  Zn  Zn146  1  0.92967787  0.93893529  0.68957563  1
  Zn  Zn147  1  0.06419106  0.05788172  0.31503225  1
  Zn  Zn148  1  0.05935405  0.07351565  0.81805000  1
  Zn  Zn149  1  0.05998058  0.57047134  0.31008359  1
  Zn  Zn150  1  0.06702253  0.56995356  0.80572563  1
  Zn  Zn151  1  0.57038753  0.05644566  0.31036003  1
  Zn  Zn152  1  0.56459225  0.05761232  0.81700305  1
  Zn  Zn153  1  0.56121242  0.56223820  0.31090460  1
  Zn  Zn154  1  0.56368451  0.56254865  0.81430739  1
  Zn  Zn155  1  0.45964921  0.15042964  0.41590673  1
  Zn  Zn156  1  0.43998673  0.18924358  0.93957005  1
  Zn  Zn157  1  0.43538142  0.68899986  0.43864000  1
  Zn  Zn158  1  0.43399853  0.68771313  0.93811220  1
  Zn  Zn159  1  0.93386653  0.18671423  0.43360995  1
  Zn  Zn160  1  0.95553159  0.19721560  0.94108916  1
  Zn  Zn161  1  0.93461162  0.68920492  0.43200346  1
  Zn  Zn162  1  0.93450040  0.68966102  0.93111905  1
  Zn  Zn163  1  0.06750194  0.31140953  0.06670897  1
  Zn  Zn164  1  0.05601135  0.31190205  0.55985569  1
  Zn  Zn165  1  0.05869824  0.80745278  0.05970280  1
  Zn  Zn166  1  0.06331860  0.81926471  0.56158543  1
  Zn  Zn167  1  0.56377819  0.31426036  0.06159648  1
  Zn  Zn168  1  0.55836051  0.31062270  0.56386178  1
  Zn  Zn169  1  0.56493934  0.80910824  0.06800503  1
  Zn  Zn170  1  0.56287562  0.81206818  0.56500087  1
  O  O171  1  0.11874499  0.11893329  0.12249195  1
  O  O172  1  0.12454773  0.11466385  0.60979454  1
  O  O173  1  0.11687688  0.61473674  0.12859827  1
  O  O174  1  0.12241652  0.61798973  0.60922727  1
  O  O175  1  0.60765009  0.13463829  0.11383908  1
  O  O176  1  0.62147194  0.11976093  0.62364570  1
  O  O177  1  0.62824818  0.61296267  0.11365404  1
  O  O178  1  0.62127764  0.61573501  0.62776301  1
  O  O179  1  0.38098881  0.37659119  0.38091092  1
  O  O180  1  0.38132982  0.38107311  0.88235434  1
  O  O181  1  0.37448712  0.87686189  0.39176315  1
  O  O182  1  0.38369645  0.87514942  0.88915366  1
  O  O183  1  0.87662410  0.38439123  0.37801604  1
  O  O184  1  0.87661826  0.37771137  0.88560792  1
  O  O185  1  0.87972839  0.88297450  0.37801243  1
  O  O186  1  0.89014545  0.87272433  0.88166567  1
  O  O187  1  0.24992781  0.00594228  0.36562262  1
  O  O188  1  0.25492302  0.00708691  0.86883167  1
  O  O189  1  0.25469813  0.50372746  0.36872995  1
  O  O190  1  0.25564086  0.50291928  0.86495933  1
  O  O191  1  0.76190666  0.00268531  0.37328439  1
  O  O192  1  0.75025776  -0.00182248  0.86372203  1
  O  O193  1  0.75586576  0.50818054  0.37377856  1
  O  O194  1  0.75178259  0.51714855  0.87781937  1
  O  O195  1  0.24036711  0.49957660  0.13380259  1
  O  O196  1  0.25656900  0.50188720  0.63837539  1
  O  O197  1  0.25146214  0.98587144  0.13556706  1
  O  O198  1  0.25100041  1.00554810  0.64626877  1
  O  O199  1  0.73778348  0.49110802  0.12349551  1
  O  O200  1  0.74091965  0.48904193  0.61649713  1
  O  O201  1  0.76040495  1.00441720  0.12724394  1
  O  O202  1  0.74239697  0.99313272  0.63869317  1
  O  O203  1  -0.00304396  0.36543795  0.25140621  1
  O  O204  1  0.00065691  0.34377851  0.74215717  1
  O  O205  1  -0.00486866  0.86366318  0.25627585  1
  O  O206  1  -0.00742797  0.86694148  0.75563666  1
  O  O207  1  0.50611242  0.36452935  0.25415670  1
  O  O208  1  0.50950144  0.37543058  0.75756649  1
  O  O209  1  0.50475196  0.86897681  0.24678373  1
  O  O210  1  0.50672320  0.87269614  0.75932064  1
  O  O211  1  0.50978931  0.13809988  0.23926015  1
  O  O212  1  0.49408056  0.12324060  0.74480200  1
  O  O213  1  0.48595130  0.63252003  0.25190125  1
  O  O214  1  0.49508863  0.63079935  0.74718229  1
  O  O215  1  0.99475391  0.12653624  0.24581699  1
  O  O216  1  1.01029734  0.15916751  0.75999641  1
  O  O217  1  0.99167183  0.63650238  0.24539040  1
  O  O218  1  0.99311963  0.63554917  0.74547838  1
  O  O219  1  0.37554237  0.25763209  0.01226944  1
  O  O220  1  0.37394236  0.25357673  0.51358637  1
  O  O221  1  0.36868086  0.75728689  0.00819522  1
  O  O222  1  0.36639067  0.75709299  0.50536897  1
  O  O223  1  0.87765293  0.27019819  -0.00147858  1
  O  O224  1  0.86359485  0.25477284  0.50020446  1
  O  O225  1  0.87186656  0.76177078  -0.00262560  1
  O  O226  1  0.86893245  0.75491088  0.50449326  1
  O  O227  1  0.12028179  0.23892808  0.48839141  1
  O  O228  1  0.13207645  0.23234276  1.01309630  1
  O  O229  1  0.13287468  0.74261792  0.49820927  1
  O  O230  1  0.13536482  0.75542807  0.99068461  1
  O  O231  1  0.63323456  0.24512380  0.49757893  1
  O  O232  1  0.61703898  0.24223810  0.98927872  1
  O  O233  1  0.63182560  0.75040607  0.49663578  1
  O  O234  1  0.63162263  0.73871103  1.00593141  1
  O  O235  1  0.49235410  0.24690455  0.13038717  1
  O  O236  1  0.49343443  0.23915618  0.63204799  1
  O  O237  1  0.48477076  0.75268239  0.13480521  1
  O  O238  1  0.49444908  0.74550062  0.63427269  1
  O  O239  1  1.00773461  0.23689155  0.13861795  1
  O  O240  1  0.97874959  0.24828466  0.61086557  1
  O  O241  1  1.00528660  0.73634562  0.13392378  1
  O  O242  1  0.99404926  0.75123288  0.62959557  1
  O  O243  1  0.00508643  0.25381439  0.36573416  1
  O  O244  1  0.02832237  0.25961702  0.88202174  1
  O  O245  1  -0.00056540  0.75800200  0.36519551  1
  O  O246  1  0.00596632  0.75690017  0.86525640  1
  O  O247  1  0.50594153  0.24963739  0.36589432  1
  O  O248  1  0.50833963  0.25905673  0.87393833  1
  O  O249  1  0.49923907  0.74640950  0.36191257  1
  O  O250  1  0.49456082  0.76254580  0.87146007  1
  O  O251  1  0.23552163  0.12376828  0.49155423  1
  O  O252  1  0.24700359  0.11877511  0.99802881  1
  O  O253  1  0.24485595  0.63313607  0.49563841  1
  O  O254  1  0.25709442  0.64100861  0.99823075  1
  O  O255  1  0.74076480  0.13503630  0.50228704  1
  O  O256  1  0.73034759  0.12527921  1.01456045  1
  O  O257  1  0.74646610  0.63222822  0.49006918  1
  O  O258  1  0.74358070  0.62975808  0.99413017  1
  O  O259  1  0.25494501  0.37492401  0.00566080  1
  O  O260  1  0.26603004  0.36647179  0.49038542  1
  O  O261  1  0.25742332  0.86996550  0.00859293  1
  O  O262  1  0.25583437  0.86446084  0.49894951  1
  O  O263  1  0.74585326  0.37336609  0.01021244  1
  O  O264  1  0.75152074  0.36768019  0.50597970  1
  O  O265  1  0.76455816  0.86683436  -0.00592517  1
  O  O266  1  0.75318297  0.87091872  0.50578858  1
  O  O267  1  0.13596326  0.50202002  0.24929542  1
  O  O268  1  0.14224049  0.50664195  0.74240980  1
  O  O269  1  0.13900161  0.99411103  0.25496357  1
  O  O270  1  0.13797254  1.01113312  0.75451800  1
  O  O271  1  0.62184931  0.49423533  0.23850399  1
  O  O272  1  0.62091507  0.48983226  0.73956193  1
  O  O273  1  0.64342315  1.00002739  0.24488418  1
  O  O274  1  0.63429171  0.98984341  0.74604040  1
  O  O275  1  0.35318849  -0.01295183  0.25347058  1
  O  O276  1  0.37016427  0.01031451  0.75241466  1
  O  O277  1  0.36694022  0.50699546  0.25211383  1
  O  O278  1  0.36920238  0.50608371  0.75553182  1
  O  O279  1  0.86487549  0.00510812  0.25233864  1
  O  O280  1  0.85980433  0.00159257  0.75490845  1
  O  O281  1  0.87448736  0.50070844  0.26108072  1
  O  O282  1  0.89150648  0.51003927  0.75128327  1
  O  O283  1  0.11675813  0.36478785  0.37365767  1
  O  O284  1  0.08536398  0.41990690  0.87596001  1
  O  O285  1  0.10877324  0.87519194  0.38183566  1
  O  O286  1  0.11006171  0.86529772  0.87804114  1
  O  O287  1  0.62004968  0.37013843  0.36967996  1
  O  O288  1  0.62170476  0.37210361  0.86853970  1
  O  O289  1  0.62928362  0.87815615  0.35440002  1
  O  O290  1  0.61642169  0.87923412  0.86838064  1
  O  O291  1  0.38612833  0.13660364  0.11953065  1
  O  O292  1  0.38380716  0.12884778  0.63158172  1
  O  O293  1  0.36456803  0.63639221  0.13697108  1
  O  O294  1  0.38153555  0.63189167  0.63126312  1
  O  O295  1  0.88917390  0.12157171  0.13493274  1
  O  O296  1  0.86575053  0.13671919  0.61960611  1
  O  O297  1  0.89054452  0.61022349  0.12330503  1
  O  O298  1  0.87536069  0.62973073  0.63144559  1
  O  O299  1  0.25925811  0.25573271  0.12919181  1
  O  O300  1  0.26082846  0.24269692  0.62683048  1
  O  O301  1  0.25452405  0.75954860  0.12050139  1
  O  O302  1  0.25479293  0.74912776  0.61598678  1
  O  O303  1  0.74641031  0.26418165  0.12633399  1
  O  O304  1  0.75414676  0.25993026  0.61493484  1
  O  O305  1  0.75195805  0.74105539  0.11088352  1
  O  O306  1  0.75500393  0.75424447  0.61873869  1
  O  O307  1  0.23489517  0.24330185  0.37027056  1
  O  O308  1  0.25966949  0.23458729  0.88140841  1
  O  O309  1  0.24974035  0.74569083  0.38357008  1
  O  O310  1  0.24166843  0.75350744  0.88287821  1
  O  O311  1  0.74573033  0.25066551  0.38366179  1
  O  O312  1  0.73492125  0.25644389  0.87036320  1
  O  O313  1  0.75048168  0.74282879  0.37796196  1
  O  O314  1  0.75729620  0.73428217  0.88841885  1
  O  O315  1  0.01368885  0.11632438  0.01106028  1
  O  O316  1  0.00465387  0.11354150  0.48746474  1
  O  O317  1  -0.00090169  0.63444209  0.01228596  1
  O  O318  1  0.00543351  0.61934796  0.49667607  1
  O  O319  1  0.50490498  0.11525698  0.00569805  1
  O  O320  1  0.51701344  0.13391012  0.51651810  1
  O  O321  1  0.50701239  0.61607918  -0.00602405  1
  O  O322  1  0.50052465  0.62408732  0.50914247  1
  O  O323  1  0.48973401  0.37259788  0.49285379  1
  O  O324  1  0.49536066  0.38644819  0.99567156  1
  O  O325  1  0.48491228  0.87386261  0.50892087  1
  O  O326  1  0.49602670  0.87784465  0.99869296  1
  O  O327  1  0.99174477  0.38479161  0.48858056  1
  O  O328  1  0.99257342  0.37588125  1.01223850  1
  O  O329  1  0.99009582  0.88303587  0.48937591  1
  O  O330  1  0.99358639  0.87800949  0.99402659  1
  O  O331  1  0.49276715  0.49120756  0.37397948  1
  O  O332  1  0.49480631  0.49586869  0.88478703  1
  O  O333  1  0.48863726  1.04319197  0.38242203  1
  O  O334  1  0.49733064  0.98758455  0.88685718  1
  O  O335  1  0.99125596  0.49863593  0.37936713  1
  O  O336  1  1.03503054  0.47995044  0.87651976  1
  O  O337  1  0.98630318  0.99282807  0.37642743  1
  O  O338  1  0.99806440  0.99562202  0.88179846  1
  O  O339  1  -0.00309290  0.00628667  0.11621934  1
  O  O340  1  -0.00863542  -0.00446742  0.60880202  1
  O  O341  1  0.01420301  0.51085201  0.13085895  1
  O  O342  1  -0.00165508  0.49775540  0.60752064  1
  O  O343  1  0.49213053  0.00959184  0.11806083  1
  O  O344  1  0.51321397  0.00885688  0.63435063  1
  O  O345  1  0.50805687  0.49319057  0.11412475  1
  O  O346  1  0.50824839  0.50660296  0.62462488  1
  O  O347  1  0.24994036  0.38704673  0.24598528  1
  O  O348  1  0.25680846  0.38959840  0.75412886  1
  O  O349  1  0.24531441  0.87400031  0.23810404  1
  O  O350  1  0.25652585  0.89223523  0.75606361  1
  O  O351  1  0.74439395  0.37862594  0.23762043  1
  O  O352  1  0.73995961  0.37223787  0.73797965  1
  O  O353  1  0.74818816  0.89108020  0.24435246  1
  O  O354  1  0.74312242  0.87486594  0.74842323  1
  O  O355  1  0.24460192  0.11043063  0.25512104  1
  O  O356  1  0.26007935  0.11505410  0.76265014  1
  O  O357  1  0.25708189  0.61924157  0.25575382  1
  O  O358  1  0.25730214  0.61614419  0.75212249  1
  O  O359  1  0.75703920  0.11519236  0.24556808  1
  O  O360  1  0.74122073  0.11155993  0.75094463  1
  O  O361  1  0.75066555  0.62353647  0.25666857  1
  O  O362  1  0.76457728  0.63250495  0.75817063  1
  O  O363  1  0.35210914  0.13750951  0.38273431  1
  O  O364  1  0.37266536  0.12229664  0.86961378  1
  O  O365  1  0.36919620  0.61856069  0.36748277  1
  O  O366  1  0.37244201  0.61962214  0.86867465  1
  O  O367  1  0.87315322  0.11595636  0.36074108  1
  O  O368  1  0.86896767  0.12375625  0.93047722  1
  O  O369  1  0.86265961  0.61773443  0.37387352  1
  O  O370  1  0.87292080  0.61801488  0.86646527  1
  O  O371  1  0.13008933  0.38974990  0.12939462  1
  O  O372  1  0.13559661  0.38029122  0.59623904  1
  O  O373  1  0.13668665  0.87052814  0.11902169  1
  O  O374  1  0.13075564  0.88629863  0.61852312  1
  O  O375  1  0.63278173  0.38242958  0.12657940  1
  O  O376  1  0.62953443  0.38002032  0.63103921  1
  O  O377  1  0.62286495  0.87501519  0.13868717  1
  O  O378  1  0.62837980  0.88273640  0.63502862  1
  O  O379  1  0.11401789  0.25022468  0.25837242  1
  O  O380  1  0.14081115  0.25495539  0.74837737  1
  O  O381  1  0.10741868  0.74440707  0.25334343  1
  O  O382  1  0.11347695  0.74616002  0.75318948  1
  O  O383  1  0.61843928  0.25500107  0.25445272  1
  O  O384  1  0.62240318  0.26140506  0.75711318  1
  O  O385  1  0.61414569  0.75847163  0.24966084  1
  O  O386  1  0.61903857  0.76230641  0.74441244  1
  O  O387  1  0.38620942  0.25640545  0.24036884  1
  O  O388  1  0.37562759  0.23770356  0.74358113  1
  O  O389  1  0.37846504  0.74595501  0.24590539  1
  O  O390  1  0.38002655  0.74688735  0.74593102  1
  O  O391  1  0.88420430  0.23897573  0.25761421  1
  O  O392  1  0.86480066  0.24975617  0.73171147  1
  O  O393  1  0.88922709  0.75104707  0.24981471  1
  O  O394  1  0.88587250  0.74163109  0.74451155  1
  O  O395  1  0.37571982  0.48982408  0.49412716  1
  O  O396  1  0.38081480  0.49791279  0.99822951  1
  O  O397  1  0.36850831  0.98658477  0.50480505  1
  O  O398  1  0.38487130  0.98825289  1.00352414  1
  O  O399  1  0.88057618  0.49786175  0.48883367  1
  O  O400  1  0.87491456  0.48351059  0.99360093  1
  O  O401  1  0.87685323  0.99631534  0.49108122  1
  O  O402  1  0.88778661  0.98163162  0.99543936  1
  O  O403  1  0.11462770  0.00368082  -0.00254185  1
  O  O404  1  0.10991441  0.00780890  0.49245451  1
  O  O405  1  0.13225572  0.50515913  0.01509696  1
  O  O406  1  0.11481249  0.51047783  0.49228344  1
  O  O407  1  0.61381229  0.00694456  -0.00392225  1
  O  O408  1  0.63735947  0.00935144  0.51501510  1
  O  O409  1  0.61631169  0.50817497  0.00460125  1
  O  O410  1  0.61971704  0.50114738  0.51252657  1
  O  O411  1  0.36926693  0.36893629  0.12105656  1
  O  O412  1  0.38303810  0.36336768  0.61789647  1
  O  O413  1  0.36615094  0.86502282  0.11721232  1
  O  O414  1  0.36704376  0.86969314  0.61735307  1
  O  O415  1  0.86061637  0.38256556  0.11322837  1
  O  O416  1  0.86458877  0.37049495  0.61705400  1
  O  O417  1  0.88038683  0.87361387  0.11026465  1
  O  O418  1  0.86752491  0.86874917  0.61864031  1
  O  O419  1  0.12955315  0.13136570  0.38010916  1
  O  O420  1  0.13920942  0.11984968  0.89146713  1
  O  O421  1  0.13113040  0.62833564  0.38468194  1
  O  O422  1  0.12537380  0.64291533  0.87302937  1
  O  O423  1  0.63045905  0.13180045  0.38639834  1
  O  O424  1  0.61728682  0.13523751  0.88427028  1
  O  O425  1  0.63543645  0.62545415  0.37436462  1
  O  O426  1  0.63278674  0.62170598  0.88498993  1
