# generated using pymatgen
data_V85Zn86O256
_symmetry_space_group_name_H-M   'P 1'
_cell_length_a   16.98228313
_cell_length_b   16.96601802
_cell_length_c   16.97223944
_cell_angle_alpha   89.89233828
_cell_angle_beta   90.01896867
_cell_angle_gamma   89.93772558
_symmetry_Int_Tables_number   1
_chemical_formula_structural   V85Zn86O256
_chemical_formula_sum   'V85 Zn86 O256'
_cell_volume   4890.05905395
_cell_formula_units_Z   1
loop_
 _symmetry_equiv_pos_site_id
 _symmetry_equiv_pos_as_xyz
  1  'x, y, z'
loop_
 _atom_site_type_symbol
 _atom_site_label
 _atom_site_symmetry_multiplicity
 _atom_site_fract_x
 _atom_site_fract_y
 _atom_site_fract_z
 _atom_site_occupancy
  V  V0  1  0.25102344  -0.00737415  0.74360920  1
  V  V1  1  0.37957409  0.74648185  0.12717768  1
  V  V2  1  0.75310562  0.74950793  0.50181150  1
  V  V3  1  0.38120240  0.24767794  0.13548326  1
  V  V4  1  0.00512259  0.37448399  0.36988020  1
  V  V5  1  0.62865404  0.00023004  0.62360854  1
  V  V6  1  0.00327849  -0.00044704  0.49787779  1
  V  V7  1  0.74829045  0.25534612  0.00810118  1
  V  V8  1  0.75146582  0.12740486  0.87506795  1
  V  V9  1  -0.00369208  0.75629033  0.76380363  1
  V  V10  1  0.25345304  0.25096943  -0.00484801  1
  V  V11  1  0.87170246  0.62635274  0.24381680  1
  V  V12  1  0.00894507  0.36727715  0.86782945  1
  V  V13  1  0.75025490  0.35999014  0.61805128  1
  V  V14  1  0.62484476  0.36321175  0.24982612  1
  V  V15  1  0.12498847  0.63058462  -0.00307429  1
  V  V16  1  0.49284741  0.37562148  0.88121355  1
  V  V17  1  0.24654967  0.75425014  -0.00203309  1
  V  V18  1  0.49801562  0.62410233  0.62368391  1
  V  V19  1  0.62849368  0.49974513  0.62362836  1
  V  V20  1  0.13008904  -0.00777660  0.62345607  1
  V  V21  1  0.50045656  0.74000560  0.25458492  1
  V  V22  1  0.49976507  0.12230771  0.13780518  1
  V  V23  1  0.37843231  0.50032514  0.37267023  1
  V  V24  1  0.49851826  -0.01138824  0.49404821  1
  V  V25  1  0.24988869  0.75503667  0.51435407  1
  V  V26  1  0.12234845  0.62125195  0.50153334  1
  V  V27  1  0.87370014  -0.00046960  0.37315771  1
  V  V28  1  0.75452716  0.00090827  0.74997913  1
  V  V29  1  0.12293979  0.00368504  0.11628949  1
  V  V30  1  0.24409477  0.13015841  0.87287884  1
  V  V31  1  0.87261328  0.49913667  0.37238820  1
  V  V32  1  0.62551129  0.37536298  0.74911089  1
  V  V33  1  0.25084367  0.24852082  0.49746420  1
  V  V34  1  0.62402982  0.62615794  0.00070345  1
  V  V35  1  0.00139122  0.49456065  0.00088909  1
  V  V36  1  0.63002270  0.13727611  0.49811431  1
  V  V37  1  0.24964969  0.87772527  0.12770431  1
  V  V38  1  0.12661489  0.49351863  0.13206024  1
  V  V39  1  0.62393424  0.25107213  0.87714105  1
  V  V40  1  -0.00526522  0.74962395  0.24728426  1
  V  V41  1  0.25918414  0.62332653  0.87822604  1
  V  V42  1  0.25570845  0.00923804  0.24787712  1
  V  V43  1  0.62538893  0.62523835  0.49739709  1
  V  V44  1  0.74938425  -0.00109904  0.24317070  1
  V  V45  1  0.62812255  0.87581560  0.75240350  1
  V  V46  1  0.48901407  0.49928746  0.00175169  1
  V  V47  1  0.37802834  0.00080885  0.87437111  1
  V  V48  1  -0.00304894  0.62751745  0.12551986  1
  V  V49  1  0.00725835  0.25320247  0.24720441  1
  V  V50  1  0.61893496  0.50353900  0.12678466  1
  V  V51  1  0.74929320  0.86652596  0.12485480  1
  V  V52  1  0.37614762  0.12718342  0.74976805  1
  V  V53  1  -0.01476088  0.63916349  0.62282260  1
  V  V54  1  0.26122594  0.12467881  0.36914601  1
  V  V55  1  0.74829508  0.13654491  0.37820467  1
  V  V56  1  0.00030927  0.12281690  0.11716747  1
  V  V57  1  0.37352357  0.76112161  0.62188285  1
  V  V58  1  0.12619486  0.12203198  0.49264003  1
  V  V59  1  0.88541277  0.00221759  0.87833294  1
  V  V60  1  0.12849570  0.74898074  0.37350518  1
  V  V61  1  0.75406110  0.87333026  0.62523783  1
  V  V62  1  0.24850900  0.49467702  0.25139034  1
  V  V63  1  0.61472523  0.88474060  0.25098968  1
  V  V64  1  0.87613671  0.14228449  0.74717828  1
  V  V65  1  0.37535450  0.24976306  0.62558571  1
  V  V66  1  0.87569178  0.87159344  0.50423990  1
  V  V67  1  0.74740854  0.62569118  0.37245699  1
  V  V68  1  0.50299454  0.35785637  0.37019605  1
  V  V69  1  0.88393852  0.87549306  0.00489590  1
  V  V70  1  0.00249583  0.87528863  0.37341695  1
  V  V71  1  0.87303708  0.25487047  0.12457896  1
  V  V72  1  0.63220192  0.74431121  0.87652991  1
  V  V73  1  0.37681735  0.87737382  -0.00080800  1
  V  V74  1  0.62114464  0.11939488  0.00329638  1
  V  V75  1  -0.00191225  0.49808589  0.50285378  1
  V  V76  1  0.49966908  0.74964232  0.74925154  1
  V  V77  1  0.24781221  0.38423772  0.63559122  1
  V  V78  1  0.74718992  0.49755057  0.23830002  1
  V  V79  1  0.50247380  0.12466170  0.62309858  1
  V  V80  1  -0.00428034  0.13333183  0.62240858  1
  V  V81  1  0.87100858  0.36159481  0.50227770  1
  V  V82  1  0.25815132  0.37535523  0.11827047  1
  V  V83  1  0.50168671  0.87517774  0.87670503  1
  V  V84  1  0.37603807  0.37431551  0.49681003  1
  Zn  Zn85  1  0.25197371  0.62446649  0.37439941  1
  Zn  Zn86  1  0.50188436  0.49867659  0.49584811  1
  Zn  Zn87  1  0.87514948  0.12657791  0.24832610  1
  Zn  Zn88  1  0.01402432  0.88295316  0.88428966  1
  Zn  Zn89  1  0.50466450  -0.00070007  0.00434180  1
  Zn  Zn90  1  0.61692225  0.75706160  0.37904088  1
  Zn  Zn91  1  0.10960147  0.48118664  0.65212022  1
  Zn  Zn92  1  0.86843971  0.37643046  0.00089158  1
  Zn  Zn93  1  0.13721491  0.85688342  0.75431431  1
  Zn  Zn94  1  0.01650832  0.25758604  0.74293331  1
  Zn  Zn95  1  0.85936211  0.63137853  0.74605087  1
  Zn  Zn96  1  0.38559104  -0.01420984  0.37104427  1
  Zn  Zn97  1  0.49824743  0.25069978  0.75340953  1
  Zn  Zn98  1  0.37598061  0.62061019  0.24571104  1
  Zn  Zn99  1  0.75560326  0.74785157  0.00008914  1
  Zn  Zn100  1  0.13018245  0.25454304  0.36683288  1
  Zn  Zn101  1  0.36496336  0.61926461  0.74169215  1
  Zn  Zn102  1  0.87427389  0.50458578  0.87202536  1
  Zn  Zn103  1  0.12386277  0.87699554  0.24849817  1
  Zn  Zn104  1  0.74616654  0.51189290  0.76652032  1
  Zn  Zn105  1  0.35656822  0.47840281  0.86037584  1
  Zn  Zn106  1  0.12041668  0.12916387  -0.00787998  1
  Zn  Zn107  1  0.18821649  0.18981414  0.18194418  1
  Zn  Zn108  1  0.18828345  0.18174278  0.67896852  1
  Zn  Zn109  1  0.18810153  0.68392580  0.18753151  1
  Zn  Zn110  1  0.15962448  0.65150230  0.70923356  1
  Zn  Zn111  1  0.68709278  0.18119869  0.18756752  1
  Zn  Zn112  1  0.68732702  0.18709082  0.68908183  1
  Zn  Zn113  1  0.68154548  0.68643948  0.18401877  1
  Zn  Zn114  1  0.68657624  0.68839792  0.68614201  1
  Zn  Zn115  1  0.31345926  0.31356311  0.30998400  1
  Zn  Zn116  1  0.18820236  0.31045116  0.81144288  1
  Zn  Zn117  1  0.31883914  0.81458752  0.31571143  1
  Zn  Zn118  1  0.31746918  0.80774985  0.81097993  1
  Zn  Zn119  1  0.81663956  0.31682529  0.30792522  1
  Zn  Zn120  1  0.80180926  0.34344521  0.82986160  1
  Zn  Zn121  1  0.80959372  0.81312242  0.31426365  1
  Zn  Zn122  1  0.81833887  0.81365980  0.81626683  1
  Zn  Zn123  1  0.18874227  0.43662775  0.44120315  1
  Zn  Zn124  1  0.18311876  0.44036702  0.94255016  1
  Zn  Zn125  1  0.21831045  0.92207204  0.42414873  1
  Zn  Zn126  1  0.18947771  0.94187368  0.93153836  1
  Zn  Zn127  1  0.68730164  0.43378623  0.43318585  1
  Zn  Zn128  1  0.68222398  0.44019061  0.94308055  1
  Zn  Zn129  1  0.68503877  0.94027591  0.43471098  1
  Zn  Zn130  1  0.69341016  0.93742308  0.93704886  1
  Zn  Zn131  1  0.31588367  0.06685669  0.06044693  1
  Zn  Zn132  1  0.31446892  0.05946206  0.55946219  1
  Zn  Zn133  1  0.31220045  0.56436714  0.06223001  1
  Zn  Zn134  1  0.31260261  0.56415846  0.55783824  1
  Zn  Zn135  1  0.81423809  0.06464786  0.06004163  1
  Zn  Zn136  1  0.81441251  0.06478663  0.56178596  1
  Zn  Zn137  1  0.83021043  0.58450966  0.02294393  1
  Zn  Zn138  1  0.80964567  0.55484252  0.55963962  1
  Zn  Zn139  1  0.43957735  0.43199780  0.18816508  1
  Zn  Zn140  1  0.43680222  0.43816648  0.69033615  1
  Zn  Zn141  1  0.43574720  0.94002899  0.18444392  1
  Zn  Zn142  1  0.44187103  0.93953365  0.68603563  1
  Zn  Zn143  1  0.93588891  0.43851665  0.18523068  1
  Zn  Zn144  1  0.92583231  0.44047397  0.68990709  1
  Zn  Zn145  1  0.93765190  0.93853129  0.18549690  1
  Zn  Zn146  1  0.94046269  0.94373338  0.68807446  1
  Zn  Zn147  1  0.06646641  0.06387022  0.30378666  1
  Zn  Zn148  1  0.06429452  0.06635559  0.80383877  1
  Zn  Zn149  1  0.06135149  0.56184045  0.31329263  1
  Zn  Zn150  1  0.06034089  0.55841558  0.81606723  1
  Zn  Zn151  1  0.56554845  0.06596249  0.31693681  1
  Zn  Zn152  1  0.56381168  0.06251729  0.81292446  1
  Zn  Zn153  1  0.56354789  0.55949522  0.31408117  1
  Zn  Zn154  1  0.55784863  0.56146765  0.81344208  1
  Zn  Zn155  1  0.43947106  0.17986404  0.43972987  1
  Zn  Zn156  1  0.43404642  0.19056731  0.94359550  1
  Zn  Zn157  1  0.43403251  0.69013081  0.43711808  1
  Zn  Zn158  1  0.44219521  0.68899257  0.94290421  1
  Zn  Zn159  1  0.93928394  0.18671797  0.43234647  1
  Zn  Zn160  1  0.93606603  0.19264891  0.93548606  1
  Zn  Zn161  1  0.93543422  0.68655421  0.43201305  1
  Zn  Zn162  1  0.93690764  0.68994721  0.93444341  1
  Zn  Zn163  1  0.06820320  0.30981734  0.06181955  1
  Zn  Zn164  1  0.06643321  0.31250871  0.55627066  1
  Zn  Zn165  1  0.06371685  0.81410802  0.06482062  1
  Zn  Zn166  1  0.06617900  0.81221315  0.56270866  1
  Zn  Zn167  1  0.56236879  0.31490683  0.06681688  1
  Zn  Zn168  1  0.55972995  0.31457570  0.56002875  1
  Zn  Zn169  1  0.56424695  0.81469869  0.06755106  1
  Zn  Zn170  1  0.56601639  0.81094614  0.56520975  1
  O  O171  1  0.11742555  0.11872051  0.12323694  1
  O  O172  1  0.11869875  0.11614428  0.60990615  1
  O  O173  1  0.11827232  0.61666404  0.11927609  1
  O  O174  1  0.10471917  0.62682702  0.60683173  1
  O  O175  1  0.60963785  0.13469030  0.11562831  1
  O  O176  1  0.62370935  0.11958358  0.61861126  1
  O  O177  1  0.61817185  0.61287675  0.12020241  1
  O  O178  1  0.61747779  0.61858850  0.61703324  1
  O  O179  1  0.38280757  0.38087292  0.37603194  1
  O  O180  1  0.39357059  0.36985566  0.87367085  1
  O  O181  1  0.32880535  0.89209967  0.39182801  1
  O  O182  1  0.38208806  0.87925725  0.87942342  1
  O  O183  1  0.88260052  0.38058630  0.38189222  1
  O  O184  1  0.89714517  0.37836804  0.88589778  1
  O  O185  1  0.88003452  0.88322232  0.38239769  1
  O  O186  1  0.87894923  0.88665048  0.88637506  1
  O  O187  1  0.23595604  0.01619764  0.36053860  1
  O  O188  1  0.26079755  0.00971684  0.86384242  1
  O  O189  1  0.25859946  0.49588883  0.36713748  1
  O  O190  1  0.25278478  0.51760311  0.89059874  1
  O  O191  1  0.75987822  0.00263130  0.36592441  1
  O  O192  1  0.75896436  0.00821476  0.86853739  1
  O  O193  1  0.75380157  0.50756584  0.36572111  1
  O  O194  1  0.76264034  0.45821084  0.86863935  1
  O  O195  1  0.24696624  0.49466762  0.12950985  1
  O  O196  1  0.25553459  0.48473035  0.61892493  1
  O  O197  1  0.24663823  0.99728362  0.12911333  1
  O  O198  1  0.24294185  1.00683359  0.63126645  1
  O  O199  1  0.73895946  0.50171895  0.13653316  1
  O  O200  1  0.73457201  0.49322584  0.62448172  1
  O  O201  1  0.75620527  0.99666194  0.13883947  1
  O  O202  1  0.74737475  0.99449981  0.62952806  1
  O  O203  1  -0.00745585  0.36833787  0.26008056  1
  O  O204  1  -0.00340850  0.37644365  0.76212024  1
  O  O205  1  0.00069681  0.86578068  0.25351243  1
  O  O206  1  -0.00636650  0.86134647  0.75055270  1
  O  O207  1  0.51389090  0.37721772  0.25713569  1
  O  O208  1  0.51164066  0.37174846  0.75694961  1
  O  O209  1  0.51197737  0.87877645  0.24828218  1
  O  O210  1  0.50778315  0.87007586  0.75530600  1
  O  O211  1  0.50905702  0.12444857  0.23679562  1
  O  O212  1  0.49229453  0.12470407  0.74341718  1
  O  O213  1  0.49917162  0.63765247  0.25005354  1
  O  O214  1  0.50625890  0.63259514  0.73534416  1
  O  O215  1  0.99731958  0.13527805  0.24063545  1
  O  O216  1  0.99200443  0.13030226  0.73918696  1
  O  O217  1  0.99367243  0.62969785  0.24379102  1
  O  O218  1  0.99423524  0.63718361  0.73230729  1
  O  O219  1  0.36122354  0.24754430  0.01174002  1
  O  O220  1  0.37155281  0.25180905  0.50825289  1
  O  O221  1  0.37000443  0.75774050  0.00970809  1
  O  O222  1  0.35775331  0.74517703  0.50496456  1
  O  O223  1  0.86433398  0.24982091  0.00707674  1
  O  O224  1  0.88101078  0.26269227  0.49526614  1
  O  O225  1  0.87180004  0.77137782  -0.00772412  1
  O  O226  1  0.86616151  0.76179209  0.48930774  1
  O  O227  1  0.13296636  0.23760767  0.49629725  1
  O  O228  1  0.14604097  0.24437814  1.01010473  1
  O  O229  1  0.12983121  0.74055561  0.49333410  1
  O  O230  1  0.13592648  0.74252833  1.01134868  1
  O  O231  1  0.62190706  0.23640116  0.50318790  1
  O  O232  1  0.62926579  0.24337115  0.99499311  1
  O  O233  1  0.63418085  0.74472074  0.49720188  1
  O  O234  1  0.61745099  0.74250623  0.99328051  1
  O  O235  1  0.48723233  0.24361398  0.11956488  1
  O  O236  1  0.48976130  0.24475335  0.62534674  1
  O  O237  1  0.48877707  0.76082392  0.13997273  1
  O  O238  1  0.49432274  0.74282994  0.62699559  1
  O  O239  1  0.99505828  0.24437180  0.12958414  1
  O  O240  1  1.00635815  0.23665969  0.62075099  1
  O  O241  1  1.00909135  0.73991967  0.13721375  1
  O  O242  1  0.99036443  0.74020580  0.61466476  1
  O  O243  1  0.00088319  0.25689422  0.36405903  1
  O  O244  1  0.00574505  0.26463449  0.87674274  1
  O  O245  1  0.00833822  0.75400970  0.36758386  1
  O  O246  1  0.00566589  0.75062750  0.86593392  1
  O  O247  1  0.49212398  0.25869858  0.37545837  1
  O  O248  1  0.51027284  0.25571816  0.87910629  1
  O  O249  1  0.49576139  0.75252031  0.35975825  1
  O  O250  1  0.50666973  0.75618058  0.86946709  1
  O  O251  1  0.24400736  0.12688426  0.49063700  1
  O  O252  1  0.25311594  0.13098916  0.98684660  1
  O  O253  1  0.23668971  0.62870721  0.49681031  1
  O  O254  1  0.24398520  0.63576286  0.99894950  1
  O  O255  1  0.74586853  0.11903403  0.48630609  1
  O  O256  1  0.74142760  0.13360400  0.99509892  1
  O  O257  1  0.74642991  0.63162530  0.49435661  1
  O  O258  1  0.72881119  0.63282764  1.01214246  1
  O  O259  1  0.24782520  0.37016193  0.01068288  1
  O  O260  1  0.25855269  0.36648838  0.50224448  1
  O  O261  1  0.25514258  0.87137485  0.00854755  1
  O  O262  1  0.23047228  0.85264362  0.51526072  1
  O  O263  1  0.74495116  0.35830116  0.00358446  1
  O  O264  1  0.75902725  0.38091326  0.50503136  1
  O  O265  1  0.75485827  0.87480072  0.01121580  1
  O  O266  1  0.75688185  0.86990358  0.50260117  1
  O  O267  1  0.13447501  0.50693314  0.24204394  1
  O  O268  1  0.13593026  0.54070036  0.73939682  1
  O  O269  1  0.13598802  0.99763284  0.23655685  1
  O  O270  1  0.13798347  1.00720138  0.73684546  1
  O  O271  1  0.62996084  0.49875639  0.24278507  1
  O  O272  1  0.62254564  0.49032595  0.74192931  1
  O  O273  1  0.63376144  0.99024660  0.25521611  1
  O  O274  1  0.63400276  0.99620533  0.74566272  1
  O  O275  1  0.35961424  -0.00490460  0.25179131  1
  O  O276  1  0.37113506  0.00872967  0.75053514  1
  O  O277  1  0.36921490  0.49893894  0.25590242  1
  O  O278  1  0.38668657  0.51051806  0.75770329  1
  O  O279  1  0.86887780  0.00030007  0.25929345  1
  O  O280  1  0.87072656  0.00783503  0.75841964  1
  O  O281  1  0.86548951  0.50473329  0.25106573  1
  O  O282  1  0.86912859  0.51328682  0.75453728  1
  O  O283  1  0.10944628  0.37302461  0.38323988  1
  O  O284  1  0.11707762  0.38234410  0.87052686  1
  O  O285  1  0.12173771  0.86379947  0.37311388  1
  O  O286  1  0.12381033  0.88324412  0.86488337  1
  O  O287  1  0.61523569  0.37964155  0.36234149  1
  O  O288  1  0.61912892  0.36597934  0.86768041  1
  O  O289  1  0.63490230  0.87116947  0.35548648  1
  O  O290  1  0.62058405  0.86939957  0.87118602  1
  O  O291  1  0.38653752  0.13639901  0.12309268  1
  O  O292  1  0.37973394  0.13123761  0.62968748  1
  O  O293  1  0.36916034  0.64213500  0.12646602  1
  O  O294  1  0.38624472  0.63035431  0.62089255  1
  O  O295  1  0.88435270  0.13221923  0.12569100  1
  O  O296  1  0.88511911  0.11931747  0.63308113  1
  O  O297  1  0.89069728  0.62158010  0.12512274  1
  O  O298  1  0.88466748  0.62061946  0.61711054  1
  O  O299  1  0.26104741  0.25690982  0.12102292  1
  O  O300  1  0.26057244  0.25593904  0.61718046  1
  O  O301  1  0.25624802  0.75990511  0.12073539  1
  O  O302  1  0.25803385  0.73634456  0.61641205  1
  O  O303  1  0.76128284  0.23770330  0.11888754  1
  O  O304  1  0.74324451  0.26065158  0.62187956  1
  O  O305  1  0.74837240  0.76183183  0.12590686  1
  O  O306  1  0.74601432  0.75666582  0.60967149  1
  O  O307  1  0.24999531  0.24240090  0.37722730  1
  O  O308  1  0.25237444  0.24116088  0.88164877  1
  O  O309  1  0.23926803  0.74600382  0.38314398  1
  O  O310  1  0.25643919  0.74684332  0.89333697  1
  O  O311  1  0.75994265  0.23390185  0.36845910  1
  O  O312  1  0.74023965  0.24873657  0.88410824  1
  O  O313  1  0.74703266  0.74359452  0.38418214  1
  O  O314  1  0.73448984  0.75964992  0.87942589  1
  O  O315  1  0.00204052  0.13409199  0.01210748  1
  O  O316  1  0.00606915  0.11937952  0.50194846  1
  O  O317  1  0.00856190  0.62036852  0.00901199  1
  O  O318  1  -0.00056039  0.61726310  0.50285630  1
  O  O319  1  0.50818796  0.12361838  0.00422979  1
  O  O320  1  0.51201055  0.11698372  0.50514068  1
  O  O321  1  0.50868434  0.60905447  -0.00335340  1
  O  O322  1  0.50580058  0.62669373  0.50809659  1
  O  O323  1  0.49404963  0.37695351  0.48883078  1
  O  O324  1  0.51042618  0.38818524  0.99280085  1
  O  O325  1  0.51298864  0.88956517  0.50139731  1
  O  O326  1  0.49541073  0.87821387  0.99635615  1
  O  O327  1  0.99235910  0.38167572  0.49410508  1
  O  O328  1  1.01154028  0.38377648  0.99224254  1
  O  O329  1  0.99403229  0.87903336  0.49341974  1
  O  O330  1  0.98829488  0.87531977  1.00332261  1
  O  O331  1  0.48952205  0.49280093  0.37361647  1
  O  O332  1  0.50471843  0.49103499  0.88896462  1
  O  O333  1  0.50012117  1.00505587  0.38832497  1
  O  O334  1  0.49486686  0.99315929  0.87484874  1
  O  O335  1  0.99320215  0.49331106  0.37956259  1
  O  O336  1  1.00119867  0.49480632  0.88777358  1
  O  O337  1  0.99351532  0.99644400  0.37553461  1
  O  O338  1  0.98877882  1.00432186  0.86827591  1
  O  O339  1  0.01007287  0.01109755  0.13262569  1
  O  O340  1  0.00904906  0.01080585  0.61827267  1
  O  O341  1  0.01057922  0.50662240  0.12422138  1
  O  O342  1  -0.00132098  0.50351159  0.61359394  1
  O  O343  1  0.49207725  0.01779749  0.12163920  1
  O  O344  1  0.50985050  0.00549478  0.61767528  1
  O  O345  1  0.50466203  0.49276563  0.11128555  1
  O  O346  1  0.51011175  0.50691518  0.62096610  1
  O  O347  1  0.25361214  0.38699460  0.23826521  1
  O  O348  1  0.25188220  0.37331496  0.73428221  1
  O  O349  1  0.24780198  0.88153469  0.23597521  1
  O  O350  1  0.25486759  0.88863142  0.75339797  1
  O  O351  1  0.73621047  0.38653104  0.25947830  1
  O  O352  1  0.73446145  0.37146622  0.73646188  1
  O  O353  1  0.74750837  0.88094474  0.24221723  1
  O  O354  1  0.74889769  0.87995905  0.74510444  1
  O  O355  1  0.24530492  0.12091080  0.25612985  1
  O  O356  1  0.26141105  0.11759755  0.75330331  1
  O  O357  1  0.25381844  0.61145503  0.25213047  1
  O  O358  1  0.25252805  0.64399034  0.77686773  1
  O  O359  1  0.74960696  0.11543134  0.26173706  1
  O  O360  1  0.75789873  0.12158354  0.75451045  1
  O  O361  1  0.75267084  0.61976807  0.25173432  1
  O  O362  1  0.74623784  0.62458120  0.75234315  1
  O  O363  1  0.36283474  0.11504733  0.38143360  1
  O  O364  1  0.37149297  0.12232026  0.86492355  1
  O  O365  1  0.37373497  0.61205693  0.37276426  1
  O  O366  1  0.36237190  0.62821970  0.88433867  1
  O  O367  1  0.86587084  0.11432040  0.37552610  1
  O  O368  1  0.87125289  0.12170446  0.86809104  1
  O  O369  1  0.86841568  0.61843156  0.36507363  1
  O  O370  1  0.86171495  0.61233133  0.91222963  1
  O  O371  1  0.13573312  0.38828988  0.12267022  1
  O  O372  1  0.14134209  0.37647105  0.61635247  1
  O  O373  1  0.13454565  0.88399002  0.12425711  1
  O  O374  1  0.11586665  0.88953911  0.63166422  1
  O  O375  1  0.61935402  0.38639521  0.14080740  1
  O  O376  1  0.62722825  0.38078101  0.62854802  1
  O  O377  1  0.63461006  0.87415115  0.14047737  1
  O  O378  1  0.63396995  0.87999394  0.63294618  1
  O  O379  1  0.11198951  0.25004883  0.24693526  1
  O  O380  1  0.12753187  0.23999558  0.74987815  1
  O  O381  1  0.11656363  0.74761080  0.25856785  1
  O  O382  1  0.10114108  0.74785987  0.73471435  1
  O  O383  1  0.63256431  0.26509977  0.24495924  1
  O  O384  1  0.62244337  0.25486926  0.76075886  1
  O  O385  1  0.60957895  0.75787041  0.24864498  1
  O  O386  1  0.61953743  0.75683804  0.75710148  1
  O  O387  1  0.37249472  0.24963030  0.23490602  1
  O  O388  1  0.37679985  0.23705107  0.73736670  1
  O  O389  1  0.38489675  0.75284061  0.24594920  1
  O  O390  1  0.38236210  0.74250834  0.74005372  1
  O  O391  1  0.88381218  0.24824124  0.24075144  1
  O  O392  1  0.87325013  0.24105708  0.75756072  1
  O  O393  1  0.88746037  0.74406428  0.25780021  1
  O  O394  1  0.88779297  0.74332607  0.75856606  1
  O  O395  1  0.37593159  0.49322336  0.48767077  1
  O  O396  1  0.38809357  0.50272803  1.00004357  1
  O  O397  1  0.39652356  1.00233361  0.50581937  1
  O  O398  1  0.37548324  0.99371443  0.99157374  1
  O  O399  1  0.88391942  0.49351307  0.49166332  1
  O  O400  1  0.89554569  0.49000605  1.01745854  1
  O  O401  1  0.88095201  0.99260683  0.49005891  1
  O  O402  1  0.86860458  0.99112651  0.98897915  1
  O  O403  1  0.13359935  0.00464771  0.01324437  1
  O  O404  1  0.12230091  0.00689692  0.50423445  1
  O  O405  1  0.11871180  0.51052723  0.01284534  1
  O  O406  1  0.11110519  0.50730733  0.49358728  1
  O  O407  1  0.62736450  0.01544714  -0.00632175  1
  O  O408  1  0.61973945  0.00868248  0.50434366  1
  O  O409  1  0.61999518  0.50709608  0.00943567  1
  O  O410  1  0.62400032  0.50624112  0.50628871  1
  O  O411  1  0.36863376  0.36326926  0.12597270  1
  O  O412  1  0.36939930  0.36701374  0.61940391  1
  O  O413  1  0.36625357  0.86987936  0.11986630  1
  O  O414  1  0.38156516  0.86032668  0.62760896  1
  O  O415  1  0.88178422  0.35907889  0.12144409  1
  O  O416  1  0.86142692  0.38102214  0.61476461  1
  O  O417  1  0.86773194  0.88315341  0.11149654  1
  O  O418  1  0.87172067  0.88506874  0.60995083  1
  O  O419  1  0.12774806  0.12787825  0.38355739  1
  O  O420  1  0.14040765  0.11526833  0.87520630  1
  O  O421  1  0.12057243  0.63330367  0.38409518  1
  O  O422  1  0.13462940  0.62324884  0.89315386  1
  O  O423  1  0.64133393  0.12262399  0.38178920  1
  O  O424  1  0.62948366  0.13470599  0.88000412  1
  O  O425  1  0.62965537  0.62775965  0.38082317  1
  O  O426  1  0.61759526  0.63499229  0.88397104  1
