# generated using pymatgen
data_V85Zn86O256
_symmetry_space_group_name_H-M   'P 1'
_cell_length_a   16.96853725
_cell_length_b   16.96148302
_cell_length_c   16.96005722
_cell_angle_alpha   89.97811393
_cell_angle_beta   89.98341013
_cell_angle_gamma   90.04452677
_symmetry_Int_Tables_number   1
_chemical_formula_structural   V85Zn86O256
_chemical_formula_sum   'V85 Zn86 O256'
_cell_volume   4881.29842986
_cell_formula_units_Z   1
loop_
 _symmetry_equiv_pos_site_id
 _symmetry_equiv_pos_as_xyz
  1  'x, y, z'
loop_
 _atom_site_type_symbol
 _atom_site_label
 _atom_site_symmetry_multiplicity
 _atom_site_fract_x
 _atom_site_fract_y
 _atom_site_fract_z
 _atom_site_occupancy
  V  V0  1  0.25398811  0.12030181  0.87678697  1
  V  V1  1  0.87135046  0.87445745  0.00687021  1
  V  V2  1  0.12561140  0.12066601  0.00852275  1
  V  V3  1  0.37400099  0.49910614  0.87229213  1
  V  V4  1  0.12723742  0.37448945  0.74809775  1
  V  V5  1  0.12592272  0.24947656  0.87503679  1
  V  V6  1  0.87444330  0.37505944  -0.00045441  1
  V  V7  1  0.62479503  -0.00482684  0.63053797  1
  V  V8  1  0.50374712  0.26215063  0.75363370  1
  V  V9  1  0.12690375  0.49547650  0.62240659  1
  V  V10  1  -0.00230592  0.48294711  0.49093525  1
  V  V11  1  0.25256318  -0.00345021  0.74900957  1
  V  V12  1  0.12466892  0.75620079  0.36701788  1
  V  V13  1  0.23785466  0.87755190  0.12817776  1
  V  V14  1  0.23479494  -0.00555193  0.25063056  1
  V  V15  1  0.37724175  0.12305742  0.75527470  1
  V  V16  1  0.87451533  0.61459548  0.24827858  1
  V  V17  1  0.37723368  0.11497764  0.25335125  1
  V  V18  1  0.75046715  0.12530610  0.87532269  1
  V  V19  1  0.50786606  0.50241389  0.50375858  1
  V  V20  1  0.37569478  0.37671695  -0.00187161  1
  V  V21  1  0.12181218  0.50223024  0.13125419  1
  V  V22  1  0.49157468  0.63222039  0.12289365  1
  V  V23  1  0.74732115  0.75472558  0.00488361  1
  V  V24  1  0.49412523  0.00043772  0.48993291  1
  V  V25  1  0.62829007  0.12596032  0.50228301  1
  V  V26  1  0.24938603  0.38139740  0.13557262  1
  V  V27  1  0.12839926  -0.00545137  0.62518230  1
  V  V28  1  0.49946506  0.12581551  0.12680539  1
  V  V29  1  -0.00362853  -0.00840394  0.50155075  1
  V  V30  1  0.74620841  0.38921065  0.62723701  1
  V  V31  1  0.12494183  0.74944887  0.87508309  1
  V  V32  1  0.87589201  0.12297850  0.75150759  1
  V  V33  1  0.25375576  0.74939437  0.00750288  1
  V  V34  1  0.62494349  0.12641341  0.00101661  1
  V  V35  1  0.49873848  0.87977795  0.86994093  1
  V  V36  1  0.12462899  0.25286054  0.37522177  1
  V  V37  1  0.25028198  0.25006060  0.00135447  1
  V  V38  1  0.25752700  0.26176619  0.50632124  1
  V  V39  1  0.87385070  -0.00899566  0.38030521  1
  V  V40  1  0.87075772  0.48237419  0.37284840  1
  V  V41  1  0.74665619  0.62290239  0.86752259  1
  V  V42  1  0.75216021  0.12269534  0.37562845  1
  V  V43  1  0.12849896  0.87418078  0.74933234  1
  V  V44  1  0.49230564  0.00254256  -0.00322602  1
  V  V45  1  0.24913846  0.62495024  0.87397848  1
  V  V46  1  0.87338797  0.25301992  0.61863445  1
  V  V47  1  0.11679321  0.62301489  0.00111598  1
  V  V48  1  0.87735955  0.73948835  0.12358812  1
  V  V49  1  0.37252697  0.87539157  0.00243977  1
  V  V50  1  0.24690596  0.62058830  0.36729232  1
  V  V51  1  0.25046747  0.49627913  0.74204385  1
  V  V52  1  0.49639615  0.50003799  -0.00576858  1
  V  V53  1  0.50221720  0.12698105  0.62870523  1
  V  V54  1  0.62773742  -0.00582350  0.12760107  1
  V  V55  1  0.87279782  0.75376162  0.60965285  1
  V  V56  1  -0.00045720  0.87449023  0.87517595  1
  V  V57  1  0.62359898  0.25078687  0.37524477  1
  V  V58  1  0.25094214  0.75467448  0.50232071  1
  V  V59  1  0.37222644  0.49984343  0.37404031  1
  V  V60  1  0.87470350  -0.00131725  0.87679581  1
  V  V61  1  0.37484406  0.26280118  0.62604671  1
  V  V62  1  0.00098431  0.12175786  0.62676769  1
  V  V63  1  0.75021702  0.25256794  0.00448640  1
  V  V64  1  0.37525789  0.25130285  0.12801023  1
  V  V65  1  0.62169852  0.62774297  -0.00355819  1
  V  V66  1  0.49989893  0.86102537  0.36505186  1
  V  V67  1  0.37355778  0.63317403  0.24733036  1
  V  V68  1  0.74752237  -0.01068847  0.75254884  1
  V  V69  1  0.62294389  0.25867230  0.87162472  1
  V  V70  1  0.00006633  0.75024225  0.74715701  1
  V  V71  1  -0.00013558  0.37899604  0.87530843  1
  V  V72  1  0.00045171  0.75107742  0.24621582  1
  V  V73  1  0.62282448  0.75839216  0.86469897  1
  V  V74  1  0.00047064  0.24837407  0.74956896  1
  V  V75  1  0.86978891  0.62053753  0.74699039  1
  V  V76  1  0.74827414  -0.00645802  0.24814478  1
  V  V77  1  -0.00199168  0.62419088  0.61813914  1
  V  V78  1  0.00421857  -0.00060144  0.00924337  1
  V  V79  1  0.74851343  0.63093885  0.37926195  1
  V  V80  1  0.75260545  0.87229655  0.60710034  1
  V  V81  1  0.50485251  0.63423852  0.62408966  1
  V  V82  1  0.62570181  0.49429744  0.12542280  1
  V  V83  1  0.49437563  0.37571237  0.38095896  1
  V  V84  1  0.25743907  0.11712538  0.38132914  1
  Zn  Zn85  1  0.36611354  0.88673552  0.50057175  1
  Zn  Zn86  1  0.00306808  0.12521709  0.13270509  1
  Zn  Zn87  1  0.49486471  0.75974859  0.74575432  1
  Zn  Zn88  1  0.51437834  0.74892653  0.24796344  1
  Zn  Zn89  1  0.88113334  0.12464807  0.24792078  1
  Zn  Zn90  1  0.12386992  0.38588631  0.26453529  1
  Zn  Zn91  1  -0.00563712  0.50560585  0.00292948  1
  Zn  Zn92  1  0.36602999  0.75969352  0.63021453  1
  Zn  Zn93  1  0.37205761  0.62990464  0.74269532  1
  Zn  Zn94  1  0.86844275  0.49789403  0.86895051  1
  Zn  Zn95  1  0.76062182  0.38631195  0.13639175  1
  Zn  Zn96  1  0.49804974  0.25397030  0.25170851  1
  Zn  Zn97  1  0.12481990  0.62371744  0.49460045  1
  Zn  Zn98  1  0.63260449  0.40113455  0.75013819  1
  Zn  Zn99  1  0.62914604  0.38489543  0.26004397  1
  Zn  Zn100  1  0.12949947  0.12295865  0.50271954  1
  Zn  Zn101  1  0.88189542  0.24815450  0.12905851  1
  Zn  Zn102  1  0.76142855  0.26197696  0.49615739  1
  Zn  Zn103  1  0.67792604  0.82914587  0.19682195  1
  Zn  Zn104  1  0.63033517  0.64210368  0.49445886  1
  Zn  Zn105  1  -0.00231430  0.25347898  0.25050712  1
  Zn  Zn106  1  -0.00021380  0.87359723  0.37324126  1
  Zn  Zn107  1  0.19307167  0.18672623  0.19145627  1
  Zn  Zn108  1  0.18857999  0.18491864  0.68710775  1
  Zn  Zn109  1  0.18702106  0.68590544  0.18642952  1
  Zn  Zn110  1  0.18502602  0.68227626  0.68666654  1
  Zn  Zn111  1  0.68862859  0.18532711  0.19034940  1
  Zn  Zn112  1  0.69148971  0.18886169  0.68895090  1
  Zn  Zn113  1  0.68640665  0.65952696  0.19281720  1
  Zn  Zn114  1  0.68518810  0.68908743  0.68283291  1
  Zn  Zn115  1  0.31173085  0.30849012  0.31561596  1
  Zn  Zn116  1  0.31340518  0.31278836  0.81207520  1
  Zn  Zn117  1  0.31942266  0.81708519  0.31848916  1
  Zn  Zn118  1  0.31610504  0.81415332  0.81791826  1
  Zn  Zn119  1  0.80848729  0.30945345  0.30678660  1
  Zn  Zn120  1  0.81178716  0.31197787  0.80871078  1
  Zn  Zn121  1  0.81712016  0.80873824  0.31490084  1
  Zn  Zn122  1  0.81472009  0.80743211  0.81124100  1
  Zn  Zn123  1  0.19141062  0.43834396  0.44271797  1
  Zn  Zn124  1  0.18859234  0.43841320  0.93943340  1
  Zn  Zn125  1  0.18393020  0.93717015  0.43440712  1
  Zn  Zn126  1  0.18770075  0.93722513  0.93660909  1
  Zn  Zn127  1  0.68967084  0.43952681  0.44459863  1
  Zn  Zn128  1  0.68621425  0.43914936  0.93780221  1
  Zn  Zn129  1  0.67912167  0.93322152  0.43325453  1
  Zn  Zn130  1  0.68388371  0.93855868  0.93996349  1
  Zn  Zn131  1  0.31059846  0.06055649  0.06922851  1
  Zn  Zn132  1  0.31523059  0.06950862  0.57062612  1
  Zn  Zn133  1  0.30754604  0.56313027  0.06386584  1
  Zn  Zn134  1  0.31829197  0.56995534  0.55512368  1
  Zn  Zn135  1  0.81354204  0.06455953  0.06546768  1
  Zn  Zn136  1  0.81408367  0.06178784  0.56467144  1
  Zn  Zn137  1  0.81005691  0.56361559  0.05394456  1
  Zn  Zn138  1  0.81652575  0.56016982  0.55559383  1
  Zn  Zn139  1  0.44009037  0.44081342  0.19236374  1
  Zn  Zn140  1  0.44318227  0.44320682  0.68684905  1
  Zn  Zn141  1  0.43380455  0.93363604  0.18411471  1
  Zn  Zn142  1  0.43255871  0.93749510  0.68005198  1
  Zn  Zn143  1  0.94749593  0.42903532  0.19073333  1
  Zn  Zn144  1  0.93622506  0.43529637  0.68344740  1
  Zn  Zn145  1  0.93282477  0.93613488  0.19081236  1
  Zn  Zn146  1  0.93567455  0.93475257  0.68672565  1
  Zn  Zn147  1  0.06301031  0.06834863  0.31850288  1
  Zn  Zn148  1  0.06448931  0.06087795  0.81713613  1
  Zn  Zn149  1  0.05704022  0.56699295  0.30965153  1
  Zn  Zn150  1  0.06155554  0.56356625  0.80922654  1
  Zn  Zn151  1  0.56513743  0.06227325  0.30981088  1
  Zn  Zn152  1  0.56439490  0.06650078  0.81414611  1
  Zn  Zn153  1  0.55979245  0.56498259  0.31128844  1
  Zn  Zn154  1  0.55966730  0.56771405  0.80949710  1
  Zn  Zn155  1  0.43747688  0.18670226  0.44064613  1
  Zn  Zn156  1  0.43940812  0.19076703  0.93743504  1
  Zn  Zn157  1  0.43437695  0.68611248  0.43725067  1
  Zn  Zn158  1  0.43510853  0.68976089  0.93369199  1
  Zn  Zn159  1  0.94112618  0.17831981  0.43963518  1
  Zn  Zn160  1  0.93918988  0.18740078  0.94065206  1
  Zn  Zn161  1  0.93708363  0.68038878  0.42972273  1
  Zn  Zn162  1  0.93413528  0.68860205  0.93343727  1
  Zn  Zn163  1  0.06360473  0.31321015  0.06601386  1
  Zn  Zn164  1  0.06617467  0.30755936  0.56106469  1
  Zn  Zn165  1  0.06026769  0.81029082  0.06313105  1
  Zn  Zn166  1  0.06714820  0.81038974  0.55924778  1
  Zn  Zn167  1  0.55885512  0.31174614  0.05857912  1
  Zn  Zn168  1  0.56616552  0.31677086  0.56522931  1
  Zn  Zn169  1  0.55815781  0.81306269  0.05574568  1
  Zn  Zn170  1  0.56370199  0.81452364  0.55637753  1
  O  O171  1  0.13090660  0.12850095  0.11072299  1
  O  O172  1  0.11860399  0.11198256  0.62841630  1
  O  O173  1  0.13303439  0.61115949  0.11423319  1
  O  O174  1  0.11219211  0.61279651  0.62481173  1
  O  O175  1  0.61898915  0.11867667  0.11999621  1
  O  O176  1  0.62427243  0.11814930  0.61885640  1
  O  O177  1  0.61369144  0.61261748  0.11363071  1
  O  O178  1  0.60947685  0.63192211  0.61865725  1
  O  O179  1  0.38567013  0.38225353  0.36888257  1
  O  O180  1  0.36706057  0.38714720  0.88568078  1
  O  O181  1  0.39226984  0.87600637  0.38651509  1
  O  O182  1  0.38327491  0.87583853  0.89155835  1
  O  O183  1  0.87262684  0.38358603  0.37193416  1
  O  O184  1  0.88249959  0.37574813  0.87915947  1
  O  O185  1  0.87549935  0.88762875  0.37609092  1
  O  O186  1  0.88056447  0.87718542  0.88417806  1
  O  O187  1  0.24849253  0.00545198  0.36448751  1
  O  O188  1  0.24533950  0.01289205  0.86622736  1
  O  O189  1  0.25732653  0.50970781  0.38158737  1
  O  O190  1  0.25547738  0.50484625  0.86618316  1
  O  O191  1  0.75313009  0.00403883  0.37024703  1
  O  O192  1  0.75303202  0.00446144  0.87068889  1
  O  O193  1  0.76807132  0.50054136  0.38041025  1
  O  O194  1  0.74879898  0.51952806  0.88231729  1
  O  O195  1  0.23907152  0.49052402  0.11971873  1
  O  O196  1  0.24003725  0.51020781  0.63087032  1
  O  O197  1  0.25009844  0.99412667  0.14105796  1
  O  O198  1  0.24031891  1.00877645  0.63815870  1
  O  O199  1  0.72958350  0.50148942  0.11006115  1
  O  O200  1  0.76098828  0.48803554  0.62414258  1
  O  O201  1  0.74025943  1.00573355  0.13507445  1
  O  O202  1  0.74677928  0.99028593  0.63199400  1
  O  O203  1  0.01435472  0.36522602  0.25179940  1
  O  O204  1  0.00558914  0.36951121  0.75716780  1
  O  O205  1  -0.01147805  0.85659200  0.25221821  1
  O  O206  1  0.00579542  0.86990113  0.75533810  1
  O  O207  1  0.50853438  0.37443270  0.26378970  1
  O  O208  1  0.50721659  0.36443183  0.74588343  1
  O  O209  1  0.48859154  0.86736098  0.25897058  1
  O  O210  1  0.49043527  0.88252281  0.76658427  1
  O  O211  1  0.49297176  0.12688772  0.24518588  1
  O  O212  1  0.49258273  0.13209170  0.74877137  1
  O  O213  1  0.49256155  0.62746381  0.23964796  1
  O  O214  1  0.49524776  0.62766330  0.73276969  1
  O  O215  1  1.00133689  0.13209371  0.25062485  1
  O  O216  1  0.99614304  0.12789185  0.74820078  1
  O  O217  1  0.98432944  0.63643069  0.25268113  1
  O  O218  1  0.99344117  0.63001705  0.73820843  1
  O  O219  1  0.37150303  0.25875178  0.00522889  1
  O  O220  1  0.36596088  0.24394088  0.51131772  1
  O  O221  1  0.36099486  0.75726361  -0.00554769  1
  O  O222  1  0.35521705  0.74691368  0.49588277  1
  O  O223  1  0.86523317  0.25871923  -0.00322787  1
  O  O224  1  0.87880197  0.24016632  0.51372970  1
  O  O225  1  0.86809511  0.75429317  0.00430304  1
  O  O226  1  0.88245228  0.74515874  0.51123516  1
  O  O227  1  0.14239959  0.24514436  0.49851131  1
  O  O228  1  0.13179291  0.24191729  0.99374718  1
  O  O229  1  0.13150257  0.74541027  0.48716410  1
  O  O230  1  0.13128284  0.74228887  0.99543906  1
  O  O231  1  0.62327609  0.23800039  0.49338908  1
  O  O232  1  0.62979794  0.24731132  0.99158737  1
  O  O233  1  0.62986409  0.75373517  0.49464824  1
  O  O234  1  0.63193201  0.74762923  0.99313537  1
  O  O235  1  0.49408476  0.24411375  0.12624444  1
  O  O236  1  0.49595006  0.24595796  0.63294328  1
  O  O237  1  0.50020667  0.73487307  0.11749464  1
  O  O238  1  0.49778138  0.74310670  0.62316603  1
  O  O239  1  1.00075241  0.24412299  0.12593675  1
  O  O240  1  0.99591215  0.24298841  0.63055097  1
  O  O241  1  0.98696743  0.75006378  0.12906506  1
  O  O242  1  0.99540057  0.74291359  0.62683198  1
  O  O243  1  0.02417314  0.23941418  0.38740269  1
  O  O244  1  0.00515585  0.25790116  0.86960186  1
  O  O245  1  0.00668436  0.74872202  0.36707460  1
  O  O246  1  0.00505416  0.75478531  0.86806265  1
  O  O247  1  0.50561696  0.25902184  0.38036273  1
  O  O248  1  0.51045093  0.24686150  0.86690289  1
  O  O249  1  0.50133966  0.75802264  0.37531307  1
  O  O250  1  0.50659086  0.76099974  0.87594243  1
  O  O251  1  0.25260540  0.12611128  0.49321573  1
  O  O252  1  0.24669364  0.12713248  0.99429336  1
  O  O253  1  0.24622900  0.63356375  0.48437596  1
  O  O254  1  0.24213798  0.63259087  0.99479210  1
  O  O255  1  0.74043933  0.11862830  0.49216072  1
  O  O256  1  0.74526756  0.13292321  0.99478141  1
  O  O257  1  0.75025142  0.61809998  0.48486243  1
  O  O258  1  0.74382333  0.63802857  0.98928985  1
  O  O259  1  0.25976054  0.37056459  0.00722145  1
  O  O260  1  0.25454866  0.36029448  0.50212854  1
  O  O261  1  0.25333446  0.87039259  0.00514968  1
  O  O262  1  0.24734150  0.85905788  0.49004332  1
  O  O263  1  0.75901670  0.36834362  -0.00173825  1
  O  O264  1  0.74727473  0.37313449  0.51791286  1
  O  O265  1  0.75960014  0.86571934  -0.00825245  1
  O  O266  1  0.75100323  0.88322874  0.50904153  1
  O  O267  1  0.12237742  0.50442987  0.23516067  1
  O  O268  1  0.13116333  0.49579723  0.74176718  1
  O  O269  1  0.13648244  0.99999158  0.25469360  1
  O  O270  1  0.13195105  0.99525256  0.74524214  1
  O  O271  1  0.61655303  0.50318352  0.22801444  1
  O  O272  1  0.63139377  0.51044822  0.75347672  1
  O  O273  1  0.63327985  1.00324415  0.23931584  1
  O  O274  1  0.63495975  1.00886108  0.74035252  1
  O  O275  1  0.37262025  0.01241869  0.24614677  1
  O  O276  1  0.36659694  0.01504195  0.74284176  1
  O  O277  1  0.38294928  0.51176423  0.26493734  1
  O  O278  1  0.36755048  0.49978166  0.75642260  1
  O  O279  1  0.86595266  0.00298167  0.26022038  1
  O  O280  1  0.86809524  0.00295864  0.75698008  1
  O  O281  1  0.88979769  0.50253420  0.26305666  1
  O  O282  1  0.88220087  0.51647550  0.74911481  1
  O  O283  1  0.13879609  0.35787818  0.37958216  1
  O  O284  1  0.11893663  0.36958472  0.87095986  1
  O  O285  1  0.12201290  0.86042587  0.37187584  1
  O  O286  1  0.11924231  0.86875126  0.86993166  1
  O  O287  1  0.61796866  0.36545353  0.38142838  1
  O  O288  1  0.63371564  0.36164407  0.87034989  1
  O  O289  1  0.59930518  0.88767845  0.37108327  1
  O  O290  1  0.61249557  0.86813073  0.88392980  1
  O  O291  1  0.37905736  0.13123585  0.13286044  1
  O  O292  1  0.38213337  0.13736384  0.63923945  1
  O  O293  1  0.38151743  0.61427185  0.13401610  1
  O  O294  1  0.38600907  0.63421800  0.62203922  1
  O  O295  1  0.88086083  0.12817238  0.12711441  1
  O  O296  1  0.88188074  0.12851273  0.63285836  1
  O  O297  1  0.86759459  0.63121601  0.12916120  1
  O  O298  1  0.88000675  0.63240190  0.62825756  1
  O  O299  1  0.25547382  0.25848565  0.11960864  1
  O  O300  1  0.25830297  0.24267792  0.61471022  1
  O  O301  1  0.24527277  0.75690817  0.11385170  1
  O  O302  1  0.24115116  0.74081284  0.60537227  1
  O  O303  1  0.74469010  0.25032278  0.10942578  1
  O  O304  1  0.76180890  0.24697046  0.62022237  1
  O  O305  1  0.75621434  0.74812921  0.11277468  1
  O  O306  1  0.75562451  0.76619400  0.62700865  1
  O  O307  1  0.24974579  0.24107099  0.39116116  1
  O  O308  1  0.24631809  0.24156071  0.88039962  1
  O  O309  1  0.24156592  0.74265707  0.37706770  1
  O  O310  1  0.24249348  0.74557245  0.88423278  1
  O  O311  1  0.74208268  0.23917524  0.38124805  1
  O  O312  1  0.74380203  0.24433764  0.88257704  1
  O  O313  1  0.76084481  0.73024582  0.37191491  1
  O  O314  1  0.74196956  0.74565324  0.88124688  1
  O  O315  1  0.01034043  0.11538459  -0.00220439  1
  O  O316  1  0.00708064  0.11009767  0.50924309  1
  O  O317  1  0.01191887  0.62616116  -0.00762995  1
  O  O318  1  0.00082484  0.61808712  0.50974567  1
  O  O319  1  0.50310329  0.11979846  0.00532953  1
  O  O320  1  0.50930189  0.11962463  0.50772617  1
  O  O321  1  0.49928219  0.61848240  0.00331841  1
  O  O322  1  0.50151936  0.61916927  0.50521736  1
  O  O323  1  0.50515793  0.39007644  0.49392584  1
  O  O324  1  0.48512978  0.38579150  1.00354632  1
  O  O325  1  0.50271572  0.89428268  0.49393177  1
  O  O326  1  0.49048482  0.88402849  0.99514750  1
  O  O327  1  1.00438877  0.38464707  0.50115365  1
  O  O328  1  0.99149285  0.37243361  0.98851442  1
  O  O329  1  1.00520788  0.88779049  0.49859047  1
  O  O330  1  0.99272482  0.87983398  0.99509757  1
  O  O331  1  0.49577118  0.49485493  0.38289512  1
  O  O332  1  0.48691848  0.50937676  0.88483151  1
  O  O333  1  0.49919544  1.01005906  0.38920920  1
  O  O334  1  0.50979033  0.99569980  0.88937211  1
  O  O335  1  0.99815477  0.50131792  0.38693382  1
  O  O336  1  1.00020404  0.48733010  0.87410758  1
  O  O337  1  0.99223463  0.99944480  0.38357206  1
  O  O338  1  0.99381563  0.99372037  0.88363665  1
  O  O339  1  -0.00524194  -0.00249634  0.11142009  1
  O  O340  1  0.00631183  0.00180860  0.62150615  1
  O  O341  1  0.01802400  0.49304463  0.11821945  1
  O  O342  1  0.00360686  0.50493000  0.61376743  1
  O  O343  1  0.50704449  0.00522344  0.11714909  1
  O  O344  1  0.51093773  0.00701334  0.62268182  1
  O  O345  1  0.50413293  0.50793536  0.11148787  1
  O  O346  1  0.49267753  0.51206381  0.60953888  1
  O  O347  1  0.24536091  0.36971274  0.23907469  1
  O  O348  1  0.24360600  0.38776401  0.75483918  1
  O  O349  1  0.25779891  0.88753919  0.24512992  1
  O  O350  1  0.24545300  0.88957280  0.76197389  1
  O  O351  1  0.73751378  0.36769107  0.24330356  1
  O  O352  1  0.74943610  0.36904403  0.73516890  1
  O  O353  1  0.75523256  0.88757721  0.25442458  1
  O  O354  1  0.75317511  0.88713030  0.75024413  1
  O  O355  1  0.25686953  0.11187762  0.25719618  1
  O  O356  1  0.25708724  0.12053561  0.75886094  1
  O  O357  1  0.25705110  0.62874911  0.25884044  1
  O  O358  1  0.24882252  0.61285870  0.75552219  1
  O  O359  1  0.74773477  0.11435417  0.26400289  1
  O  O360  1  0.75704709  0.11446424  0.75595845  1
  O  O361  1  0.76649142  0.61493907  0.25893446  1
  O  O362  1  0.75911316  0.63780741  0.75646985  1
  O  O363  1  0.36660592  0.13177468  0.36630932  1
  O  O364  1  0.36581297  0.13297738  0.86690180  1
  O  O365  1  0.36656107  0.61984671  0.36644229  1
  O  O366  1  0.36696769  0.61383868  0.87406739  1
  O  O367  1  0.86324533  0.11468570  0.37802084  1
  O  O368  1  0.87060046  0.11883331  0.87210915  1
  O  O369  1  0.86824661  0.61242881  0.36704343  1
  O  O370  1  0.86516425  0.62770860  0.86425184  1
  O  O371  1  0.13588652  0.38798399  0.11878254  1
  O  O372  1  0.11828567  0.38813091  0.63120988  1
  O  O373  1  0.13802458  0.87287180  0.12076632  1
  O  O374  1  0.12086675  0.88626259  0.63330740  1
  O  O375  1  0.61862594  0.39057632  0.11701752  1
  O  O376  1  0.64000088  0.37254647  0.63085775  1
  O  O377  1  0.62143698  0.88853888  0.11701196  1
  O  O378  1  0.63836630  0.88694620  0.62153453  1
  O  O379  1  0.13526345  0.24581339  0.27111741  1
  O  O380  1  0.12135902  0.25402704  0.75407465  1
  O  O381  1  0.11218414  0.74050952  0.25415309  1
  O  O382  1  0.12098007  0.75386875  0.75399224  1
  O  O383  1  0.62052691  0.24154505  0.26871621  1
  O  O384  1  0.61643299  0.24215681  0.75874499  1
  O  O385  1  0.62761780  0.74202533  0.23855684  1
  O  O386  1  0.62034883  0.75067852  0.76183561  1
  O  O387  1  0.37468054  0.23893260  0.24433684  1
  O  O388  1  0.38332961  0.24486209  0.74738680  1
  O  O389  1  0.37770133  0.73554411  0.25471766  1
  O  O390  1  0.37604032  0.74773034  0.74905613  1
  O  O391  1  0.87716423  0.24340314  0.24819406  1
  O  O392  1  0.88223332  0.24128572  0.74328946  1
  O  O393  1  0.87734452  0.73978371  0.23902310  1
  O  O394  1  0.88218757  0.74211323  0.73927423  1
  O  O395  1  0.38776497  0.50810160  0.48292527  1
  O  O396  1  0.37679252  0.49551509  0.99283595  1
  O  O397  1  0.39252234  1.00909077  0.51004040  1
  O  O398  1  0.38560011  0.99628849  1.00551053  1
  O  O399  1  0.89068166  0.49910203  0.48768691  1
  O  O400  1  0.87651223  0.49050183  0.99306143  1
  O  O401  1  0.88480601  1.00528218  0.49341534  1
  O  O402  1  0.88008425  0.99160777  0.99579898  1
  O  O403  1  0.11578653  0.00826992  -0.00683838  1
  O  O404  1  0.12017161  -0.00074966  0.51065192  1
  O  O405  1  0.12392266  0.50943894  0.00367109  1
  O  O406  1  0.11535903  0.50122584  0.50599350  1
  O  O407  1  0.61846601  0.00748457  0.00889624  1
  O  O408  1  0.61627675  0.00966987  0.50930351  1
  O  O409  1  0.61154865  0.50553478  -0.00056542  1
  O  O410  1  0.60963018  0.51056269  0.49347293  1
  O  O411  1  0.36905743  0.37413318  0.11989975  1
  O  O412  1  0.37985895  0.36182036  0.63272890  1
  O  O413  1  0.36307181  0.87797417  0.10972323  1
  O  O414  1  0.37538954  0.87143327  0.61311179  1
  O  O415  1  0.87617671  0.37463022  0.11095953  1
  O  O416  1  0.86673106  0.36085587  0.63111465  1
  O  O417  1  0.87558442  0.86440883  0.11156887  1
  O  O418  1  0.86160486  0.86935562  0.62646353  1
  O  O419  1  0.14260650  0.13245122  0.38081653  1
  O  O420  1  0.13488229  0.13051913  0.88249738  1
  O  O421  1  0.13207775  0.63166335  0.37183786  1
  O  O422  1  0.12945889  0.62907394  0.88029426  1
  O  O423  1  0.63151478  0.12869124  0.38437403  1
  O  O424  1  0.63152591  0.13361821  0.88249506  1
  O  O425  1  0.64569143  0.61397009  0.36837947  1
  O  O426  1  0.62799580  0.63891164  0.87914893  1
