# generated using pymatgen
data_V85Zn86O256
_symmetry_space_group_name_H-M   'P 1'
_cell_length_a   16.96005843
_cell_length_b   16.97152960
_cell_length_c   16.95186859
_cell_angle_alpha   90.06994469
_cell_angle_beta   90.13464978
_cell_angle_gamma   89.94797241
_symmetry_Int_Tables_number   1
_chemical_formula_structural   V85Zn86O256
_chemical_formula_sum   'V85 Zn86 O256'
_cell_volume   4879.37510846
_cell_formula_units_Z   1
loop_
 _symmetry_equiv_pos_site_id
 _symmetry_equiv_pos_as_xyz
  1  'x, y, z'
loop_
 _atom_site_type_symbol
 _atom_site_label
 _atom_site_symmetry_multiplicity
 _atom_site_fract_x
 _atom_site_fract_y
 _atom_site_fract_z
 _atom_site_occupancy
  V  V0  1  0.00337767  0.86441400  0.87606689  1
  V  V1  1  0.49858305  0.12206576  0.12043751  1
  V  V2  1  -0.00024089  0.25085355  0.25175900  1
  V  V3  1  0.37081044  0.37621924  0.49908429  1
  V  V4  1  0.36808467  0.62031716  0.74545545  1
  V  V5  1  0.74450046  0.50362919  0.25477587  1
  V  V6  1  0.37962365  0.12840863  0.75047194  1
  V  V7  1  0.74026808  0.61760531  0.87082081  1
  V  V8  1  0.25190961  0.87424420  0.62557102  1
  V  V9  1  0.36601982  0.49786403  0.86910753  1
  V  V10  1  -0.00267487  0.61487298  0.11938915  1
  V  V11  1  0.87797920  0.12702805  0.75302599  1
  V  V12  1  0.13316968  0.38312764  0.74906511  1
  V  V13  1  0.86923600  0.24965140  0.12719241  1
  V  V14  1  0.36521956  0.75049686  0.11902573  1
  V  V15  1  0.87417976  -0.00088953  0.37749590  1
  V  V16  1  0.12601440  0.74819396  0.37261073  1
  V  V17  1  0.74808559  0.00085947  0.25137964  1
  V  V18  1  0.73988106  0.75114581  -0.00997145  1
  V  V19  1  0.25271588  -0.00095051  0.75212723  1
  V  V20  1  0.00845784  0.12372414  0.62510136  1
  V  V21  1  0.12645138  0.62319786  0.49604482  1
  V  V22  1  0.87806296  0.00027996  0.87489555  1
  V  V23  1  0.49709150  0.75095810  0.24931399  1
  V  V24  1  -0.00353041  0.63527306  0.62464781  1
  V  V25  1  0.75688568  0.38106752  0.62376930  1
  V  V26  1  -0.00072435  0.37617396  0.37763557  1
  V  V27  1  0.86790337  0.62613672  0.25218079  1
  V  V28  1  0.86603144  0.62431128  0.74581680  1
  V  V29  1  0.12626369  0.37861871  0.25336803  1
  V  V30  1  0.63026065  0.86933186  0.73049717  1
  V  V31  1  0.38054367  0.24863204  0.62856397  1
  V  V32  1  0.36992958  0.24973981  0.12267973  1
  V  V33  1  0.74802768  0.87627815  0.12348038  1
  V  V34  1  0.37727997  0.87575117  0.50157664  1
  V  V35  1  0.75194959  -0.00706737  0.73628404  1
  V  V36  1  0.00207091  -0.00332382  0.50245458  1
  V  V37  1  0.51147828  0.86944942  0.88368207  1
  V  V38  1  0.37124408  0.00793202  0.37545812  1
  V  V39  1  0.24651841  0.23667480  0.49838481  1
  V  V40  1  -0.00344333  0.49821495  0.50356602  1
  V  V41  1  0.25143973  0.12398282  0.88303853  1
  V  V42  1  0.36693519  0.87444820  -0.00085082  1
  V  V43  1  0.12904764  0.00310566  0.62171361  1
  V  V44  1  0.87362041  0.12422663  0.25253071  1
  V  V45  1  0.51275285  0.01191477  0.51469322  1
  V  V46  1  0.36732191  0.61921936  0.26121136  1
  V  V47  1  0.50060902  0.24796674  0.25477634  1
  V  V48  1  0.00372001  0.25469297  0.75259470  1
  V  V49  1  0.49674675  0.62471248  0.12211762  1
  V  V50  1  0.88306775  0.25393389  0.61074961  1
  V  V51  1  0.87195715  0.49986493  0.37615353  1
  V  V52  1  0.63558035  0.37787377  0.75647826  1
  V  V53  1  0.73142425  0.25081803  0.49590580  1
  V  V54  1  0.74020398  0.24817376  -0.00459101  1
  V  V55  1  0.49810067  0.49989006  0.49601405  1
  V  V56  1  0.36872371  0.37159522  -0.00135165  1
  V  V57  1  -0.00190529  0.74879714  0.24831232  1
  V  V58  1  0.50284527  0.87657735  0.37492320  1
  V  V59  1  0.50041412  0.49870985  -0.00284015  1
  V  V60  1  0.11931176  0.62986069  -0.00661784  1
  V  V61  1  0.25149957  0.38054873  0.12739418  1
  V  V62  1  0.50035146  0.62437008  0.62441592  1
  V  V63  1  0.87208776  0.74993386  0.12365936  1
  V  V64  1  0.12706379  0.86581220  0.75518948  1
  V  V65  1  0.62313544  0.37089289  0.25540913  1
  V  V66  1  0.24811900  0.64166393  0.87896201  1
  V  V67  1  0.62285846  0.87642661  0.24861308  1
  V  V68  1  0.25137559  0.74712356  0.49406409  1
  V  V69  1  0.50405770  0.36365339  0.86934045  1
  V  V70  1  -0.00234173  0.12339345  0.12406859  1
  V  V71  1  0.75481570  0.75383961  0.50344784  1
  V  V72  1  0.61961588  0.00355540  0.11658753  1
  V  V73  1  0.74429705  0.12935503  0.87204985  1
  V  V74  1  0.63096190  0.62446823  0.49042164  1
  V  V75  1  0.13168695  0.24940768  0.87559787  1
  V  V76  1  0.73645852  0.12776986  0.37943727  1
  V  V77  1  0.87275256  0.87174550  0.51643251  1
  V  V78  1  0.12601138  0.12737004  0.00211561  1
  V  V79  1  0.87426932  0.87375971  -0.00215587  1
  V  V80  1  -0.00348791  0.87299937  0.37469841  1
  V  V81  1  0.24674222  0.00481154  0.25184967  1
  V  V82  1  0.38732294  -0.00101775  0.88053836  1
  V  V83  1  0.74652210  0.37391562  0.12473749  1
  V  V84  1  0.49652672  0.37456606  0.37557929  1
  Zn  Zn85  1  0.37644861  0.74832821  0.62634584  1
  Zn  Zn86  1  0.61578920  0.63242032  -0.01129808  1
  Zn  Zn87  1  0.62249317  0.50150293  0.12390193  1
  Zn  Zn88  1  0.50820264  0.74434344  0.75562844  1
  Zn  Zn89  1  0.24271024  0.87164059  0.12178983  1
  Zn  Zn90  1  0.88230971  0.50208035  0.88132876  1
  Zn  Zn91  1  0.25320000  0.50177942  0.28152481  1
  Zn  Zn92  1  0.12500811  0.87330700  0.24601213  1
  Zn  Zn93  1  0.53664606  0.21703781  0.71740937  1
  Zn  Zn94  1  0.00025425  -0.00123016  0.00050635  1
  Zn  Zn95  1  -0.00546110  0.75180248  0.74571420  1
  Zn  Zn96  1  0.25685607  0.38355522  0.63025765  1
  Zn  Zn97  1  0.12384109  0.49875809  0.12080965  1
  Zn  Zn98  1  0.12478897  -0.00317544  0.12411235  1
  Zn  Zn99  1  0.00430039  0.39084531  0.88825377  1
  Zn  Zn100  1  0.88034346  0.38337198  -0.00004755  1
  Zn  Zn101  1  0.63451622  0.74250885  0.36696574  1
  Zn  Zn102  1  0.36752473  0.13033824  0.25414926  1
  Zn  Zn103  1  0.13748721  0.23357185  0.37486536  1
  Zn  Zn104  1  0.13074569  0.50625225  0.63153491  1
  Zn  Zn105  1  0.63429508  0.50304325  0.62660614  1
  Zn  Zn106  1  0.61399531  0.12406671  -0.01858334  1
  Zn  Zn107  1  0.18668115  0.18970534  0.18829073  1
  Zn  Zn108  1  0.19652789  0.19138824  0.68799887  1
  Zn  Zn109  1  0.18527813  0.68266533  0.18558307  1
  Zn  Zn110  1  0.19035720  0.68461720  0.68338057  1
  Zn  Zn111  1  0.68418338  0.18565728  0.18942438  1
  Zn  Zn112  1  0.69860306  0.19198013  0.68307337  1
  Zn  Zn113  1  0.68376820  0.68960449  0.18178090  1
  Zn  Zn114  1  0.68641855  0.69019336  0.68219322  1
  Zn  Zn115  1  0.31151854  0.31217236  0.31536085  1
  Zn  Zn116  1  0.31328725  0.31089179  0.81405789  1
  Zn  Zn117  1  0.31308481  0.81591027  0.30837293  1
  Zn  Zn118  1  0.32043622  0.81097999  0.80977261  1
  Zn  Zn119  1  0.81307665  0.31243397  0.31695884  1
  Zn  Zn120  1  0.81643007  0.31653012  0.81331953  1
  Zn  Zn121  1  0.80915670  0.81206290  0.31793885  1
  Zn  Zn122  1  0.81182588  0.80727266  0.80715842  1
  Zn  Zn123  1  0.18679612  0.43418144  0.44064738  1
  Zn  Zn124  1  0.18286103  0.44362395  0.93840929  1
  Zn  Zn125  1  0.18797443  0.93530388  0.43469435  1
  Zn  Zn126  1  0.18721301  0.94005348  0.93752002  1
  Zn  Zn127  1  0.68615270  0.43467710  0.43929526  1
  Zn  Zn128  1  0.68944935  0.44010330  0.93927554  1
  Zn  Zn129  1  0.68885266  0.93720149  0.44195849  1
  Zn  Zn130  1  0.69108340  0.94349983  0.93312103  1
  Zn  Zn131  1  0.31398570  0.05811523  0.06426478  1
  Zn  Zn132  1  0.32070616  0.06148571  0.56581817  1
  Zn  Zn133  1  0.31111408  0.56177186  0.05926813  1
  Zn  Zn134  1  0.30934695  0.55754025  0.55490891  1
  Zn  Zn135  1  0.80882463  0.06411052  0.05938407  1
  Zn  Zn136  1  0.81732732  0.06938383  0.55913830  1
  Zn  Zn137  1  0.80786381  0.56262936  0.06039802  1
  Zn  Zn138  1  0.81399317  0.56897545  0.55929362  1
  Zn  Zn139  1  0.43541394  0.43927351  0.18822523  1
  Zn  Zn140  1  0.44435123  0.43630315  0.68656356  1
  Zn  Zn141  1  0.43259218  0.93869376  0.18643999  1
  Zn  Zn142  1  0.44333977  0.93721387  0.69319734  1
  Zn  Zn143  1  0.93252710  0.43702022  0.18958181  1
  Zn  Zn144  1  0.93762227  0.44133215  0.69207557  1
  Zn  Zn145  1  0.93588114  0.93692730  0.18826130  1
  Zn  Zn146  1  0.94239222  0.93800483  0.69228903  1
  Zn  Zn147  1  0.06525844  0.06254836  0.31587565  1
  Zn  Zn148  1  0.06562496  0.05904965  0.81163952  1
  Zn  Zn149  1  0.06032768  0.56212053  0.31069474  1
  Zn  Zn150  1  0.05753794  0.56576979  0.81352638  1
  Zn  Zn151  1  0.55721371  0.06021079  0.31079021  1
  Zn  Zn152  1  0.58160752  0.07044604  0.76473597  1
  Zn  Zn153  1  0.55470968  0.56012602  0.31042182  1
  Zn  Zn154  1  0.56027287  0.55367666  0.80760956  1
  Zn  Zn155  1  0.43999335  0.18892945  0.44228710  1
  Zn  Zn156  1  0.43646078  0.18769912  0.93787608  1
  Zn  Zn157  1  0.44144059  0.68919558  0.43733725  1
  Zn  Zn158  1  0.43226568  0.69021974  0.93494104  1
  Zn  Zn159  1  0.96110079  0.17477472  0.42750782  1
  Zn  Zn160  1  0.95226336  0.22277889  0.95660973  1
  Zn  Zn161  1  0.93575025  0.68722213  0.43686452  1
  Zn  Zn162  1  0.93001076  0.68333590  0.93577647  1
  Zn  Zn163  1  0.06653260  0.31126041  0.06637510  1
  Zn  Zn164  1  0.06593141  0.31429455  0.56319997  1
  Zn  Zn165  1  0.06351017  0.80759847  0.06057818  1
  Zn  Zn166  1  0.06583204  0.81534059  0.56196918  1
  Zn  Zn167  1  0.55971753  0.31089636  0.06361572  1
  Zn  Zn168  1  0.56541632  0.31783987  0.56609925  1
  Zn  Zn169  1  0.55692606  0.81433530  0.06315817  1
  Zn  Zn170  1  0.56396027  0.80750083  0.55713540  1
  O  O171  1  0.11585817  0.12747338  0.11822046  1
  O  O172  1  0.12094892  0.11387214  0.63731631  1
  O  O173  1  0.11432210  0.62193764  0.11738923  1
  O  O174  1  0.11611650  0.62549345  0.61371433  1
  O  O175  1  0.61470424  0.11696085  0.12857188  1
  O  O176  1  0.60606286  0.13299638  0.67231040  1
  O  O177  1  0.60673846  0.62364661  0.12254352  1
  O  O178  1  0.61716982  0.62256961  0.61360243  1
  O  O179  1  0.38673903  0.36917045  0.38577152  1
  O  O180  1  0.38126812  0.37863108  0.87970082  1
  O  O181  1  0.38276671  0.88239559  0.38280492  1
  O  O182  1  0.38015690  0.88161985  0.88058278  1
  O  O183  1  0.88336023  0.39218843  0.36532825  1
  O  O184  1  0.88136461  0.38039544  0.87725729  1
  O  O185  1  0.87953260  0.88148844  0.38256367  1
  O  O186  1  0.88193730  0.88244273  0.87647274  1
  O  O187  1  0.25799542  -0.00596074  0.36488385  1
  O  O188  1  0.25833999  0.00786653  0.87055669  1
  O  O189  1  0.25396607  0.50437664  0.39166058  1
  O  O190  1  0.26389693  0.50182054  0.87607039  1
  O  O191  1  0.75461416  0.00802619  0.37270796  1
  O  O192  1  0.76390858  0.00691196  0.86616297  1
  O  O193  1  0.75612899  0.49248115  0.36365801  1
  O  O194  1  0.75008442  0.51634471  0.87724751  1
  O  O195  1  0.25380728  0.48586835  0.12833078  1
  O  O196  1  0.24194148  0.49518574  0.61713219  1
  O  O197  1  0.24888308  0.99784959  0.13910416  1
  O  O198  1  0.24626764  0.99480055  0.63056811  1
  O  O199  1  0.74543504  0.49077178  0.13679939  1
  O  O200  1  0.75543432  0.48435567  0.61029354  1
  O  O201  1  0.74200783  0.99665612  0.13078638  1
  O  O202  1  0.75960348  1.00841579  0.63822373  1
  O  O203  1  0.00785589  0.37324293  0.25444519  1
  O  O204  1  0.01042575  0.36367174  0.75186712  1
  O  O205  1  -0.00149264  0.86651243  0.25603895  1
  O  O206  1  0.00926998  0.87178244  0.75792427  1
  O  O207  1  0.50320964  0.37011818  0.25567466  1
  O  O208  1  0.51309728  0.37536065  0.75752238  1
  O  O209  1  0.50136286  0.87223723  0.25642595  1
  O  O210  1  0.51548809  0.87360863  0.75906105  1
  O  O211  1  0.49601462  0.13408612  0.24227147  1
  O  O212  1  0.48074037  0.12901759  0.77270807  1
  O  O213  1  0.48932071  0.62900412  0.24013374  1
  O  O214  1  0.49387401  0.62387059  0.74013043  1
  O  O215  1  0.99286155  0.12929011  0.23935165  1
  O  O216  1  0.99669827  0.12912602  0.74260161  1
  O  O217  1  0.98930458  0.62899957  0.24070916  1
  O  O218  1  0.99575282  0.63058100  0.73992674  1
  O  O219  1  0.37997220  0.26122662  0.01081573  1
  O  O220  1  0.36955480  0.25594234  0.50797269  1
  O  O221  1  0.37741991  0.75954154  0.00899351  1
  O  O222  1  0.36829581  0.75939486  0.49769691  1
  O  O223  1  0.85396238  0.24882891  0.01208460  1
  O  O224  1  0.89178759  0.24529295  0.51198074  1
  O  O225  1  0.86369120  0.75474862  0.00470606  1
  O  O226  1  0.86423827  0.75607828  0.49471973  1
  O  O227  1  0.14378665  0.25447407  0.50433519  1
  O  O228  1  0.12368522  0.23644965  0.98951274  1
  O  O229  1  0.13112293  0.74465679  0.49192764  1
  O  O230  1  0.12951814  0.72989033  1.00625834  1
  O  O231  1  0.63325371  0.24680351  0.50279330  1
  O  O232  1  0.63522147  0.24422880  1.00557502  1
  O  O233  1  0.63421793  0.74279870  0.49312026  1
  O  O234  1  0.63490972  0.74961721  1.00709923  1
  O  O235  1  0.49000925  0.24493539  0.13421690  1
  O  O236  1  0.48545584  0.25685035  0.62210225  1
  O  O237  1  0.48946282  0.74276192  0.12896555  1
  O  O238  1  0.49813179  0.73433827  0.62119535  1
  O  O239  1  0.99219195  0.24108418  0.13283600  1
  O  O240  1  1.00164895  0.24310688  0.63414851  1
  O  O241  1  0.99062889  0.73988992  0.12915947  1
  O  O242  1  1.00313144  0.73888550  0.62085781  1
  O  O243  1  -0.01676781  0.27185948  0.36700910  1
  O  O244  1  0.01628893  0.23772840  0.86043033  1
  O  O245  1  0.00540041  0.75361430  0.36917266  1
  O  O246  1  -0.00545857  0.76254491  0.87532987  1
  O  O247  1  0.49472131  0.25755831  0.36372085  1
  O  O248  1  0.49937330  0.26374572  0.87976216  1
  O  O249  1  0.50083126  0.76410345  0.36928978  1
  O  O250  1  0.49449819  0.76496689  0.87266222  1
  O  O251  1  0.25666956  0.13739146  0.50763788  1
  O  O252  1  0.24206439  0.11868997  0.99167266  1
  O  O253  1  0.23946214  0.63823935  0.50416062  1
  O  O254  1  0.24703495  0.62377325  0.98453126  1
  O  O255  1  0.75615574  0.14074857  0.49313895  1
  O  O256  1  0.74527743  0.13029744  0.98871866  1
  O  O257  1  0.74008963  0.63316793  0.49887798  1
  O  O258  1  0.74356101  0.63268772  0.98751623  1
  O  O259  1  0.26226874  0.38001664  0.00745175  1
  O  O260  1  0.26269990  0.36429966  0.50165336  1
  O  O261  1  0.26168043  0.87953971  0.00074990  1
  O  O262  1  0.25905386  0.86902955  0.50409421  1
  O  O263  1  0.74242060  0.36722200  0.01283484  1
  O  O264  1  0.74708598  0.35860794  0.50507692  1
  O  O265  1  0.75418478  0.87013805  0.00257219  1
  O  O266  1  0.75857147  0.86486951  0.49863229  1
  O  O267  1  0.12720558  0.48875242  0.24856588  1
  O  O268  1  0.11997625  0.48474306  0.75400513  1
  O  O269  1  0.13549170  0.99861633  0.25302198  1
  O  O270  1  0.13258164  0.99043170  0.74214044  1
  O  O271  1  0.62911904  0.49191877  0.24917980  1
  O  O272  1  0.62457856  0.48566109  0.74213739  1
  O  O273  1  0.62951851  0.99526783  0.24098324  1
  O  O274  1  0.64092405  0.97754515  0.75703510  1
  O  O275  1  0.36396936  0.00147865  0.25765757  1
  O  O276  1  0.37101563  0.00671166  0.75884656  1
  O  O277  1  0.37618407  0.51520548  0.24889786  1
  O  O278  1  0.38331366  0.50957151  0.75763262  1
  O  O279  1  0.86709304  0.00396032  0.25604087  1
  O  O280  1  0.87302494  0.00625692  0.75624094  1
  O  O281  1  0.86401671  0.50801774  0.25490661  1
  O  O282  1  0.88054662  0.51973321  0.75386912  1
  O  O283  1  0.11441056  0.37086968  0.36809725  1
  O  O284  1  0.12609818  0.36519642  0.86888403  1
  O  O285  1  0.11550214  0.86288797  0.37538821  1
  O  O286  1  0.11540643  0.88417889  0.86658063  1
  O  O287  1  0.61424975  0.37617096  0.36384452  1
  O  O288  1  0.62089916  0.38389442  0.86390136  1
  O  O289  1  0.61452668  0.87911652  0.36693386  1
  O  O290  1  0.61207257  0.87716500  0.88253357  1
  O  O291  1  0.38039001  0.13376223  0.12531741  1
  O  O292  1  0.37165271  0.13309033  0.64037002  1
  O  O293  1  0.38196813  0.63167097  0.12551971  1
  O  O294  1  0.38154555  0.62178689  0.62965064  1
  O  O295  1  0.87834039  0.12865223  0.13053472  1
  O  O296  1  0.88538356  0.13345148  0.63651694  1
  O  O297  1  0.87778660  0.62964705  0.13239270  1
  O  O298  1  0.88161280  0.62241729  0.63588434  1
  O  O299  1  0.26177675  0.26200544  0.13280295  1
  O  O300  1  0.26189924  0.25626824  0.61667362  1
  O  O301  1  0.26202635  0.75086320  0.13092586  1
  O  O302  1  0.25175565  0.75657343  0.61168264  1
  O  O303  1  0.74943057  0.25672467  0.12259981  1
  O  O304  1  0.76304514  0.25456692  0.60988834  1
  O  O305  1  0.75351056  0.75671578  0.11638348  1
  O  O306  1  0.74738472  0.74649891  0.60366288  1
  O  O307  1  0.25256237  0.24808390  0.39038680  1
  O  O308  1  0.24150018  0.23731234  0.87166758  1
  O  O309  1  0.23986447  0.75943671  0.38416752  1
  O  O310  1  0.25587552  0.73998155  0.87558009  1
  O  O311  1  0.75366567  0.24506076  0.38891118  1
  O  O312  1  0.75695461  0.24022955  0.88283124  1
  O  O313  1  0.74676638  0.75073413  0.38804214  1
  O  O314  1  0.75238870  0.74165067  0.88457456  1
  O  O315  1  0.00482168  0.12912324  0.01029140  1
  O  O316  1  -0.00690460  0.11304934  0.52188226  1
  O  O317  1  0.00925677  0.63052207  0.00542464  1
  O  O318  1  0.00538815  0.62017019  0.50543013  1
  O  O319  1  0.50199398  0.13212375  0.01449995  1
  O  O320  1  0.49833466  0.11012725  0.49803122  1
  O  O321  1  0.49548762  0.61735756  0.00301827  1
  O  O322  1  0.50421562  0.61751795  0.50444073  1
  O  O323  1  0.49644149  0.37952881  0.49327763  1
  O  O324  1  0.49216318  0.38160190  0.99452386  1
  O  O325  1  0.49266227  0.87890646  0.49300476  1
  O  O326  1  0.48943771  0.87323082  0.98866992  1
  O  O327  1  1.00780926  0.38745222  0.49199113  1
  O  O328  1  0.98830943  0.33469346  0.98999363  1
  O  O329  1  0.99214639  0.87748886  0.49548214  1
  O  O330  1  0.99362936  0.87608823  0.99233620  1
  O  O331  1  0.50173880  0.48754192  0.38466250  1
  O  O332  1  0.48975956  0.49209810  0.88214150  1
  O  O333  1  0.49158005  0.99075431  0.37972935  1
  O  O334  1  0.48903053  0.98558452  0.86930511  1
  O  O335  1  0.99273389  0.49407157  0.37997616  1
  O  O336  1  0.99933241  0.50299923  0.88204556  1
  O  O337  1  0.99406139  0.99156303  0.38248639  1
  O  O338  1  0.98981045  0.99367724  0.87432743  1
  O  O339  1  -0.00125789  0.01279171  0.12425485  1
  O  O340  1  0.01101688  0.00518966  0.62532781  1
  O  O341  1  -0.00266902  0.51172429  0.13018090  1
  O  O342  1  0.00199634  0.50884519  0.61587702  1
  O  O343  1  0.50653137  0.01058614  0.13275275  1
  O  O344  1  0.49484640  -0.00124187  0.61345677  1
  O  O345  1  0.49534823  0.50708273  0.11403560  1
  O  O346  1  0.50357812  0.50880876  0.61338708  1
  O  O347  1  0.24293290  0.37791792  0.24679197  1
  O  O348  1  0.23631456  0.37097585  0.75260439  1
  O  O349  1  0.24705380  0.88727218  0.24654240  1
  O  O350  1  0.24685400  0.87882981  0.74680017  1
  O  O351  1  0.74077381  0.37943572  0.24538425  1
  O  O352  1  0.74434277  0.37398655  0.74067866  1
  O  O353  1  0.74413234  0.88057814  0.24359765  1
  O  O354  1  0.74159505  0.87836968  0.75116820  1
  O  O355  1  0.24864200  0.11205653  0.24910282  1
  O  O356  1  0.25848591  0.11935310  0.76228177  1
  O  O357  1  0.26365768  0.62143913  0.24493889  1
  O  O358  1  0.25768618  0.62796958  0.76077484  1
  O  O359  1  0.75470045  0.12184724  0.25905269  1
  O  O360  1  0.76399559  0.12048642  0.75487876  1
  O  O361  1  0.75558037  0.61601108  0.24087602  1
  O  O362  1  0.75661175  0.63042979  0.75664342  1
  O  O363  1  0.38088313  0.11140372  0.37413045  1
  O  O364  1  0.36697612  0.11884581  0.87637337  1
  O  O365  1  0.37967611  0.63243267  0.35948873  1
  O  O366  1  0.36503079  0.61845501  0.86809308  1
  O  O367  1  0.87200843  0.11688635  0.37001244  1
  O  O368  1  0.87217113  0.11784156  0.86411086  1
  O  O369  1  0.88160507  0.61500088  0.36013176  1
  O  O370  1  0.86132826  0.62461390  0.86448015  1
  O  O371  1  0.13399624  0.37466362  0.13303780  1
  O  O372  1  0.12495647  0.37494386  0.64251327  1
  O  O373  1  0.12429092  0.87844162  0.12656844  1
  O  O374  1  0.13121226  0.88341786  0.63396697  1
  O  O375  1  0.62945346  0.37724240  0.13592911  1
  O  O376  1  0.63855465  0.37727303  0.63222626  1
  O  O377  1  0.62650801  0.88431752  0.12885326  1
  O  O378  1  0.62135436  0.87418282  0.63240780  1
  O  O379  1  0.11924759  0.26137511  0.25269461  1
  O  O380  1  0.12227931  0.25586399  0.75665302  1
  O  O381  1  0.11867434  0.74665024  0.25868830  1
  O  O382  1  0.12681281  0.76385729  0.74381702  1
  O  O383  1  0.61215300  0.25995046  0.24364302  1
  O  O384  1  0.63159974  0.27266489  0.74931107  1
  O  O385  1  0.61637532  0.75756292  0.24809266  1
  O  O386  1  0.62731977  0.76445605  0.74784505  1
  O  O387  1  0.38260440  0.25107817  0.24168507  1
  O  O388  1  0.36923536  0.24246043  0.74187956  1
  O  O389  1  0.37893672  0.74200736  0.24130546  1
  O  O390  1  0.38137541  0.73503711  0.74591421  1
  O  O391  1  0.87767348  0.24424484  0.24561246  1
  O  O392  1  0.88652377  0.24210344  0.74550194  1
  O  O393  1  0.87551883  0.74256690  0.24525300  1
  O  O394  1  0.87824694  0.73290609  0.75221929  1
  O  O395  1  0.38878313  0.48803379  0.50490589  1
  O  O396  1  0.38244709  0.49100118  0.99134884  1
  O  O397  1  0.38003937  0.99037876  0.49401506  1
  O  O398  1  0.37385665  0.99103844  0.99071680  1
  O  O399  1  0.88594234  0.51168718  0.48744811  1
  O  O400  1  0.86837325  0.49575995  0.99852405  1
  O  O401  1  0.88049434  0.99132904  0.49778370  1
  O  O402  1  0.87444053  0.99436052  0.99005812  1
  O  O403  1  0.11979701  0.01473377  0.00061970  1
  O  O404  1  0.12085526  -0.01030455  0.51451261  1
  O  O405  1  0.13155459  0.51824772  0.00578339  1
  O  O406  1  0.11108421  0.51108549  0.49677961  1
  O  O407  1  0.63039361  0.00503517  0.01313889  1
  O  O408  1  0.61099834  -0.00553065  0.50018767  1
  O  O409  1  0.61000407  0.50285270  0.00074995  1
  O  O410  1  0.61696328  0.50631216  0.50049280  1
  O  O411  1  0.37093181  0.36933526  0.11881218  1
  O  O412  1  0.37709548  0.36851679  0.61741031  1
  O  O413  1  0.37576999  0.86735870  0.11549998  1
  O  O414  1  0.37178098  0.87377371  0.61683853  1
  O  O415  1  0.85990825  0.36817615  0.13020811  1
  O  O416  1  0.86998469  0.36406172  0.63454756  1
  O  O417  1  0.86817765  0.87080963  0.11857260  1
  O  O418  1  0.88322616  0.87648504  0.61543707  1
  O  O419  1  0.07093138  0.14582176  0.38729220  1
  O  O420  1  0.13326639  0.12778833  0.87983285  1
  O  O421  1  0.11494526  0.63710090  0.38441248  1
  O  O422  1  0.13758566  0.62401167  0.88175382  1
  O  O423  1  0.63786039  0.12137998  0.36870820  1
  O  O424  1  0.64150247  0.11495480  0.86514994  1
  O  O425  1  0.61255381  0.62553693  0.38559649  1
  O  O426  1  0.63508467  0.62328869  0.86805621  1
