# generated using pymatgen
data_V85Zn86O256
_symmetry_space_group_name_H-M   'P 1'
_cell_length_a   16.99942300
_cell_length_b   16.97146108
_cell_length_c   16.99362997
_cell_angle_alpha   90.11896002
_cell_angle_beta   90.00926373
_cell_angle_gamma   89.89758611
_symmetry_Int_Tables_number   1
_chemical_formula_structural   V85Zn86O256
_chemical_formula_sum   'V85 Zn86 O256'
_cell_volume   4902.72953305
_cell_formula_units_Z   1
loop_
 _symmetry_equiv_pos_site_id
 _symmetry_equiv_pos_as_xyz
  1  'x, y, z'
loop_
 _atom_site_type_symbol
 _atom_site_label
 _atom_site_symmetry_multiplicity
 _atom_site_fract_x
 _atom_site_fract_y
 _atom_site_fract_z
 _atom_site_occupancy
  V  V0  1  0.37400347  0.75024207  0.12447166  1
  V  V1  1  0.37232775  0.87425146  -0.00073204  1
  V  V2  1  0.12586513  0.87408940  0.74787142  1
  V  V3  1  0.75016642  0.74945782  0.00047995  1
  V  V4  1  0.12801447  0.50461459  0.62360156  1
  V  V5  1  0.38268633  0.62922285  0.75589513  1
  V  V6  1  0.12684530  0.63521813  0.50123716  1
  V  V7  1  0.74941281  0.87378692  0.62601543  1
  V  V8  1  0.37070027  0.37149300  0.49718196  1
  V  V9  1  0.74856856  0.62344252  0.87563800  1
  V  V10  1  0.50106802  0.75002534  0.25040733  1
  V  V11  1  0.37051846  0.11463928  0.26174226  1
  V  V12  1  0.87497970  0.75305304  0.12361779  1
  V  V13  1  0.36841746  0.49989275  0.87440755  1
  V  V14  1  0.13010964  -0.00051336  0.12694435  1
  V  V15  1  0.87394675  0.62423166  0.74994955  1
  V  V16  1  0.36635949  0.12573292  0.75427643  1
  V  V17  1  0.61928929  0.74766856  0.87233064  1
  V  V18  1  0.87644776  0.61920332  0.25319337  1
  V  V19  1  0.62132538  0.00140339  0.62550768  1
  V  V20  1  0.00044331  0.62853914  0.62495445  1
  V  V21  1  0.24861567  0.63109233  0.37924042  1
  V  V22  1  0.87495195  0.13400603  0.25981311  1
  V  V23  1  0.12708676  0.75538147  0.37884376  1
  V  V24  1  0.62758259  0.00035832  0.12453979  1
  V  V25  1  0.00378474  0.36313950  0.37127525  1
  V  V26  1  0.75186095  0.24864058  0.00028052  1
  V  V27  1  0.61850882  0.87126607  0.74975214  1
  V  V28  1  0.24862764  -0.00233203  0.74956959  1
  V  V29  1  0.87735952  0.38237739  0.49739785  1
  V  V30  1  0.49977649  0.50335169  0.50306283  1
  V  V31  1  -0.00701276  0.88093161  0.37287241  1
  V  V32  1  0.37136892  0.00055127  0.87440631  1
  V  V33  1  0.75519336  0.61667033  0.37554415  1
  V  V34  1  0.62515406  0.13285644  0.48890836  1
  V  V35  1  0.00070101  0.50472797  0.49013973  1
  V  V36  1  0.87703022  0.37196858  0.00129765  1
  V  V37  1  0.37267114  0.50028328  0.37628444  1
  V  V38  1  0.49728093  0.24943404  0.75108218  1
  V  V39  1  -0.00657235  0.00266321  -0.00035319  1
  V  V40  1  0.37437119  0.62542792  0.25086338  1
  V  V41  1  -0.00688678  0.87667652  0.87700428  1
  V  V42  1  0.74502856  0.49836965  0.24738461  1
  V  V43  1  0.87434232  0.49798698  0.87529130  1
  V  V44  1  0.49923573  0.00099961  0.00002682  1
  V  V45  1  0.74908336  0.74687415  0.50063934  1
  V  V46  1  0.49672716  -0.00320598  0.49165845  1
  V  V47  1  0.00121424  0.49692820  -0.00005155  1
  V  V48  1  0.49706483  0.12562648  0.62437382  1
  V  V49  1  0.12129388  0.37039074  0.74909822  1
  V  V50  1  0.00110505  0.74947893  0.24735996  1
  V  V51  1  0.37043430  0.25002474  0.62143457  1
  V  V52  1  0.25194772  0.24244821  0.00467964  1
  V  V53  1  0.87516062  0.74928141  0.62620839  1
  V  V54  1  -0.00037972  0.74874467  0.75064406  1
  V  V55  1  0.50299279  0.62221659  0.12397973  1
  V  V56  1  0.36825050  0.36944026  0.01272786  1
  V  V57  1  0.74789335  0.49904258  0.75101860  1
  V  V58  1  0.75476317  0.00386798  0.26383132  1
  V  V59  1  0.12618587  0.49594598  0.12706310  1
  V  V60  1  0.25167081  0.37772048  0.62333074  1
  V  V61  1  0.24564566  0.13092759  0.40036244  1
  V  V62  1  0.24869298  0.49560563  0.24704600  1
  V  V63  1  0.62362693  0.75130043  0.37408595  1
  V  V64  1  0.88400051  0.24838501  0.63057986  1
  V  V65  1  0.12779374  0.12187064  -0.00852606  1
  V  V66  1  0.49731916  0.37389914  0.87595146  1
  V  V67  1  0.36970534  0.87123566  0.49652917  1
  V  V68  1  0.87503969  0.87768390  0.49667922  1
  V  V69  1  0.12816893  0.73962027  0.87630208  1
  V  V70  1  0.12930179  0.36279823  0.25414209  1
  V  V71  1  0.24901997  0.74224780  -0.00220155  1
  V  V72  1  0.49809510  0.87279648  0.87357079  1
  V  V73  1  0.49172313  0.13020225  0.12481865  1
  V  V74  1  0.50640076  0.37334633  0.37089647  1
  V  V75  1  0.62312480  0.62136993  0.50100748  1
  V  V76  1  0.39504565  0.74361909  0.62789445  1
  V  V77  1  0.62029722  0.50323990  0.62483160  1
  V  V78  1  0.74970008  0.37417278  0.62314859  1
  V  V79  1  0.25325259  0.86331849  0.62830404  1
  V  V80  1  0.12913928  0.88336584  0.24855362  1
  V  V81  1  0.74412890  0.37482259  0.12828539  1
  V  V82  1  0.50609286  0.25216329  0.25358825  1
  V  V83  1  0.75261998  0.00902784  0.75572954  1
  V  V84  1  0.62736845  0.24269653  0.87410085  1
  Zn  Zn85  1  0.62788031  0.12267336  -0.00082800  1
  Zn  Zn86  1  0.90209185  0.03703055  0.41580250  1
  Zn  Zn87  1  0.12930612  0.24030150  0.86621853  1
  Zn  Zn88  1  0.89400807  0.12737870  0.74537241  1
  Zn  Zn89  1  0.75179789  0.24003255  0.48560435  1
  Zn  Zn90  1  0.05683714  0.06381514  0.54753293  1
  Zn  Zn91  1  0.78908635  0.10135655  0.89628514  1
  Zn  Zn92  1  0.00120903  0.62374502  0.12242926  1
  Zn  Zn93  1  -0.00509845  0.36676786  0.86148678  1
  Zn  Zn94  1  0.62557715  0.87668892  0.25006619  1
  Zn  Zn95  1  0.62372730  0.37378729  0.74925524  1
  Zn  Zn96  1  0.49297052  0.87761037  0.37097554  1
  Zn  Zn97  1  0.13084116  0.61725860  -0.00240621  1
  Zn  Zn98  1  0.49992516  0.49584109  0.00196522  1
  Zn  Zn99  1  0.62210041  0.49484642  0.12434845  1
  Zn  Zn100  1  0.25235039  0.87681889  0.12875530  1
  Zn  Zn101  1  0.88471400  0.25143108  0.13260494  1
  Zn  Zn102  1  0.74928584  0.87619739  0.12663903  1
  Zn  Zn103  1  0.62354563  0.61928390  -0.00089694  1
  Zn  Zn104  1  0.24597559  0.50991572  0.75748745  1
  Zn  Zn105  1  0.87168026  0.88287008  -0.00330661  1
  Zn  Zn106  1  0.00607985  0.13255286  0.13747140  1
  Zn  Zn107  1  0.19502633  0.18346112  0.18217358  1
  Zn  Zn108  1  0.18722996  0.18625557  0.67696878  1
  Zn  Zn109  1  0.18772616  0.68569397  0.18567625  1
  Zn  Zn110  1  0.19518930  0.68779966  0.69199261  1
  Zn  Zn111  1  0.68697942  0.18577176  0.18907452  1
  Zn  Zn112  1  0.68687209  0.19093060  0.68219575  1
  Zn  Zn113  1  0.68810212  0.68572074  0.18837107  1
  Zn  Zn114  1  0.68542322  0.68563875  0.68802702  1
  Zn  Zn115  1  0.31937116  0.29923128  0.30759442  1
  Zn  Zn116  1  0.30522992  0.31261295  0.81615401  1
  Zn  Zn117  1  0.31093087  0.81475685  0.31048471  1
  Zn  Zn118  1  0.31292647  0.80698297  0.81348824  1
  Zn  Zn119  1  0.81119503  0.31404066  0.31648750  1
  Zn  Zn120  1  0.81109743  0.30984070  0.81290623  1
  Zn  Zn121  1  0.80853625  0.81243200  0.31054467  1
  Zn  Zn122  1  0.80741877  0.81380004  0.81149563  1
  Zn  Zn123  1  0.18668858  0.43928793  0.43588590  1
  Zn  Zn124  1  0.19037888  0.43107073  0.93928645  1
  Zn  Zn125  1  0.18178153  0.97193117  0.43045052  1
  Zn  Zn126  1  0.18567074  0.93280799  0.93609219  1
  Zn  Zn127  1  0.70367025  0.41201225  0.41998009  1
  Zn  Zn128  1  0.68407474  0.43472159  0.94026629  1
  Zn  Zn129  1  0.68643619  0.93790752  0.44075590  1
  Zn  Zn130  1  0.68550035  0.93423894  0.93835261  1
  Zn  Zn131  1  0.31179107  0.06242905  0.06452111  1
  Zn  Zn132  1  0.30931372  0.05219445  0.56397455  1
  Zn  Zn133  1  0.31556190  0.55888669  0.06274450  1
  Zn  Zn134  1  0.31430934  0.56735638  0.56396833  1
  Zn  Zn135  1  0.81551977  0.06719471  0.07621898  1
  Zn  Zn136  1  0.80519255  0.06576339  0.56901648  1
  Zn  Zn137  1  0.81394135  0.56304858  0.06486027  1
  Zn  Zn138  1  0.81061449  0.55936572  0.56363652  1
  Zn  Zn139  1  0.43721881  0.43686044  0.19056466  1
  Zn  Zn140  1  0.43650220  0.43993066  0.69080924  1
  Zn  Zn141  1  0.44008476  0.93720074  0.18637248  1
  Zn  Zn142  1  0.43520412  0.93736203  0.68502251  1
  Zn  Zn143  1  0.93955823  0.43339287  0.18715782  1
  Zn  Zn144  1  0.93809438  0.44080257  0.68203023  1
  Zn  Zn145  1  0.93958551  0.94413363  0.18801560  1
  Zn  Zn146  1  0.93758363  0.93846608  0.68803037  1
  Zn  Zn147  1  0.04626135  0.09561979  0.35124412  1
  Zn  Zn148  1  0.06076273  0.05502952  0.81180607  1
  Zn  Zn149  1  0.06588276  0.56419982  0.31148087  1
  Zn  Zn150  1  0.05936486  0.55698315  0.81260516  1
  Zn  Zn151  1  0.56279248  0.06439236  0.30762978  1
  Zn  Zn152  1  0.55829378  0.06168143  0.81110736  1
  Zn  Zn153  1  0.56318984  0.56057868  0.31451801  1
  Zn  Zn154  1  0.55805986  0.56139371  0.81108382  1
  Zn  Zn155  1  0.43760624  0.18725450  0.43369133  1
  Zn  Zn156  1  0.43651247  0.18706758  0.93807171  1
  Zn  Zn157  1  0.43639290  0.68910547  0.43923695  1
  Zn  Zn158  1  0.43662754  0.68571625  0.93921040  1
  Zn  Zn159  1  0.93420379  0.19872095  0.44522104  1
  Zn  Zn160  1  0.94980084  0.18999916  0.93090317  1
  Zn  Zn161  1  0.93869016  0.69334978  0.43701362  1
  Zn  Zn162  1  0.93890572  0.68595144  0.93681304  1
  Zn  Zn163  1  0.06617798  0.30684988  0.06553369  1
  Zn  Zn164  1  0.06284252  0.31312554  0.56333534  1
  Zn  Zn165  1  0.06333776  0.81429912  0.06084186  1
  Zn  Zn166  1  0.08416335  0.86181059  0.54071102  1
  Zn  Zn167  1  0.56181530  0.30816986  0.06163916  1
  Zn  Zn168  1  0.55779125  0.31642390  0.56156165  1
  Zn  Zn169  1  0.56167217  0.81265538  0.06160487  1
  Zn  Zn170  1  0.56158008  0.81279357  0.55962497  1
  O  O171  1  0.12516431  0.11473914  0.11672234  1
  O  O172  1  0.11294365  0.16077162  0.59154508  1
  O  O173  1  0.12203970  0.61031799  0.12375616  1
  O  O174  1  0.12267482  0.62313064  0.62072098  1
  O  O175  1  0.61660255  0.11388377  0.12248043  1
  O  O176  1  0.61624415  0.11561995  0.62178441  1
  O  O177  1  0.61259017  0.62668584  0.12388058  1
  O  O178  1  0.63097383  0.61188109  0.61813757  1
  O  O179  1  0.37870638  0.38045864  0.38256924  1
  O  O180  1  0.38232100  0.38057446  0.87849060  1
  O  O181  1  0.37426118  0.86251603  0.39313158  1
  O  O182  1  0.38051747  0.87801622  0.87863994  1
  O  O183  1  0.89380365  0.37643197  0.38651932  1
  O  O184  1  0.87408820  0.37968011  0.88461878  1
  O  O185  1  0.87939218  0.86473094  0.38432114  1
  O  O186  1  0.88856902  0.86627745  0.87508646  1
  O  O187  1  0.25989277  0.02418474  0.37814598  1
  O  O188  1  0.25797921  -0.01062121  0.86065064  1
  O  O189  1  0.25227128  0.51035519  0.36726125  1
  O  O190  1  0.26438127  0.49507086  0.87674490  1
  O  O191  1  0.74595588  -0.00218197  0.36360362  1
  O  O192  1  0.74142789  0.00098251  0.86158016  1
  O  O193  1  0.74767413  0.51040434  0.36642314  1
  O  O194  1  0.75367232  0.50297049  0.87099205  1
  O  O195  1  0.24325015  0.50430432  0.13847063  1
  O  O196  1  0.24080795  0.49551112  0.62044886  1
  O  O197  1  0.23511078  0.99505909  0.11691953  1
  O  O198  1  0.26050486  0.97988464  0.64109880  1
  O  O199  1  0.74907900  0.49359430  0.13032544  1
  O  O200  1  0.74111365  0.49521787  0.63295191  1
  O  O201  1  0.73993651  0.99735510  0.12877265  1
  O  O202  1  0.73628698  0.99403944  0.63364330  1
  O  O203  1  0.01036621  0.38102615  0.26455824  1
  O  O204  1  0.01744044  0.38242285  0.74178112  1
  O  O205  1  0.00289955  0.86372466  0.25284916  1
  O  O206  1  0.00703150  0.87013334  0.75561829  1
  O  O207  1  0.49112805  0.36080293  0.25555221  1
  O  O208  1  0.49849741  0.36829434  0.76006843  1
  O  O209  1  0.50331830  0.86600419  0.25420032  1
  O  O210  1  0.51246472  0.88255722  0.75516470  1
  O  O211  1  0.49445664  0.13193420  0.24418711  1
  O  O212  1  0.48826739  0.12908199  0.74338312  1
  O  O213  1  0.49403651  0.62900587  0.24434953  1
  O  O214  1  0.48296827  0.61644950  0.74494784  1
  O  O215  1  0.97950660  0.11840190  0.26032555  1
  O  O216  1  1.00431643  0.09009292  0.71597345  1
  O  O217  1  0.99349920  0.63439196  0.25231354  1
  O  O218  1  0.99306354  0.62792173  0.74524452  1
  O  O219  1  0.36469091  0.25945020  -0.00723311  1
  O  O220  1  0.38637495  0.26237426  0.51056926  1
  O  O221  1  0.36766459  0.75408642  0.00334628  1
  O  O222  1  0.38439375  0.75985236  0.51594365  1
  O  O223  1  0.86659628  0.25966511  -0.00408102  1
  O  O224  1  0.86945881  0.26602084  0.51069589  1
  O  O225  1  0.86716309  0.74701257  0.00773096  1
  O  O226  1  0.86734226  0.75550722  0.50687149  1
  O  O227  1  0.12243254  0.21925678  0.53252313  1
  O  O228  1  0.13677138  0.23900430  1.00168363  1
  O  O229  1  0.11923074  0.75500503  0.48425891  1
  O  O230  1  0.13113890  0.74621778  0.99375238  1
  O  O231  1  0.61575605  0.23386892  0.50749950  1
  O  O232  1  0.63543661  0.24784286  0.99216409  1
  O  O233  1  0.62914444  0.74179809  0.49463089  1
  O  O234  1  0.63434530  0.74861267  0.99101886  1
  O  O235  1  0.50566523  0.23931355  0.13390882  1
  O  O236  1  0.48852979  0.24849947  0.63201962  1
  O  O237  1  0.49437897  0.74213207  0.12972718  1
  O  O238  1  0.49429264  0.75156017  0.63005936  1
  O  O239  1  0.99748147  0.24618020  0.12588655  1
  O  O240  1  0.98241260  0.25746740  0.62309164  1
  O  O241  1  0.99430087  0.74718913  0.13174058  1
  O  O242  1  0.99194136  0.74365156  0.63445743  1
  O  O243  1  0.00469040  0.26492994  0.37877476  1
  O  O244  1  0.01913433  0.26033429  0.88022111  1
  O  O245  1  0.00694906  0.75656783  0.36420034  1
  O  O246  1  0.00737551  0.75494946  0.87057603  1
  O  O247  1  0.49727917  0.25946044  0.36489306  1
  O  O248  1  0.50536111  0.25576935  0.87066081  1
  O  O249  1  0.50993211  0.74593036  0.36942282  1
  O  O250  1  0.51259980  0.75471724  0.88239775  1
  O  O251  1  0.25956489  0.12892132  0.50255104  1
  O  O252  1  0.24556023  0.13346369  1.00002444  1
  O  O253  1  0.24397892  0.62137481  0.48654261  1
  O  O254  1  0.25120320  0.63686343  1.00442193  1
  O  O255  1  0.73061913  0.12595618  0.50414963  1
  O  O256  1  0.75221251  0.13412951  1.00051854  1
  O  O257  1  0.74645880  0.62624520  0.49258612  1
  O  O258  1  0.74959153  0.63379093  0.99434097  1
  O  O259  1  0.26295682  0.36790708  0.00199140  1
  O  O260  1  0.26097385  0.38335197  0.50817652  1
  O  O261  1  0.25544960  0.86295039  0.00171551  1
  O  O262  1  0.26786622  0.87835072  0.51286583  1
  O  O263  1  0.75895695  0.36929664  0.00706497  1
  O  O264  1  0.76603664  0.39798672  0.51637226  1
  O  O265  1  0.75407879  0.86240102  -0.00007673  1
  O  O266  1  0.75375823  0.86607103  0.50597215  1
  O  O267  1  0.13250700  0.49619248  0.24549087  1
  O  O268  1  0.12711808  0.49806762  0.73579552  1
  O  O269  1  0.11523312  0.98723638  0.23818598  1
  O  O270  1  0.13655294  0.98304291  0.75704084  1
  O  O271  1  0.64069327  0.50761748  0.24556291  1
  O  O272  1  0.62787203  0.49766786  0.74140438  1
  O  O273  1  0.63541954  1.00042631  0.24249375  1
  O  O274  1  0.62870060  0.99290824  0.74234331  1
  O  O275  1  0.38790598  0.01457794  0.24874795  1
  O  O276  1  0.36981583  0.00715288  0.75397116  1
  O  O277  1  0.36596371  0.50403524  0.25581556  1
  O  O278  1  0.37231683  0.50754913  0.75748757  1
  O  O279  1  0.86078551  0.00534969  0.24949176  1
  O  O280  1  0.85369242  0.00005860  0.74127154  1
  O  O281  1  0.86993523  0.51449093  0.24239845  1
  O  O282  1  0.86987943  0.50432364  0.75433889  1
  O  O283  1  0.11579123  0.37936602  0.36654097  1
  O  O284  1  0.12971670  0.38721024  0.85111457  1
  O  O285  1  0.11458898  0.87003595  0.36538368  1
  O  O286  1  0.11542841  0.86278716  0.86699999  1
  O  O287  1  0.60291445  0.39130088  0.37435193  1
  O  O288  1  0.61387780  0.36427108  0.87487198  1
  O  O289  1  0.62465117  0.85880823  0.37821831  1
  O  O290  1  0.61919299  0.86698980  0.86793190  1
  O  O291  1  0.38869126  0.11784802  0.12970605  1
  O  O292  1  0.37816296  0.13260373  0.63310483  1
  O  O293  1  0.38266275  0.62904386  0.13171220  1
  O  O294  1  0.37716818  0.63872192  0.62854742  1
  O  O295  1  0.88086619  0.12891183  0.14409225  1
  O  O296  1  0.86711185  0.14388729  0.62343366  1
  O  O297  1  0.87719808  0.63606931  0.13411763  1
  O  O298  1  0.87881515  0.62887354  0.63053955  1
  O  O299  1  0.24988233  0.25075753  0.10501136  1
  O  O300  1  0.26355591  0.26337673  0.62827270  1
  O  O301  1  0.25606583  0.75087854  0.11747376  1
  O  O302  1  0.26395467  0.75913224  0.62983201  1
  O  O303  1  0.75147563  0.25633007  0.11478323  1
  O  O304  1  0.75068090  0.26510501  0.61660606  1
  O  O305  1  0.75655293  0.74961698  0.11748065  1
  O  O306  1  0.75438501  0.75368879  0.62129839  1
  O  O307  1  0.26520553  0.23089416  0.37649874  1
  O  O308  1  0.24064350  0.25795412  0.89038439  1
  O  O309  1  0.23902192  0.74029342  0.36612124  1
  O  O310  1  0.23906887  0.75424890  0.88489693  1
  O  O311  1  0.73674294  0.30270611  0.39553795  1
  O  O312  1  0.74028137  0.25325609  0.88509805  1
  O  O313  1  0.74153010  0.73891317  0.37911864  1
  O  O314  1  0.74187381  0.74453428  0.88189182  1
  O  O315  1  0.01101511  0.11459530  0.00100369  1
  O  O316  1  -0.00891920  0.10354615  0.46116289  1
  O  O317  1  0.00115188  0.60782129  -0.00051175  1
  O  O318  1  0.00632491  0.62374119  0.50407303  1
  O  O319  1  0.49990249  0.11970937  0.00738949  1
  O  O320  1  0.50438800  0.11576391  0.50570824  1
  O  O321  1  0.49785360  0.62174204  0.01293459  1
  O  O322  1  0.50444530  0.61006690  0.49265439  1
  O  O323  1  0.48998497  0.38414066  0.49197591  1
  O  O324  1  0.48769816  0.36850788  0.99093277  1
  O  O325  1  0.49239900  0.88031535  0.49765912  1
  O  O326  1  0.49256995  0.88016183  0.99343765  1
  O  O327  1  1.00047764  0.38410561  0.49151971  1
  O  O328  1  0.99148988  0.38469187  1.00467804  1
  O  O329  1  0.98356336  0.86691695  0.48707092  1
  O  O330  1  0.99795904  0.88180352  0.99273168  1
  O  O331  1  0.48997997  0.49560022  0.38002202  1
  O  O332  1  0.49096554  0.48838252  0.87679425  1
  O  O333  1  0.50890284  0.99591951  0.38846779  1
  O  O334  1  0.49254808  0.99374814  0.87998942  1
  O  O335  1  1.00693479  0.49976542  0.38733764  1
  O  O336  1  0.99354612  0.49154917  0.88286205  1
  O  O337  1  0.99198276  0.98132436  0.36040971  1
  O  O338  1  1.00548736  0.98642420  0.88617616  1
  O  O339  1  0.01080849  0.00103846  0.11520146  1
  O  O340  1  0.00351114  0.02908017  0.65278541  1
  O  O341  1  0.00737940  0.50039581  0.11806273  1
  O  O342  1  0.01136265  0.50842653  0.61529023  1
  O  O343  1  0.50911062  0.00676587  0.11874320  1
  O  O344  1  0.50724048  0.00312592  0.61859636  1
  O  O345  1  0.50078676  0.50967206  0.12819717  1
  O  O346  1  0.50840258  0.49035319  0.61466798  1
  O  O347  1  0.23904352  0.38480908  0.26308222  1
  O  O348  1  0.24364666  0.38444043  0.73590342  1
  O  O349  1  0.23415553  0.86942607  0.24827909  1
  O  O350  1  0.24484734  0.87549828  0.74704213  1
  O  O351  1  0.76368658  0.38880175  0.23871500  1
  O  O352  1  0.74802479  0.38115969  0.73973930  1
  O  O353  1  0.74744296  0.88713196  0.24693094  1
  O  O354  1  0.73785504  0.88409797  0.74622007  1
  O  O355  1  0.27107886  0.12753908  0.24406506  1
  O  O356  1  0.25604103  0.11312518  0.73683536  1
  O  O357  1  0.25362438  0.61716477  0.25926893  1
  O  O358  1  0.27038592  0.62166232  0.74450022  1
  O  O359  1  0.75621246  0.11103432  0.24569884  1
  O  O360  1  0.74349337  0.11071255  0.74551949  1
  O  O361  1  0.75821770  0.61937324  0.25633194  1
  O  O362  1  0.75482328  0.61913429  0.75612634  1
  O  O363  1  0.37473619  0.12107371  0.36632519  1
  O  O364  1  0.37842109  0.12000608  0.86021545  1
  O  O365  1  0.36621667  0.62261809  0.37161709  1
  O  O366  1  0.38150735  0.61686223  0.86475887  1
  O  O367  1  0.86299169  0.13265228  0.36562450  1
  O  O368  1  0.88620119  0.13298612  0.85788077  1
  O  O369  1  0.86482941  0.63467572  0.36622742  1
  O  O370  1  0.86911148  0.61838603  0.86939874  1
  O  O371  1  0.11908509  0.38655013  0.14282837  1
  O  O372  1  0.13298328  0.38500173  0.62717522  1
  O  O373  1  0.12483814  0.88032088  0.13244205  1
  O  O374  1  0.13646046  0.85926277  0.64202981  1
  O  O375  1  0.64019714  0.37346265  0.11980625  1
  O  O376  1  0.63215446  0.38490569  0.62319256  1
  O  O377  1  0.62393407  0.88666679  0.12605353  1
  O  O378  1  0.62774787  0.88092554  0.63071827  1
  O  O379  1  0.13533239  0.26566396  0.24417860  1
  O  O380  1  0.13434539  0.26751833  0.74336478  1
  O  O381  1  0.11592215  0.75450915  0.25502789  1
  O  O382  1  0.12080702  0.75317361  0.75884348  1
  O  O383  1  0.60688810  0.24084228  0.25001334  1
  O  O384  1  0.61799310  0.25134570  0.75652402  1
  O  O385  1  0.62115843  0.74922847  0.25937203  1
  O  O386  1  0.63273088  0.75961551  0.76037627  1
  O  O387  1  0.39318087  0.23269714  0.24843568  1
  O  O388  1  0.37539070  0.24365581  0.74374925  1
  O  O389  1  0.38014140  0.74485021  0.24510794  1
  O  O390  1  0.37793714  0.73906281  0.74358977  1
  O  O391  1  0.86258540  0.23805804  0.25140044  1
  O  O392  1  0.86907324  0.25302755  0.73377619  1
  O  O393  1  0.88155574  0.74287877  0.24286722  1
  O  O394  1  0.87750630  0.74408310  0.74620245  1
  O  O395  1  0.38152208  0.49346376  0.49764274  1
  O  O396  1  0.37621589  0.48598307  0.99384979  1
  O  O397  1  0.38727472  0.98095080  0.51271167  1
  O  O398  1  0.37835780  0.99446012  0.99359476  1
  O  O399  1  0.89063863  0.49354816  0.51029673  1
  O  O400  1  0.88090347  0.49195869  0.99633531  1
  O  O401  1  0.85943859  0.98318888  0.50562128  1
  O  O402  1  0.88740398  1.00160236  1.00829572  1
  O  O403  1  0.11903423  0.00348198  0.00518769  1
  O  O404  1  0.11313625  -0.02966235  0.51462733  1
  O  O405  1  0.11984705  0.49362833  0.00824754  1
  O  O406  1  0.11973288  0.51028315  0.50702980  1
  O  O407  1  0.61886260  0.00080210  0.00578473  1
  O  O408  1  0.61809938  0.00561850  0.51000150  1
  O  O409  1  0.61828995  0.50184820  0.00450777  1
  O  O410  1  0.61589849  0.50262632  0.50751847  1
  O  O411  1  0.38081736  0.37605228  0.11046666  1
  O  O412  1  0.36988199  0.37148316  0.61834755  1
  O  O413  1  0.37504367  0.86812576  0.11799232  1
  O  O414  1  0.37415394  0.86020416  0.62433400  1
  O  O415  1  0.86677611  0.37375427  0.11537979  1
  O  O416  1  0.86948340  0.37053432  0.61900941  1
  O  O417  1  0.87556726  0.86114301  0.12451711  1
  O  O418  1  0.87080116  0.86917104  0.61829021  1
  O  O419  1  0.14512387  0.12893365  0.38172404  1
  O  O420  1  0.12239397  0.11882796  0.88660838  1
  O  O421  1  0.13015213  0.63583940  0.37970483  1
  O  O422  1  0.11907256  0.63487689  0.87554615  1
  O  O423  1  0.61712391  0.12300642  0.39070976  1
  O  O424  1  0.61876731  0.13746087  0.87610982  1
  O  O425  1  0.63407609  0.63113826  0.38049592  1
  O  O426  1  0.62871370  0.63251831  0.87351139  1
