# generated using pymatgen
data_V85Zn86O256
_symmetry_space_group_name_H-M   'P 1'
_cell_length_a   16.99821416
_cell_length_b   17.02305539
_cell_length_c   16.98413199
_cell_angle_alpha   90.02670890
_cell_angle_beta   89.89736125
_cell_angle_gamma   89.95887788
_symmetry_Int_Tables_number   1
_chemical_formula_structural   V85Zn86O256
_chemical_formula_sum   'V85 Zn86 O256'
_cell_volume   4914.54491808
_cell_formula_units_Z   1
loop_
 _symmetry_equiv_pos_site_id
 _symmetry_equiv_pos_as_xyz
  1  'x, y, z'
loop_
 _atom_site_type_symbol
 _atom_site_label
 _atom_site_symmetry_multiplicity
 _atom_site_fract_x
 _atom_site_fract_y
 _atom_site_fract_z
 _atom_site_occupancy
  V  V0  1  0.00260428  0.12460394  0.62896654  1
  V  V1  1  0.50464044  0.24862265  0.25614534  1
  V  V2  1  0.87841581  0.62667203  0.73255294  1
  V  V3  1  0.12061649  0.25401076  0.88361343  1
  V  V4  1  0.37434204  0.62424656  0.75042404  1
  V  V5  1  0.37149954  0.86785041  0.50066691  1
  V  V6  1  0.12513723  0.62963316  0.50131166  1
  V  V7  1  0.37474609  0.62670292  0.24838242  1
  V  V8  1  0.25019977  0.50153601  0.24962167  1
  V  V9  1  0.50066914  -0.00251777  0.50072315  1
  V  V10  1  0.50565112  0.62114239  0.11920725  1
  V  V11  1  0.62590240  0.37402209  0.74985960  1
  V  V12  1  0.74955566  0.50634822  0.75406665  1
  V  V13  1  0.85916694  0.50156347  0.36971565  1
  V  V14  1  0.12816802  0.75376456  0.37645454  1
  V  V15  1  0.12498613  0.37457479  0.24922744  1
  V  V16  1  0.63348615  0.63562877  0.48769788  1
  V  V17  1  0.37531087  0.12028450  0.24871268  1
  V  V18  1  0.36949690  0.25241434  0.62187021  1
  V  V19  1  0.37481682  0.49474637  0.88341761  1
  V  V20  1  0.62757177  -0.00593471  0.12550495  1
  V  V21  1  0.37576361  0.12571188  0.75096479  1
  V  V22  1  0.24771475  0.49874754  0.74971675  1
  V  V23  1  0.49947333  0.62423270  0.62527249  1
  V  V24  1  0.74750241  0.00548425  0.25452880  1
  V  V25  1  -0.00376786  0.75042903  0.73280883  1
  V  V26  1  0.87132204  0.12656780  0.25017000  1
  V  V27  1  0.74562921  0.39000504  0.12423951  1
  V  V28  1  0.75141666  0.00352493  0.75543700  1
  V  V29  1  0.50021801  0.87450809  0.87571352  1
  V  V30  1  0.63352199  0.12306245  -0.00574819  1
  V  V31  1  0.11205469  0.75461773  0.87305845  1
  V  V32  1  0.25103193  0.62813570  0.37879072  1
  V  V33  1  0.62674408  -0.00112662  0.62548647  1
  V  V34  1  0.50480041  0.12594458  0.12209505  1
  V  V35  1  -0.00385301  0.25226104  0.24776323  1
  V  V36  1  0.36936207  -0.00372926  0.37172105  1
  V  V37  1  0.62859473  0.74136621  0.87703632  1
  V  V38  1  0.62833225  0.38785077  0.24641986  1
  V  V39  1  0.25749432  0.37372714  0.11908144  1
  V  V40  1  0.11951421  0.50440946  0.62547504  1
  V  V41  1  0.87399583  0.50784752  0.87501040  1
  V  V42  1  0.37174143  0.00066459  0.87203589  1
  V  V43  1  0.12617244  0.49939310  0.12308510  1
  V  V44  1  0.13302419  0.88034635  0.23653473  1
  V  V45  1  0.49990863  0.12464315  0.62529068  1
  V  V46  1  0.00083066  0.62305834  0.13055947  1
  V  V47  1  0.87301005  0.37568585  0.49815327  1
  V  V48  1  0.50790915  0.86863725  0.37530050  1
  V  V49  1  0.49444089  0.37362062  0.88132046  1
  V  V50  1  0.24826037  0.62642695  0.87667102  1
  V  V51  1  -0.00047808  0.49459707  -0.00618472  1
  V  V52  1  0.12455483  0.00235079  0.62317689  1
  V  V53  1  0.00007727  0.37839350  0.37192855  1
  V  V54  1  0.24744929  0.87011787  0.62697110  1
  V  V55  1  0.01415687  0.12312403  0.11938011  1
  V  V56  1  0.75403229  0.24383611  0.49343909  1
  V  V57  1  0.74992264  0.37344513  0.62396401  1
  V  V58  1  0.75918591  0.75259521  -0.00320478  1
  V  V59  1  -0.00453846  -0.00022557  0.50294436  1
  V  V60  1  0.87374235  0.00709331  0.37683894  1
  V  V61  1  0.87237957  0.12645055  0.76139339  1
  V  V62  1  0.76455604  0.86673987  0.61698283  1
  V  V63  1  0.36591927  0.87459847  0.00331922  1
  V  V64  1  0.24793801  0.37255312  0.61999470  1
  V  V65  1  0.24576394  0.12764838  0.88014018  1
  V  V66  1  0.87551549  0.37590014  -0.00454063  1
  V  V67  1  -0.00078470  0.25703538  0.75481645  1
  V  V68  1  0.00922588  -0.00812708  -0.00121290  1
  V  V69  1  0.50135767  0.25022232  0.74929118  1
  V  V70  1  0.49847613  0.49653042  0.49849394  1
  V  V71  1  -0.00369245  0.50623316  0.50046406  1
  V  V72  1  0.87574451  -0.01472813  0.88316855  1
  V  V73  1  0.62414102  0.50078508  0.62490933  1
  V  V74  1  0.75033301  0.24995670  -0.00370238  1
  V  V75  1  0.62693953  0.24732604  0.87358307  1
  V  V76  1  0.50748708  0.74925065  0.25125554  1
  V  V77  1  0.62764921  0.12530813  0.49297790  1
  V  V78  1  0.62714461  0.87409582  0.74905247  1
  V  V79  1  0.49994487  0.74825310  0.75027798  1
  V  V80  1  0.37662629  0.25470840  0.11901869  1
  V  V81  1  -0.00130165  0.87758454  0.37748956  1
  V  V82  1  0.85809125  0.62248052  0.25071615  1
  V  V83  1  0.37126698  0.74889185  0.62518004  1
  V  V84  1  0.12335567  0.62282834  -0.00149968  1
  Zn  Zn85  1  0.76841982  0.88223213  0.11695209  1
  Zn  Zn86  1  0.87516552  0.24842319  0.62660798  1
  Zn  Zn87  1  0.11616301  0.88105276  0.75448948  1
  Zn  Zn88  1  0.24252950  0.75686774  0.00363847  1
  Zn  Zn89  1  0.00145448  0.75247894  0.24650468  1
  Zn  Zn90  1  0.37517738  0.49797247  0.37596975  1
  Zn  Zn91  1  0.50569120  0.48973463  0.00938021  1
  Zn  Zn92  1  0.87966601  0.75344469  0.11693455  1
  Zn  Zn93  1  0.63257155  0.24667680  0.36964839  1
  Zn  Zn94  1  0.25144778  -0.00618137  0.22835612  1
  Zn  Zn95  1  0.50398577  -0.00225391  -0.00134723  1
  Zn  Zn96  1  0.63786122  0.61478261  -0.00082675  1
  Zn  Zn97  1  0.36785457  0.75564984  0.12706315  1
  Zn  Zn98  1  0.24714378  0.24810905  0.00552236  1
  Zn  Zn99  1  0.36838279  0.37386140  0.49242838  1
  Zn  Zn100  1  0.11812482  0.37870906  0.75418046  1
  Zn  Zn101  1  0.62949342  0.86882131  0.25310100  1
  Zn  Zn102  1  0.14412538  0.25414356  0.40258505  1
  Zn  Zn103  1  0.24360002  0.00114698  0.75235935  1
  Zn  Zn104  1  0.87168385  0.25012279  0.12198291  1
  Zn  Zn105  1  0.23168022  0.12173520  0.40181344  1
  Zn  Zn106  1  0.50015604  0.37408721  0.37478609  1
  Zn  Zn107  1  0.18672370  0.18499605  0.25076474  1
  Zn  Zn108  1  0.18610469  0.18868619  0.69444977  1
  Zn  Zn109  1  0.18834946  0.69295444  0.18692760  1
  Zn  Zn110  1  0.18615892  0.68674996  0.68890516  1
  Zn  Zn111  1  0.68978239  0.19080899  0.18261235  1
  Zn  Zn112  1  0.68903608  0.18601891  0.68289459  1
  Zn  Zn113  1  0.68827689  0.69124076  0.17756298  1
  Zn  Zn114  1  0.68743190  0.68748037  0.68287140  1
  Zn  Zn115  1  0.31725762  0.31160508  0.31075443  1
  Zn  Zn116  1  0.30786842  0.31272349  0.80914200  1
  Zn  Zn117  1  0.31349902  0.81032673  0.31243138  1
  Zn  Zn118  1  0.30767711  0.81325521  0.81268502  1
  Zn  Zn119  1  0.81170942  0.31564051  0.31088582  1
  Zn  Zn120  1  0.81367165  0.31627609  0.81430920  1
  Zn  Zn121  1  0.83734412  0.83288116  0.27260190  1
  Zn  Zn122  1  0.81204579  0.81065996  0.80827238  1
  Zn  Zn123  1  0.18562357  0.44182659  0.43678137  1
  Zn  Zn124  1  0.18762046  0.43495388  0.93671299  1
  Zn  Zn125  1  0.18660820  0.93669821  0.44186179  1
  Zn  Zn126  1  0.18465882  0.94476852  1.05468107  1
  Zn  Zn127  1  0.67991574  0.43382967  0.43787885  1
  Zn  Zn128  1  0.68531228  0.43660707  0.93664265  1
  Zn  Zn129  1  0.69174251  0.93782278  0.43836721  1
  Zn  Zn130  1  0.69017017  0.93311044  0.93725413  1
  Zn  Zn131  1  0.31836573  0.06680421  0.05886227  1
  Zn  Zn132  1  0.31020193  0.05740354  0.56499249  1
  Zn  Zn133  1  0.31414479  0.56536226  0.06389657  1
  Zn  Zn134  1  0.31069527  0.55991403  0.56269728  1
  Zn  Zn135  1  0.81603018  0.06410120  0.06538146  1
  Zn  Zn136  1  0.81417250  0.06024443  0.56723617  1
  Zn  Zn137  1  0.81319826  0.56851410  0.06126200  1
  Zn  Zn138  1  0.80816140  0.56137853  0.55962177  1
  Zn  Zn139  1  0.43976135  0.43882615  0.19155456  1
  Zn  Zn140  1  0.43554706  0.43675409  0.69042615  1
  Zn  Zn141  1  0.44293773  0.93638709  0.18638166  1
  Zn  Zn142  1  0.43761100  0.93645095  0.68791079  1
  Zn  Zn143  1  0.93182041  0.44043675  0.18326985  1
  Zn  Zn144  1  0.93460418  0.43846199  0.68487556  1
  Zn  Zn145  1  0.94734169  0.94237117  0.18651422  1
  Zn  Zn146  1  0.93594936  0.93682730  0.69305688  1
  Zn  Zn147  1  0.06070024  0.06072762  0.30970675  1
  Zn  Zn148  1  0.06127438  0.06451448  0.81742952  1
  Zn  Zn149  1  0.06271393  0.56046929  0.31475043  1
  Zn  Zn150  1  0.05838185  0.56690938  0.81050393  1
  Zn  Zn151  1  0.55736506  0.05874034  0.31369155  1
  Zn  Zn152  1  0.56244942  0.06153719  0.81192674  1
  Zn  Zn153  1  0.56339425  0.56547052  0.31427634  1
  Zn  Zn154  1  0.56054652  0.55839022  0.81520099  1
  Zn  Zn155  1  0.40551817  0.16931823  0.45322357  1
  Zn  Zn156  1  0.44025448  0.18694196  0.93785304  1
  Zn  Zn157  1  0.44253308  0.68594320  0.43834638  1
  Zn  Zn158  1  0.43545920  0.68930690  0.93604256  1
  Zn  Zn159  1  0.96991643  0.20351165  0.45356275  1
  Zn  Zn160  1  0.93835564  0.18420693  0.93933837  1
  Zn  Zn161  1  0.94270883  0.68185969  0.42425858  1
  Zn  Zn162  1  0.93578801  0.68289463  0.93492724  1
  Zn  Zn163  1  0.06243963  0.31174298  0.06679103  1
  Zn  Zn164  1  0.06097501  0.31765508  0.56757603  1
  Zn  Zn165  1  0.05671911  0.80993607  0.05832977  1
  Zn  Zn166  1  0.06180100  0.81572280  0.56049893  1
  Zn  Zn167  1  0.56645298  0.31135759  0.06476120  1
  Zn  Zn168  1  0.56310145  0.30983760  0.56150564  1
  Zn  Zn169  1  0.56063974  0.80486422  0.06097862  1
  Zn  Zn170  1  0.56431828  0.81245913  0.56427898  1
  O  O171  1  0.11006231  0.12943951  0.13347919  1
  O  O172  1  0.11326123  0.11532762  0.63604280  1
  O  O173  1  0.11938058  0.61816389  0.11876007  1
  O  O174  1  0.13314501  0.61395018  0.61429324  1
  O  O175  1  0.62103167  0.11767606  0.11535346  1
  O  O176  1  0.61834297  0.11872580  0.61694125  1
  O  O177  1  0.60786813  0.62825653  0.12363844  1
  O  O178  1  0.61631271  0.61793015  0.62293053  1
  O  O179  1  0.38050403  0.37935437  0.37516839  1
  O  O180  1  0.38216550  0.38235218  0.86725006  1
  O  O181  1  0.38056233  0.87790190  0.38222269  1
  O  O182  1  0.38126200  0.88160961  0.87807909  1
  O  O183  1  0.88060904  0.38447380  0.37685495  1
  O  O184  1  0.87152952  0.38766120  0.88821221  1
  O  O185  1  0.89254561  0.89059754  0.35954415  1
  O  O186  1  0.87647394  0.88724368  0.87000712  1
  O  O187  1  0.26407740  -0.00171243  0.37734246  1
  O  O188  1  0.26569935  0.01072674  0.87188818  1
  O  O189  1  0.24863610  0.51199428  0.36804231  1
  O  O190  1  0.25506176  0.50549079  0.87069742  1
  O  O191  1  0.76096421  -0.00245404  0.36645467  1
  O  O192  1  0.76012453  -0.00528847  0.86471247  1
  O  O193  1  0.76092587  0.49260557  0.37921096  1
  O  O194  1  0.75811214  0.49371186  0.86058253  1
  O  O195  1  0.24668539  0.49502067  0.12984772  1
  O  O196  1  0.24012864  0.49376577  0.63017825  1
  O  O197  1  0.25662530  0.99805484  0.11717999  1
  O  O198  1  0.24082168  0.99292367  0.62823872  1
  O  O199  1  0.75080512  0.48893712  0.11653065  1
  O  O200  1  0.74450547  0.49271942  0.63436591  1
  O  O201  1  0.74277208  0.99949764  0.13200051  1
  O  O202  1  0.74585165  0.99199630  0.63630494  1
  O  O203  1  0.00447472  0.37312665  0.24889851  1
  O  O204  1  -0.00425969  0.36164975  0.74591892  1
  O  O205  1  0.01756264  0.87586879  0.25962093  1
  O  O206  1  -0.00210262  0.85436868  0.74701906  1
  O  O207  1  0.51352785  0.36607686  0.24566211  1
  O  O208  1  0.50645604  0.36917007  0.75726099  1
  O  O209  1  0.50141630  0.86602747  0.25777786  1
  O  O210  1  0.50413951  0.86896323  0.75826770  1
  O  O211  1  0.49802450  0.12914282  0.23868267  1
  O  O212  1  0.49670526  0.13078132  0.74515026  1
  O  O213  1  0.49339577  0.63081283  0.24426076  1
  O  O214  1  0.49331243  0.62836865  0.74542547  1
  O  O215  1  0.99215221  0.13245451  0.23863382  1
  O  O216  1  0.99146037  0.13285262  0.74726195  1
  O  O217  1  1.00439933  0.62319867  0.23747792  1
  O  O218  1  0.98522064  0.63062983  0.74863736  1
  O  O219  1  0.37847731  0.24564570  0.01588133  1
  O  O220  1  0.38957539  0.26096804  0.51984432  1
  O  O221  1  0.37203078  0.76764200  -0.00754017  1
  O  O222  1  0.38168531  0.76108575  0.50674230  1
  O  O223  1  0.86792954  0.25945152  -0.00380168  1
  O  O224  1  0.87195769  0.25632693  0.50184480  1
  O  O225  1  0.86397318  0.74790223  -0.00481899  1
  O  O226  1  0.84829385  0.74863198  0.46954096  1
  O  O227  1  0.07717084  0.24357068  0.48780820  1
  O  O228  1  0.12383148  0.25330881  0.98749600  1
  O  O229  1  0.11798395  0.73916278  0.49078899  1
  O  O230  1  0.12163978  0.74296772  0.98598504  1
  O  O231  1  0.63368159  0.24144616  0.49795437  1
  O  O232  1  0.63200933  0.24211693  0.99504383  1
  O  O233  1  0.61606425  0.73393429  0.50345943  1
  O  O234  1  0.63175047  0.74512399  0.99123840  1
  O  O235  1  0.49835412  0.24226148  0.13167678  1
  O  O236  1  0.49452205  0.24529527  0.63276324  1
  O  O237  1  0.49188390  0.74068927  0.13369939  1
  O  O238  1  0.49183628  0.74488185  0.63279397  1
  O  O239  1  0.99428215  0.24187812  0.13069375  1
  O  O240  1  0.99757634  0.24053852  0.63771579  1
  O  O241  1  0.99875470  0.73507371  0.12311675  1
  O  O242  1  1.00455975  0.74648488  0.63379120  1
  O  O243  1  -0.00726795  0.26043924  0.35378895  1
  O  O244  1  0.01313463  0.24210138  0.86974406  1
  O  O245  1  0.01005107  0.76050100  0.37346925  1
  O  O246  1  0.00952195  0.74075330  0.86905697  1
  O  O247  1  0.49757017  0.24858169  0.35922536  1
  O  O248  1  0.50454169  0.25571002  0.86852741  1
  O  O249  1  0.49388971  0.75872303  0.36480186  1
  O  O250  1  0.50570461  0.75749832  0.86946766  1
  O  O251  1  0.29682443  0.13419709  0.48811833  1
  O  O252  1  0.25936142  0.13099689  0.98429913  1
  O  O253  1  0.23841943  0.61740179  0.48926049  1
  O  O254  1  0.24317607  0.62135512  0.98782157  1
  O  O255  1  0.74058438  0.13245237  0.50953439  1
  O  O256  1  0.74167194  0.13592506  1.00677693  1
  O  O257  1  0.73194657  0.62244765  0.50680165  1
  O  O258  1  0.74923349  0.64357625  1.00567020  1
  O  O259  1  0.24678046  0.37427196  0.01562139  1
  O  O260  1  0.24749400  0.38094556  0.51394966  1
  O  O261  1  0.26346247  0.87750207  -0.00478810  1
  O  O262  1  0.26057635  0.87935783  0.51317581  1
  O  O263  1  0.75523307  0.36990058  0.00507002  1
  O  O264  1  0.75306553  0.36608915  0.50470201  1
  O  O265  1  0.74656714  0.86067514  0.00324458  1
  O  O266  1  0.74491724  0.88134878  0.51867241  1
  O  O267  1  0.12880619  0.49186966  0.24399513  1
  O  O268  1  0.12569899  0.50184082  0.74116516  1
  O  O269  1  0.12865972  0.98270572  0.25226343  1
  O  O270  1  0.12119247  0.99726495  0.74081386  1
  O  O271  1  0.62030105  0.48581318  0.25223954  1
  O  O272  1  0.63260401  0.49558610  0.74697328  1
  O  O273  1  0.63217306  1.00531933  0.24176047  1
  O  O274  1  0.63347394  0.99637689  0.74751363  1
  O  O275  1  0.37763481  0.00094186  0.25628387  1
  O  O276  1  0.37704060  0.00696059  0.75732620  1
  O  O277  1  0.36984228  0.51213037  0.25314079  1
  O  O278  1  0.36762600  0.50636573  0.75813828  1
  O  O279  1  0.86778659  0.00905645  0.25483443  1
  O  O280  1  0.87146326  0.00648610  0.76275261  1
  O  O281  1  0.87730901  0.51166756  0.25558203  1
  O  O282  1  0.87132529  0.50896573  0.75400821  1
  O  O283  1  0.11970755  0.37758295  0.36290557  1
  O  O284  1  0.13009300  0.35952913  0.87156463  1
  O  O285  1  0.12012246  0.86785054  0.37508325  1
  O  O286  1  0.12632809  0.85216928  0.86851874  1
  O  O287  1  0.62289660  0.36838587  0.35953296  1
  O  O288  1  0.61601893  0.36664835  0.86738461  1
  O  O289  1  0.61100275  0.88199394  0.37507928  1
  O  O290  1  0.61635367  0.86836233  0.86915542  1
  O  O291  1  0.38990164  0.13046774  0.12851969  1
  O  O292  1  0.38070520  0.13231976  0.63259532  1
  O  O293  1  0.38132645  0.62654216  0.13738409  1
  O  O294  1  0.37724115  0.62923379  0.63030126  1
  O  O295  1  0.87997854  0.12811640  0.13709471  1
  O  O296  1  0.88616899  0.12249021  0.63970718  1
  O  O297  1  0.88411880  0.62243554  0.13720630  1
  O  O298  1  0.87592084  0.61950622  0.63383000  1
  O  O299  1  0.26255031  0.26039730  0.12721479  1
  O  O300  1  0.25778649  0.25930085  0.63370845  1
  O  O301  1  0.25591081  0.74219409  0.11473628  1
  O  O302  1  0.25542094  0.75979504  0.63228751  1
  O  O303  1  0.75022598  0.26053006  0.10976831  1
  O  O304  1  0.75321925  0.25592636  0.61530295  1
  O  O305  1  0.75389451  0.75782447  0.11167524  1
  O  O306  1  0.74881924  0.76824475  0.63450888  1
  O  O307  1  0.24209486  0.23937699  0.34952100  1
  O  O308  1  0.24000483  0.24538881  0.87614099  1
  O  O309  1  0.23960435  0.73942272  0.37195818  1
  O  O310  1  0.23904938  0.73755365  0.87323170  1
  O  O311  1  0.75279372  0.25225820  0.38941754  1
  O  O312  1  0.74257920  0.25886068  0.88792163  1
  O  O313  1  0.79432418  0.75949487  0.41952959  1
  O  O314  1  0.74048877  0.75784514  0.88444823  1
  O  O315  1  -0.00410054  0.12012454  0.01418042  1
  O  O316  1  -0.00790850  0.10964238  0.51776390  1
  O  O317  1  0.00259115  0.61426686  0.00871171  1
  O  O318  1  0.00907785  0.61519917  0.49177854  1
  O  O319  1  0.51232012  0.12478108  0.00872410  1
  O  O320  1  0.50416384  0.11728842  0.50712435  1
  O  O321  1  0.49333290  0.63036547  0.01604590  1
  O  O322  1  0.50587132  0.61502280  0.50642718  1
  O  O323  1  0.50329147  0.38694232  0.49950585  1
  O  O324  1  0.50459260  0.37055105  0.98526403  1
  O  O325  1  0.49325859  0.87730539  0.49423910  1
  O  O326  1  0.49594147  0.87393059  0.98557126  1
  O  O327  1  0.99197560  0.38958684  0.49336956  1
  O  O328  1  0.98928721  0.38601359  1.01004048  1
  O  O329  1  1.00254117  0.88675025  0.49017816  1
  O  O330  1  0.99509511  0.89326185  1.01184612  1
  O  O331  1  0.49800386  0.50014670  0.38649717  1
  O  O332  1  0.48834127  0.48844813  0.87049408  1
  O  O333  1  0.48982884  0.98739104  0.37930556  1
  O  O334  1  0.49317050  0.99004056  0.87323038  1
  O  O335  1  0.99417799  0.49579818  0.38290292  1
  O  O336  1  0.99300685  0.50431551  0.88658784  1
  O  O337  1  0.99690503  0.99671763  0.38414227  1
  O  O338  1  0.98673093  1.00672243  0.88793808  1
  O  O339  1  -0.00370646  0.01396668  0.11359878  1
  O  O340  1  0.00479474  0.00288010  0.62270740  1
  O  O341  1  0.00523554  0.50619105  0.11552302  1
  O  O342  1  0.00861030  0.49515401  0.61337101  1
  O  O343  1  0.50952095  0.01145919  0.12337419  1
  O  O344  1  0.50547758  0.00386331  0.62097172  1
  O  O345  1  0.49219612  0.51600331  0.12466312  1
  O  O346  1  0.50378473  0.50409044  0.62068155  1
  O  O347  1  0.24174840  0.38204357  0.24110376  1
  O  O348  1  0.24442493  0.38291838  0.73944069  1
  O  O349  1  0.23667438  0.87321128  0.25394098  1
  O  O350  1  0.24624210  0.87913511  0.73933965  1
  O  O351  1  0.73676545  0.36933755  0.23992069  1
  O  O352  1  0.74590016  0.38258444  0.74434068  1
  O  O353  1  0.74220696  0.89233973  0.24804890  1
  O  O354  1  0.74623448  0.88528651  0.74316398  1
  O  O355  1  0.27241911  0.11340280  0.23895438  1
  O  O356  1  0.25886745  0.12431149  0.76051225  1
  O  O357  1  0.25598361  0.62175124  0.25779111  1
  O  O358  1  0.25337867  0.61884847  0.75890349  1
  O  O359  1  0.75779317  0.11713227  0.24403341  1
  O  O360  1  0.75870112  0.11327657  0.74194002  1
  O  O361  1  0.76015682  0.62746149  0.24204905  1
  O  O362  1  0.76187532  0.61462166  0.74247256  1
  O  O363  1  0.38931672  0.10851835  0.35759319  1
  O  O364  1  0.37398431  0.11945756  0.86997624  1
  O  O365  1  0.36594866  0.62696509  0.36815193  1
  O  O366  1  0.36670013  0.61817286  0.87052792  1
  O  O367  1  0.88763237  0.11383763  0.36001985  1
  O  O368  1  0.87545562  0.12000731  0.86478732  1
  O  O369  1  0.87776269  0.61419850  0.35918716  1
  O  O370  1  0.87409881  0.61082151  0.86762691  1
  O  O371  1  0.13303531  0.38156407  0.13085264  1
  O  O372  1  0.13000632  0.38702226  0.62730327  1
  O  O373  1  0.12483302  0.87130518  0.13300246  1
  O  O374  1  0.13229037  0.88171971  0.62676119  1
  O  O375  1  0.63089025  0.37258064  0.13641296  1
  O  O376  1  0.62975161  0.38020737  0.63112534  1
  O  O377  1  0.61605670  0.89023503  0.12461690  1
  O  O378  1  0.62628050  0.88237168  0.63313237  1
  O  O379  1  0.10996149  0.26771422  0.23774912  1
  O  O380  1  0.11407251  0.25339867  0.75885438  1
  O  O381  1  0.12316576  0.76038512  0.25936102  1
  O  O382  1  0.10857379  0.73915212  0.75766427  1
  O  O383  1  0.61815096  0.24985682  0.25030694  1
  O  O384  1  0.62223178  0.25299780  0.75348706  1
  O  O385  1  0.61200815  0.75070078  0.24333237  1
  O  O386  1  0.61985780  0.75469752  0.75694881  1
  O  O387  1  0.38635306  0.23926267  0.23884750  1
  O  O388  1  0.38123193  0.24541605  0.74266126  1
  O  O389  1  0.38305033  0.74082426  0.24991384  1
  O  O390  1  0.37955084  0.74368061  0.74717117  1
  O  O391  1  0.87887326  0.24477546  0.24587590  1
  O  O392  1  0.88011833  0.24351126  0.75303081  1
  O  O393  1  0.88378804  0.72863432  0.25452987  1
  O  O394  1  0.88380115  0.73546034  0.75352331  1
  O  O395  1  0.38503966  0.49728411  0.50061816  1
  O  O396  1  0.37961520  0.50524444  0.98618897  1
  O  O397  1  0.38264699  0.98515473  0.49387690  1
  O  O398  1  0.38282408  0.99002126  0.98770565  1
  O  O399  1  0.87973856  0.49842435  0.49153543  1
  O  O400  1  0.88017820  0.49651833  0.99340532  1
  O  O401  1  0.88235734  1.00454290  0.48922825  1
  O  O402  1  0.87215775  1.00266122  0.98600300  1
  O  O403  1  0.10818393  -0.00101764  -0.00864045  1
  O  O404  1  0.11529991  -0.00165132  0.51368734  1
  O  O405  1  0.11671361  0.50226016  0.00227515  1
  O  O406  1  0.11540627  0.50860181  0.50495933  1
  O  O407  1  0.62771871  0.00758587  0.00581031  1
  O  O408  1  0.62042799  0.00748809  0.50512821  1
  O  O409  1  0.61442333  0.50738815  -0.01691022  1
  O  O410  1  0.61648032  0.50645617  0.50616186  1
  O  O411  1  0.36854274  0.36731012  0.13542911  1
  O  O412  1  0.36404097  0.36862447  0.62878508  1
  O  O413  1  0.38695732  0.87713773  0.10471928  1
  O  O414  1  0.36864771  0.87015973  0.61997183  1
  O  O415  1  0.86511143  0.37511551  0.11305637  1
  O  O416  1  0.86732033  0.37529651  0.61592402  1
  O  O417  1  0.87461898  0.86136622  0.15959919  1
  O  O418  1  0.86393253  0.88027003  0.62652108  1
  O  O419  1  0.13344343  0.13488612  0.34884355  1
  O  O420  1  0.13622614  0.13811699  0.86823839  1
  O  O421  1  0.13082810  0.63269801  0.37995628  1
  O  O422  1  0.13172154  0.62755105  0.87875255  1
  O  O423  1  0.61752424  0.12369434  0.38968219  1
  O  O424  1  0.61866926  0.13003366  0.88668898  1
  O  O425  1  0.62422767  0.62429222  0.38806036  1
  O  O426  1  0.61710392  0.63954629  0.87258330  1
