# generated using pymatgen
data_V85Zn86O256
_symmetry_space_group_name_H-M   'P 1'
_cell_length_a   16.95921835
_cell_length_b   16.95114411
_cell_length_c   16.96084559
_cell_angle_alpha   89.94327605
_cell_angle_beta   89.85054709
_cell_angle_gamma   90.13148889
_symmetry_Int_Tables_number   1
_chemical_formula_structural   V85Zn86O256
_chemical_formula_sum   'V85 Zn86 O256'
_cell_volume   4875.84073802
_cell_formula_units_Z   1
loop_
 _symmetry_equiv_pos_site_id
 _symmetry_equiv_pos_as_xyz
  1  'x, y, z'
loop_
 _atom_site_type_symbol
 _atom_site_label
 _atom_site_symmetry_multiplicity
 _atom_site_fract_x
 _atom_site_fract_y
 _atom_site_fract_z
 _atom_site_occupancy
  V  V0  1  0.26274471  0.63901919  0.86645178  1
  V  V1  1  0.87641825  0.25312547  0.11990364  1
  V  V2  1  0.37768183  0.48913735  0.87635509  1
  V  V3  1  0.24344067  0.74757036  -0.00075510  1
  V  V4  1  0.62536588  0.37490214  0.25132661  1
  V  V5  1  0.13043709  0.37779963  0.24963420  1
  V  V6  1  0.49766906  0.24328269  0.24813708  1
  V  V7  1  0.12750551  0.24236597  0.88748184  1
  V  V8  1  0.12758446  0.24817928  0.37645226  1
  V  V9  1  0.74849040  0.12737715  0.87294485  1
  V  V10  1  0.87202757  0.87918359  -0.00021637  1
  V  V11  1  0.62516653  0.24869353  0.37631640  1
  V  V12  1  0.75157083  0.25457980  -0.00126553  1
  V  V13  1  0.00631357  0.00814078  0.49682018  1
  V  V14  1  0.75182047  0.11953883  0.37195856  1
  V  V15  1  0.37585384  0.37177106  0.49911834  1
  V  V16  1  0.12889698  -0.00044530  0.62662843  1
  V  V17  1  0.75917714  0.25127661  0.50217502  1
  V  V18  1  0.37500709  0.74671468  0.12599158  1
  V  V19  1  0.74923675  0.37529875  0.63118810  1
  V  V20  1  0.87409809  0.75171825  0.12535260  1
  V  V21  1  0.74784515  0.62536262  0.37442433  1
  V  V22  1  0.11872370  0.50086703  0.62033703  1
  V  V23  1  0.49539160  0.62374985  0.12889920  1
  V  V24  1  0.00334093  0.87544163  0.87172778  1
  V  V25  1  -0.00432113  0.37843619  0.88577921  1
  V  V26  1  0.74835892  0.62453763  0.87494008  1
  V  V27  1  0.49915557  0.37411961  0.37547376  1
  V  V28  1  0.38054872  -0.01203298  0.37515097  1
  V  V29  1  0.62502451  0.00170550  0.62341066  1
  V  V30  1  -0.00850677  0.12723754  0.62454361  1
  V  V31  1  0.87577981  0.49818512  0.37664471  1
  V  V32  1  0.12242299  0.50788408  0.11326375  1
  V  V33  1  0.50256506  0.87316679  0.87316822  1
  V  V34  1  0.00054158  0.87674915  0.37557193  1
  V  V35  1  0.25247598  0.37327417  0.11644673  1
  V  V36  1  0.62389496  0.86895817  0.75189231  1
  V  V37  1  0.74937869  0.49920305  0.24975590  1
  V  V38  1  -0.00070415  0.37539464  0.37531325  1
  V  V39  1  0.37459838  0.24150279  0.63151399  1
  V  V40  1  0.37524820  0.24338660  0.11919645  1
  V  V41  1  0.37815511  0.87775123  -0.00140415  1
  V  V42  1  0.00806532  0.12559232  0.11831627  1
  V  V43  1  0.48553136  0.63530972  0.63956188  1
  V  V44  1  0.75466147  0.00684495  0.74792700  1
  V  V45  1  0.37885500  0.00667816  0.86622659  1
  V  V46  1  0.50672261  0.26442579  0.75036299  1
  V  V47  1  0.37074821  0.51222399  0.37179018  1
  V  V48  1  0.25025205  0.37092811  0.62556771  1
  V  V49  1  0.75013790  0.75006317  0.49872002  1
  V  V50  1  0.25821789  0.13005131  0.88217903  1
  V  V51  1  0.12767976  0.87790400  0.24816291  1
  V  V52  1  0.87339494  0.62157111  0.74629821  1
  V  V53  1  0.87540944  0.62534808  0.24678705  1
  V  V54  1  0.49899654  0.12209047  0.63095987  1
  V  V55  1  0.62199684  0.62339386  0.50367800  1
  V  V56  1  0.00465861  0.74986293  0.74720507  1
  V  V57  1  0.49854969  0.50171487  0.50111915  1
  V  V58  1  0.24902003  0.12338019  0.37732809  1
  V  V59  1  0.49788829  0.75111498  0.25609100  1
  V  V60  1  0.24818370  0.74525899  0.51744307  1
  V  V61  1  0.24584921  0.24355730  0.50144819  1
  V  V62  1  0.61607328  0.00660580  0.12762857  1
  V  V63  1  0.74991392  0.88589350  0.13086418  1
  V  V64  1  0.25506710  0.51422412  0.25188998  1
  V  V65  1  0.12408459  0.36938896  0.75071102  1
  V  V66  1  0.87480951  0.00640176  0.87105683  1
  V  V67  1  -0.01138488  0.24588827  0.74421319  1
  V  V68  1  0.01106512  0.00513922  -0.00406253  1
  V  V69  1  0.00220704  0.24988669  0.24774542  1
  V  V70  1  0.75369876  0.37566265  0.12388689  1
  V  V71  1  0.75268009  0.87380881  0.62421381  1
  V  V72  1  0.13576643  0.73745398  0.37721247  1
  V  V73  1  0.37040271  0.87109624  0.52235039  1
  V  V74  1  0.87917391  0.49964561  0.88926722  1
  V  V75  1  0.00122661  0.74660744  0.24825497  1
  V  V76  1  0.61945255  0.62729748  0.00085491  1
  V  V77  1  0.74583808  0.75231956  0.00054683  1
  V  V78  1  0.49877294  0.49006325  -0.00152282  1
  V  V79  1  0.09423954  0.69879598  0.92608642  1
  V  V80  1  0.62466965  0.26510916  0.87033482  1
  V  V81  1  0.25580583  0.50142366  0.75149178  1
  V  V82  1  0.87321024  0.11780046  0.24829975  1
  V  V83  1  0.62361523  0.87558646  0.25558518  1
  V  V84  1  0.24999238  0.00040515  0.24892604  1
  Zn  Zn85  1  0.87547649  0.74710550  0.62300744  1
  Zn  Zn86  1  0.87659502  0.87608256  0.49807702  1
  Zn  Zn87  1  0.37633642  0.36689136  -0.00335976  1
  Zn  Zn88  1  0.62004227  0.12936818  0.00517873  1
  Zn  Zn89  1  0.62450114  0.12448534  0.49848213  1
  Zn  Zn90  1  0.74524538  0.49155481  0.75655048  1
  Zn  Zn91  1  0.13311064  0.00798114  0.11423062  1
  Zn  Zn92  1  0.50150901  -0.00726751  0.49703772  1
  Zn  Zn93  1  0.49623528  0.01230170  0.00297340  1
  Zn  Zn94  1  0.62215084  0.49877246  0.12595975  1
  Zn  Zn95  1  0.37999132  0.12098478  0.24739725  1
  Zn  Zn96  1  0.62087635  0.74733339  0.87098686  1
  Zn  Zn97  1  0.00188113  0.62146729  0.09804710  1
  Zn  Zn98  1  0.61801951  0.49195204  0.64067991  1
  Zn  Zn99  1  0.01457765  0.51400183  0.48704404  1
  Zn  Zn100  1  0.00202848  0.63248799  0.61556886  1
  Zn  Zn101  1  0.87321011  -0.00275745  0.37182173  1
  Zn  Zn102  1  0.25064388  0.87836685  0.11985197  1
  Zn  Zn103  1  0.13501338  0.86744661  0.74040539  1
  Zn  Zn104  1  0.25359549  0.00429920  0.74597013  1
  Zn  Zn105  1  0.88262771  0.37205732  0.51050345  1
  Zn  Zn106  1  0.61593416  0.75511619  0.37857024  1
  Zn  Zn107  1  0.19292745  0.18870124  0.18822989  1
  Zn  Zn108  1  0.18155821  0.17747959  0.69272103  1
  Zn  Zn109  1  0.18666934  0.68963757  0.18313742  1
  Zn  Zn110  1  0.18796321  0.68222383  0.68749310  1
  Zn  Zn111  1  0.68891236  0.18857431  0.19159530  1
  Zn  Zn112  1  0.68861447  0.19093129  0.68517920  1
  Zn  Zn113  1  0.68486359  0.69049555  0.18686538  1
  Zn  Zn114  1  0.68442841  0.68169305  0.68632940  1
  Zn  Zn115  1  0.31526777  0.31570709  0.30979249  1
  Zn  Zn116  1  0.31258427  0.30889948  0.81048826  1
  Zn  Zn117  1  0.31323301  0.80950102  0.31115097  1
  Zn  Zn118  1  0.30271817  0.81750952  0.81603947  1
  Zn  Zn119  1  0.81360780  0.30748551  0.31088967  1
  Zn  Zn120  1  0.81415090  0.31524560  0.81353736  1
  Zn  Zn121  1  0.81071767  0.81214457  0.31155570  1
  Zn  Zn122  1  0.81339124  0.81196236  0.81153890  1
  Zn  Zn123  1  0.19342506  0.43605393  0.43661505  1
  Zn  Zn124  1  0.18763112  0.43858803  0.93271420  1
  Zn  Zn125  1  0.18888360  0.93204198  0.44136173  1
  Zn  Zn126  1  0.19936181  0.92888745  0.91546758  1
  Zn  Zn127  1  0.68792112  0.43465084  0.44210568  1
  Zn  Zn128  1  0.68901948  0.44224451  0.94106828  1
  Zn  Zn129  1  0.68745576  0.93737372  0.43710973  1
  Zn  Zn130  1  0.68548466  0.94056190  0.94099885  1
  Zn  Zn131  1  0.30998111  0.06702381  0.05535670  1
  Zn  Zn132  1  0.31299576  0.06082499  0.56009773  1
  Zn  Zn133  1  0.31205203  0.56055017  0.05732245  1
  Zn  Zn134  1  0.31057818  0.56266096  0.56302083  1
  Zn  Zn135  1  0.81343724  0.06659929  0.05889002  1
  Zn  Zn136  1  0.81765721  0.06290264  0.55566455  1
  Zn  Zn137  1  0.81129182  0.56595313  0.06353250  1
  Zn  Zn138  1  0.81193638  0.55743547  0.56265734  1
  Zn  Zn139  1  0.43527495  0.43504697  0.18824390  1
  Zn  Zn140  1  0.43579780  0.43830010  0.68350611  1
  Zn  Zn141  1  0.43859251  0.93317839  0.18880835  1
  Zn  Zn142  1  0.44035188  0.93515137  0.69023027  1
  Zn  Zn143  1  0.94017283  0.43961851  0.18566891  1
  Zn  Zn144  1  0.93257206  0.43378322  0.69314118  1
  Zn  Zn145  1  0.94162629  0.93874348  0.18399860  1
  Zn  Zn146  1  0.94100914  0.93919384  0.68510969  1
  Zn  Zn147  1  0.06336132  0.06541397  0.30956810  1
  Zn  Zn148  1  0.06564520  0.06591293  0.80824179  1
  Zn  Zn149  1  0.06564739  0.56196241  0.30537569  1
  Zn  Zn150  1  0.06096528  0.55813033  0.80485143  1
  Zn  Zn151  1  0.56590053  0.06032823  0.31103037  1
  Zn  Zn152  1  0.56373555  0.06565456  0.81213629  1
  Zn  Zn153  1  0.56131382  0.56356425  0.31425227  1
  Zn  Zn154  1  0.55966479  0.55652001  0.81478089  1
  Zn  Zn155  1  0.43680232  0.18063223  0.44024978  1
  Zn  Zn156  1  0.44433106  0.18952814  0.93510084  1
  Zn  Zn157  1  0.43157110  0.69117856  0.44613167  1
  Zn  Zn158  1  0.42478033  0.69270473  0.91838071  1
  Zn  Zn159  1  0.93871296  0.18579391  0.43607978  1
  Zn  Zn160  1  0.93835456  0.18925817  0.93472542  1
  Zn  Zn161  1  0.93812747  0.68723827  0.43572473  1
  Zn  Zn162  1  0.92442476  0.69129496  0.93310691  1
  Zn  Zn163  1  0.06508184  0.31720262  0.06411482  1
  Zn  Zn164  1  0.06261137  0.31278040  0.56229210  1
  Zn  Zn165  1  0.05689449  0.82304915  0.06628016  1
  Zn  Zn166  1  0.06525266  0.81380796  0.56088580  1
  Zn  Zn167  1  0.56528612  0.30719130  0.06529330  1
  Zn  Zn168  1  0.56692425  0.31075297  0.56203945  1
  Zn  Zn169  1  0.56102841  0.81657738  0.06494034  1
  Zn  Zn170  1  0.55781061  0.81157413  0.56470272  1
  O  O171  1  0.11223378  0.12732830  0.13067778  1
  O  O172  1  0.10911290  0.11164527  0.62804590  1
  O  O173  1  0.12315437  0.61180819  0.12677829  1
  O  O174  1  0.12215496  0.60318677  0.63259089  1
  O  O175  1  0.63539886  0.10891223  0.12983524  1
  O  O176  1  0.62095353  0.11450789  0.62405355  1
  O  O177  1  0.61682412  0.62405157  0.11616843  1
  O  O178  1  0.61780758  0.62123158  0.61242266  1
  O  O179  1  0.38122551  0.37974476  0.38169337  1
  O  O180  1  0.36412859  0.38205803  0.88090639  1
  O  O181  1  0.37330952  0.88692154  0.37317699  1
  O  O182  1  0.38433808  0.88541108  0.88140953  1
  O  O183  1  0.88634874  0.38246744  0.36543095  1
  O  O184  1  0.88771156  0.38252554  0.87290759  1
  O  O185  1  0.88820044  0.87654634  0.37019899  1
  O  O186  1  0.88096123  0.88464793  0.87963221  1
  O  O187  1  0.25642418  0.00420254  0.36863402  1
  O  O188  1  0.26385881  0.01654996  0.88126500  1
  O  O189  1  0.25875204  0.49344177  0.36456280  1
  O  O190  1  0.25470116  0.50652257  0.86677768  1
  O  O191  1  0.75340762  0.01456717  0.38206990  1
  O  O192  1  0.75479142  0.00727372  0.86874807  1
  O  O193  1  0.75707741  0.50352803  0.36930370  1
  O  O194  1  0.76158173  0.50575329  0.87795106  1
  O  O195  1  0.24329197  0.49426961  0.13160229  1
  O  O196  1  0.24295281  0.49186147  0.63241303  1
  O  O197  1  0.25050356  1.00117034  0.13416133  1
  O  O198  1  0.23332931  1.01096042  0.62584759  1
  O  O199  1  0.75218729  0.49043353  0.13001495  1
  O  O200  1  0.74563381  0.48644853  0.62401735  1
  O  O201  1  0.74651965  0.99022397  0.12083084  1
  O  O202  1  0.74528087  0.99485026  0.62892522  1
  O  O203  1  0.01110626  0.37118007  0.25534025  1
  O  O204  1  0.00701524  0.36350814  0.75563151  1
  O  O205  1  0.00810030  0.86896546  0.25477152  1
  O  O206  1  -0.00680875  0.86465875  0.75815835  1
  O  O207  1  0.50583080  0.36715894  0.25632232  1
  O  O208  1  0.50369026  0.36298546  0.73925247  1
  O  O209  1  0.51090299  0.86229958  0.24311490  1
  O  O210  1  0.51317362  0.88116982  0.75940556  1
  O  O211  1  0.49937721  0.13878543  0.25574401  1
  O  O212  1  0.50519508  0.13276210  0.73604881  1
  O  O213  1  0.50709534  0.63265170  0.23591426  1
  O  O214  1  0.50102521  0.61956138  0.73784854  1
  O  O215  1  0.99395290  0.13102222  0.24019161  1
  O  O216  1  1.00247694  0.14062566  0.74536007  1
  O  O217  1  0.99541021  0.63759717  0.25033983  1
  O  O218  1  0.99147894  0.63183885  0.74641279  1
  O  O219  1  0.38418512  0.25193837  0.01533475  1
  O  O220  1  0.36708268  0.25192581  0.50929444  1
  O  O221  1  0.36806829  0.76066908  0.00432184  1
  O  O222  1  0.36220995  0.76221939  0.50252654  1
  O  O223  1  0.86585687  0.24544374  0.00969972  1
  O  O224  1  0.86467231  0.25355670  0.49120338  1
  O  O225  1  0.86642941  0.75942598  0.00557711  1
  O  O226  1  0.86128298  0.75264350  0.49985673  1
  O  O227  1  0.13861809  0.25706390  0.49359568  1
  O  O228  1  0.12193489  0.25597169  0.98564371  1
  O  O229  1  0.13747647  0.75895060  0.48525136  1
  O  O230  1  0.13196451  0.75146445  1.01720076  1
  O  O231  1  0.63529072  0.24696186  0.49155202  1
  O  O232  1  0.63532155  0.24999708  0.99145882  1
  O  O233  1  0.63215840  0.74365864  0.49871811  1
  O  O234  1  0.62745353  0.74254964  1.00129010  1
  O  O235  1  0.48741026  0.25760593  0.13648442  1
  O  O236  1  0.49560461  0.24356955  0.63137591  1
  O  O237  1  0.49278637  0.74335018  0.12941303  1
  O  O238  1  0.50100392  0.73475230  0.62564707  1
  O  O239  1  0.99461922  0.24600078  0.12593431  1
  O  O240  1  1.00507624  0.24551951  0.63663390  1
  O  O241  1  0.99390496  0.75321184  0.13574657  1
  O  O242  1  0.99441393  0.75279853  0.63153597  1
  O  O243  1  0.00636570  0.25674955  0.36806543  1
  O  O244  1  0.00750388  0.25786415  0.86652744  1
  O  O245  1  0.00909228  0.75854647  0.36635589  1
  O  O246  1  0.00791877  0.75517744  0.87065849  1
  O  O247  1  0.50343770  0.25409313  0.37085242  1
  O  O248  1  0.50774353  0.25017463  0.85757387  1
  O  O249  1  0.49513680  0.74058523  0.36038413  1
  O  O250  1  0.50265023  0.76783624  0.88026930  1
  O  O251  1  0.25407552  0.13440541  0.49088827  1
  O  O252  1  0.24563832  0.12846648  0.98348903  1
  O  O253  1  0.25484596  0.64507289  0.50611945  1
  O  O254  1  0.25928539  0.64022349  0.98698830  1
  O  O255  1  0.75071394  0.13355522  0.49135718  1
  O  O256  1  0.74618580  0.13690469  0.99190139  1
  O  O257  1  0.74196175  0.63059941  0.49674769  1
  O  O258  1  0.73945575  0.63060097  0.99736251  1
  O  O259  1  0.24820539  0.37818048  0.01381946  1
  O  O260  1  0.25650287  0.36290496  0.50519861  1
  O  O261  1  0.25908762  0.86576173  -0.00492622  1
  O  O262  1  0.26291753  0.86463807  0.49542762  1
  O  O263  1  0.74801333  0.36592823  0.01119337  1
  O  O264  1  0.75633296  0.36660879  0.50393226  1
  O  O265  1  0.75336747  0.87219017  0.00862980  1
  O  O266  1  0.74877222  0.86729392  0.50746105  1
  O  O267  1  0.13486524  0.49208241  0.24417762  1
  O  O268  1  0.13272589  0.48598142  0.74267211  1
  O  O269  1  0.13492333  0.99351797  0.25045787  1
  O  O270  1  0.11657913  0.99537079  0.73489962  1
  O  O271  1  0.63148337  0.49371668  0.24939247  1
  O  O272  1  0.63417003  0.50645484  0.75091666  1
  O  O273  1  0.62075610  0.98931387  0.23869215  1
  O  O274  1  0.63554518  0.99287990  0.74151582  1
  O  O275  1  0.36836834  -0.00185035  0.25865027  1
  O  O276  1  0.37524929  -0.00233071  0.76311218  1
  O  O277  1  0.36678972  0.49397457  0.25950679  1
  O  O278  1  0.36250297  0.48718007  0.75747396  1
  O  O279  1  0.88284371  0.01368021  0.24921823  1
  O  O280  1  0.86592697  -0.00562948  0.76012368  1
  O  O281  1  0.87069605  0.50526412  0.25626224  1
  O  O282  1  0.87172435  0.50888016  0.76064936  1
  O  O283  1  0.11950474  0.37144585  0.36653056  1
  O  O284  1  0.11620320  0.36841686  0.86836826  1
  O  O285  1  0.11858899  0.86948153  0.36430879  1
  O  O286  1  0.10354249  0.88225929  0.87445847  1
  O  O287  1  0.61948999  0.36948938  0.37054041  1
  O  O288  1  0.63405529  0.36382432  0.87647049  1
  O  O289  1  0.62948233  0.87475428  0.36189880  1
  O  O290  1  0.61998730  0.87823951  0.86841950  1
  O  O291  1  0.36803972  0.13961180  0.12738586  1
  O  O292  1  0.38273793  0.13287101  0.62026004  1
  O  O293  1  0.38378058  0.63640944  0.11496005  1
  O  O294  1  0.38652548  0.62081364  0.62514277  1
  O  O295  1  0.88260220  0.13370106  0.12958277  1
  O  O296  1  0.89051218  0.11857290  0.62486337  1
  O  O297  1  0.88215522  0.63240445  0.12765580  1
  O  O298  1  0.87421371  0.62358357  0.63548189  1
  O  O299  1  0.26441232  0.25942625  0.13280624  1
  O  O300  1  0.25479710  0.24779555  0.62148442  1
  O  O301  1  0.25859637  0.75268706  0.11750865  1
  O  O302  1  0.23594842  0.75624019  0.61644509  1
  O  O303  1  0.75668521  0.25546282  0.11896263  1
  O  O304  1  0.74596792  0.25972631  0.61325229  1
  O  O305  1  0.75511370  0.75905323  0.12005486  1
  O  O306  1  0.74858004  0.75792989  0.61647078  1
  O  O307  1  0.24937887  0.24381003  0.38132873  1
  O  O308  1  0.23746126  0.24256413  0.87056224  1
  O  O309  1  0.23752093  0.74906064  0.37102330  1
  O  O310  1  0.20547398  0.74126413  0.89263506  1
  O  O311  1  0.74533809  0.24255494  0.38024776  1
  O  O312  1  0.74692465  0.24644869  0.87976192  1
  O  O313  1  0.74793041  0.74425150  0.38402857  1
  O  O314  1  0.74861046  0.74460634  0.88345906  1
  O  O315  1  -0.00619907  0.11754910  0.00748224  1
  O  O316  1  -0.00037356  0.11701350  0.50457785  1
  O  O317  1  0.01576804  0.65035639  -0.01281608  1
  O  O318  1  -0.00261391  0.62307712  0.50365024  1
  O  O319  1  0.50808037  0.12457939  -0.00281937  1
  O  O320  1  0.50324827  0.11905427  0.51391328  1
  O  O321  1  0.50681231  0.61823285  0.00820657  1
  O  O322  1  0.50489376  0.61885728  0.50490595  1
  O  O323  1  0.49639778  0.38272228  0.49649560  1
  O  O324  1  0.50432540  0.38757444  1.00899861  1
  O  O325  1  0.47883434  0.87494385  0.50814972  1
  O  O326  1  0.49194147  0.88059942  0.99369769  1
  O  O327  1  1.00081276  0.37658008  0.48454076  1
  O  O328  1  1.00166609  0.37180186  0.98435635  1
  O  O329  1  1.00006048  0.88032774  0.48721733  1
  O  O330  1  0.99130233  0.88489993  0.99269359  1
  O  O331  1  0.49211765  0.49516415  0.38212955  1
  O  O332  1  0.49077305  0.50013102  0.88746131  1
  O  O333  1  0.48346499  1.00684741  0.37640583  1
  O  O334  1  0.49504607  0.99443098  0.87607965  1
  O  O335  1  0.99485143  0.49228598  0.36905329  1
  O  O336  1  0.99613951  0.48443143  0.86758933  1
  O  O337  1  1.00475438  0.99319524  0.37960625  1
  O  O338  1  0.99135374  0.99845348  0.87689232  1
  O  O339  1  0.00280243  0.00887569  0.11323516  1
  O  O340  1  0.00481410  0.00614854  0.61540387  1
  O  O341  1  0.01594364  0.50232582  0.12802497  1
  O  O342  1  0.01467078  0.48994879  0.62672559  1
  O  O343  1  0.51239944  -0.00160222  0.12581064  1
  O  O344  1  0.50996440  0.00525815  0.62787494  1
  O  O345  1  0.49835704  0.50845546  0.11957713  1
  O  O346  1  0.49917477  0.50635418  0.61300918  1
  O  O347  1  0.24149362  0.38029957  0.24228622  1
  O  O348  1  0.24130878  0.37872960  0.74607785  1
  O  O349  1  0.24339806  0.88434520  0.24890701  1
  O  O350  1  0.23503948  0.89499025  0.78583739  1
  O  O351  1  0.74604141  0.37759553  0.24315552  1
  O  O352  1  0.75216228  0.37006770  0.73555165  1
  O  O353  1  0.74006685  0.86730159  0.23918622  1
  O  O354  1  0.74499924  0.88492735  0.74347216  1
  O  O355  1  0.25364805  0.11488011  0.25751644  1
  O  O356  1  0.23912025  0.11851932  0.77124608  1
  O  O357  1  0.24868723  0.61316789  0.24367056  1
  O  O358  1  0.24421770  0.61090445  0.75649802  1
  O  O359  1  0.76238050  0.13310103  0.25988809  1
  O  O360  1  0.74608303  0.11467050  0.75542216  1
  O  O361  1  0.75476264  0.62091109  0.25269477  1
  O  O362  1  0.76017200  0.62885592  0.75706120  1
  O  O363  1  0.36321193  0.11366802  0.37445062  1
  O  O364  1  0.36607796  0.12384307  0.87741759  1
  O  O365  1  0.37770666  0.61070885  0.38236754  1
  O  O366  1  0.36875272  0.59618375  0.88781226  1
  O  O367  1  0.87033471  0.12515808  0.36377126  1
  O  O368  1  0.86239887  0.11736724  0.87869845  1
  O  O369  1  0.86880834  0.61700565  0.36682747  1
  O  O370  1  0.86924578  0.61783598  0.86662898  1
  O  O371  1  0.13092106  0.38297557  0.13318685  1
  O  O372  1  0.13052522  0.37759965  0.63406927  1
  O  O373  1  0.12729977  0.88199495  0.13778961  1
  O  O374  1  0.11875524  0.89220221  0.62536378  1
  O  O375  1  0.63806508  0.37401960  0.13227949  1
  O  O376  1  0.64109378  0.37769118  0.61581432  1
  O  O377  1  0.63207355  0.88409413  0.13197511  1
  O  O378  1  0.63279076  0.88189949  0.63139500  1
  O  O379  1  0.12319280  0.26004016  0.25405716  1
  O  O380  1  0.11869426  0.25870574  0.75832303  1
  O  O381  1  0.12052866  0.75728477  0.25632839  1
  O  O382  1  0.10992398  0.75008905  0.74211396  1
  O  O383  1  0.61785135  0.25523088  0.25519800  1
  O  O384  1  0.61487046  0.24871159  0.75450049  1
  O  O385  1  0.61576044  0.75725586  0.25172012  1
  O  O386  1  0.63494504  0.76514630  0.75152832  1
  O  O387  1  0.38283312  0.24874974  0.24311071  1
  O  O388  1  0.38782151  0.25425171  0.73894949  1
  O  O389  1  0.38230871  0.75906280  0.23440794  1
  O  O390  1  0.33582805  0.71613747  0.83340564  1
  O  O391  1  0.88220923  0.24152170  0.23880631  1
  O  O392  1  0.89062354  0.25241095  0.75495789  1
  O  O393  1  0.88285142  0.74579371  0.24611303  1
  O  O394  1  0.88459977  0.73980505  0.75177712  1
  O  O395  1  0.38026096  0.49276475  0.49386137  1
  O  O396  1  0.38282195  0.48990494  0.99752392  1
  O  O397  1  0.36947451  0.98659062  0.48973297  1
  O  O398  1  0.37511809  0.99137393  0.99323574  1
  O  O399  1  0.87580101  0.49716345  0.48215151  1
  O  O400  1  0.88061103  0.51191309  0.98885231  1
  O  O401  1  0.88984065  0.99499366  0.49350523  1
  O  O402  1  0.88071786  0.99815918  0.98854561  1
  O  O403  1  0.11293677  -0.00644307  -0.00522362  1
  O  O404  1  0.11549272  -0.00532085  0.50845790  1
  O  O405  1  0.13118838  0.49752671  0.01473759  1
  O  O406  1  0.12877394  0.48864070  0.51599514  1
  O  O407  1  0.62417563  0.00050280  0.01698747  1
  O  O408  1  0.62277075  -0.00241736  0.51244613  1
  O  O409  1  0.61761339  0.50985203  0.00313682  1
  O  O410  1  0.61280895  0.50837972  0.49537019  1
  O  O411  1  0.36649800  0.36569892  0.12515851  1
  O  O412  1  0.36934131  0.36308768  0.61872694  1
  O  O413  1  0.37454267  0.86807845  0.11365934  1
  O  O414  1  0.36532726  0.88295168  0.62144221  1
  O  O415  1  0.86716661  0.36407888  0.13324970  1
  O  O416  1  0.86035458  0.38067906  0.62277735  1
  O  O417  1  0.86854332  0.87288869  0.12123781  1
  O  O418  1  0.86078321  0.87526169  0.62443746  1
  O  O419  1  0.13921352  0.13243748  0.36707011  1
  O  O420  1  0.12392071  0.13912003  0.87762876  1
  O  O421  1  0.12074996  0.63922177  0.37086332  1
  O  O422  1  0.13391606  0.61751855  0.87260863  1
  O  O423  1  0.63519646  0.12894029  0.37432150  1
  O  O424  1  0.63897321  0.13383083  0.87352947  1
  O  O425  1  0.62936355  0.62751978  0.38605108  1
  O  O426  1  0.62753558  0.62726400  0.88705121  1
