# generated using pymatgen
data_V85Zn86O256
_symmetry_space_group_name_H-M   'P 1'
_cell_length_a   16.97600676
_cell_length_b   16.96608424
_cell_length_c   16.96831023
_cell_angle_alpha   89.95661922
_cell_angle_beta   90.07010736
_cell_angle_gamma   90.07126567
_symmetry_Int_Tables_number   1
_chemical_formula_structural   V85Zn86O256
_chemical_formula_sum   'V85 Zn86 O256'
_cell_volume   4887.14212565
_cell_formula_units_Z   1
loop_
 _symmetry_equiv_pos_site_id
 _symmetry_equiv_pos_as_xyz
  1  'x, y, z'
loop_
 _atom_site_type_symbol
 _atom_site_label
 _atom_site_symmetry_multiplicity
 _atom_site_fract_x
 _atom_site_fract_y
 _atom_site_fract_z
 _atom_site_occupancy
  V  V0  1  0.49431651  0.12597865  0.13298269  1
  V  V1  1  0.37419029  0.50462692  0.37050808  1
  V  V2  1  0.62540859  0.12695696  0.00064345  1
  V  V3  1  0.50094689  0.50299428  0.00243105  1
  V  V4  1  0.62784164  0.62713024  0.48926446  1
  V  V5  1  0.13596267  0.11862007  0.50245170  1
  V  V6  1  0.12472554  0.74802482  0.87338404  1
  V  V7  1  0.12449430  0.12652136  -0.00439956  1
  V  V8  1  0.37283238  0.25646266  0.62344694  1
  V  V9  1  0.25230902  0.25936409  0.49166050  1
  V  V10  1  -0.00561897  0.88294954  0.37548709  1
  V  V11  1  0.87438264  -0.00083109  0.87788724  1
  V  V12  1  0.23906315  0.37957652  0.13538252  1
  V  V13  1  0.62434389  0.87682323  0.75023695  1
  V  V14  1  0.87063488  0.86383347  0.00455168  1
  V  V15  1  -0.00459022  0.74733867  0.74775643  1
  V  V16  1  -0.00155965  0.62329936  0.62147951  1
  V  V17  1  -0.00156055  -0.00085022  -0.00002773  1
  V  V18  1  0.37464963  0.87742432  -0.00226285  1
  V  V19  1  0.00530329  -0.00078059  0.50860426  1
  V  V20  1  0.62413404  0.00071224  0.12551765  1
  V  V21  1  0.12335879  0.24708092  0.37154019  1
  V  V22  1  0.24895779  0.87626460  0.12453796  1
  V  V23  1  0.49464893  0.00163253  -0.00343027  1
  V  V24  1  0.64208503  0.50135837  0.63037282  1
  V  V25  1  -0.00868962  0.75231293  0.24509311  1
  V  V26  1  0.62347904  0.13486488  0.49457091  1
  V  V27  1  0.37539949  0.87480606  0.49873421  1
  V  V28  1  0.87939595  0.36620803  0.50880298  1
  V  V29  1  0.74938583  0.87799354  0.62570875  1
  V  V30  1  0.12673352  0.62647525  0.49645655  1
  V  V31  1  0.49926995  0.00107531  0.49859770  1
  V  V32  1  0.74532778  0.75046799  0.48847625  1
  V  V33  1  0.25293438  0.62564749  0.87070203  1
  V  V34  1  -0.00260297  0.62636733  0.12624303  1
  V  V35  1  0.12386717  0.87859139  0.25027527  1
  V  V36  1  0.74464647  0.13783106  0.37430657  1
  V  V37  1  0.12846741  0.75068650  0.37479728  1
  V  V38  1  0.49463255  0.24926459  0.75055764  1
  V  V39  1  0.37388664  0.37592467  0.00338077  1
  V  V40  1  0.75304380  -0.00195746  0.25598429  1
  V  V41  1  0.63420962  0.63248125  0.00114473  1
  V  V42  1  0.49857711  0.74694244  0.25148458  1
  V  V43  1  0.49558673  0.12507178  0.62729568  1
  V  V44  1  0.37642248  0.50228549  0.87038621  1
  V  V45  1  0.37218029  0.01142887  0.36937872  1
  V  V46  1  0.75760950  0.62826930  0.86665749  1
  V  V47  1  0.26462072  0.12168492  0.87205620  1
  V  V48  1  0.24866265  0.75152428  -0.00195449  1
  V  V49  1  0.12208222  0.49918360  0.61504052  1
  V  V50  1  0.00824930  0.49838043  0.00917225  1
  V  V51  1  0.63990743  0.37719613  0.74696738  1
  V  V52  1  0.86836320  0.25405424  0.12758221  1
  V  V53  1  0.62487563  0.87007822  0.25231900  1
  V  V54  1  0.87628549  0.12188538  0.25558392  1
  V  V55  1  0.12748895  0.37230445  0.74792210  1
  V  V56  1  0.37624698  0.24990675  0.13561773  1
  V  V57  1  0.25360962  0.50352615  0.74624529  1
  V  V58  1  0.00408169  0.13059567  0.62608483  1
  V  V59  1  0.87046992  0.37658264  0.00456789  1
  V  V60  1  0.50282118  0.87050228  0.37511470  1
  V  V61  1  0.24666319  0.88189320  0.62425585  1
  V  V62  1  0.37492091  0.74217299  0.62837459  1
  V  V63  1  0.63287849  0.36892924  0.25082264  1
  V  V64  1  0.12534762  0.88224958  0.74646409  1
  V  V65  1  0.75219674  0.86423420  0.12184133  1
  V  V66  1  0.12595461  0.00149224  0.12485589  1
  V  V67  1  0.37391817  0.74618230  0.12517785  1
  V  V68  1  0.63689518  0.49494947  0.12428275  1
  V  V69  1  0.75065054  0.12496261  0.87945394  1
  V  V70  1  0.26511766  0.00147303  0.75316418  1
  V  V71  1  0.49580988  0.87866158  0.87426906  1
  V  V72  1  0.87541289  0.50833747  0.38101051  1
  V  V73  1  0.49808343  0.49700326  0.50353312  1
  V  V74  1  0.87273363  0.88588483  0.49811468  1
  V  V75  1  0.25067425  0.75031183  0.49733941  1
  V  V76  1  0.00138862  0.25805655  0.25265655  1
  V  V77  1  0.50227400  0.36953332  0.37733855  1
  V  V78  1  0.75022716  -0.00154506  0.75212512  1
  V  V79  1  0.25333137  0.01428850  0.25190436  1
  V  V80  1  0.00271557  0.37585928  0.87631824  1
  V  V81  1  0.62577834  0.25217620  0.87542646  1
  V  V82  1  0.49658484  0.74340304  0.75129211  1
  V  V83  1  0.87188496  0.74847681  0.62494285  1
  V  V84  1  0.87736248  0.13086958  0.74800535  1
  Zn  Zn85  1  -0.00310964  0.87233308  0.87416683  1
  Zn  Zn86  1  0.00240290  0.38355535  0.37842907  1
  Zn  Zn87  1  0.50273516  0.24357075  0.25984390  1
  Zn  Zn88  1  0.49805055  0.61940397  0.63109999  1
  Zn  Zn89  1  0.35770550  0.63063024  0.26171122  1
  Zn  Zn90  1  0.24980140  0.25155071  -0.00079231  1
  Zn  Zn91  1  0.74599149  0.25758454  0.00555090  1
  Zn  Zn92  1  0.25488840  0.37878526  0.61874790  1
  Zn  Zn93  1  0.62879574  0.75372016  0.87894634  1
  Zn  Zn94  1  -0.00106549  0.12571678  0.12726843  1
  Zn  Zn95  1  0.12792506  0.24842836  0.87241321  1
  Zn  Zn96  1  0.74502569  0.51129485  0.26409783  1
  Zn  Zn97  1  0.87155952  0.49871968  0.86941037  1
  Zn  Zn98  1  0.50220314  0.37632803  0.87293202  1
  Zn  Zn99  1  0.49981649  0.62283038  0.12828299  1
  Zn  Zn100  1  -0.00041997  0.25158124  0.74741700  1
  Zn  Zn101  1  0.21880391  0.51446621  0.23764425  1
  Zn  Zn102  1  0.86472000  0.62850402  0.24775603  1
  Zn  Zn103  1  0.12784579  0.61870925  0.00792727  1
  Zn  Zn104  1  0.82120817  0.56699183  0.70625914  1
  Zn  Zn105  1  0.62385370  0.00120676  0.62356044  1
  Zn  Zn106  1  0.75213199  0.26593107  0.53438471  1
  Zn  Zn107  1  0.18666407  0.19320547  0.18288068  1
  Zn  Zn108  1  0.19008740  0.18285407  0.68397343  1
  Zn  Zn109  1  0.18065253  0.68930727  0.18785546  1
  Zn  Zn110  1  0.18645644  0.68945533  0.68510202  1
  Zn  Zn111  1  0.68594862  0.18752774  0.18780707  1
  Zn  Zn112  1  0.68144638  0.18571370  0.69210725  1
  Zn  Zn113  1  0.68594256  0.68417225  0.18778112  1
  Zn  Zn114  1  0.68089395  0.69277422  0.68367928  1
  Zn  Zn115  1  0.31468920  0.31789121  0.31650693  1
  Zn  Zn116  1  0.31162152  0.31233346  0.81310473  1
  Zn  Zn117  1  0.31292382  0.82023484  0.31066321  1
  Zn  Zn118  1  0.31397071  0.81430107  0.81010181  1
  Zn  Zn119  1  0.81697735  0.31818014  0.31901345  1
  Zn  Zn120  1  0.81505869  0.31118809  0.81774563  1
  Zn  Zn121  1  0.81152958  0.81384399  0.31237839  1
  Zn  Zn122  1  0.81127468  0.80965249  0.81789391  1
  Zn  Zn123  1  0.16916441  0.45238390  0.40642180  1
  Zn  Zn124  1  0.18922890  0.43684935  0.93812414  1
  Zn  Zn125  1  0.18847343  0.93852587  0.43380513  1
  Zn  Zn126  1  0.18734716  0.93913056  0.93342368  1
  Zn  Zn127  1  0.69317118  0.43222064  0.43748427  1
  Zn  Zn128  1  0.68875699  0.44312893  0.93179758  1
  Zn  Zn129  1  0.68593856  0.94223741  0.43935204  1
  Zn  Zn130  1  0.68570076  0.93741160  0.93971898  1
  Zn  Zn131  1  0.31142764  0.06460356  0.06276242  1
  Zn  Zn132  1  0.31659152  0.06242327  0.56299798  1
  Zn  Zn133  1  0.30842963  0.56249043  0.06252047  1
  Zn  Zn134  1  0.31085504  0.56184067  0.55447121  1
  Zn  Zn135  1  0.81193827  0.06092620  0.06841318  1
  Zn  Zn136  1  0.79772513  0.09097963  0.57868641  1
  Zn  Zn137  1  0.81860111  0.56397576  0.05987470  1
  Zn  Zn138  1  0.81424040  0.56210268  0.54032899  1
  Zn  Zn139  1  0.44054639  0.43596974  0.19163784  1
  Zn  Zn140  1  0.44286994  0.43368560  0.68686495  1
  Zn  Zn141  1  0.43493811  0.93767569  0.18675222  1
  Zn  Zn142  1  0.43697423  0.93367770  0.68488543  1
  Zn  Zn143  1  0.93286926  0.44256288  0.19201517  1
  Zn  Zn144  1  0.93887428  0.43260389  0.68589908  1
  Zn  Zn145  1  0.93545405  0.93844926  0.18468737  1
  Zn  Zn146  1  0.93615921  0.93844471  0.68675114  1
  Zn  Zn147  1  0.06419960  0.06609846  0.31651247  1
  Zn  Zn148  1  0.06378669  0.06136366  0.81354834  1
  Zn  Zn149  1  0.05422679  0.56451859  0.31065020  1
  Zn  Zn150  1  0.05972343  0.55846135  0.80851149  1
  Zn  Zn151  1  0.56378981  0.05759089  0.31414413  1
  Zn  Zn152  1  0.56185096  0.06405430  0.81259179  1
  Zn  Zn153  1  0.56074082  0.55660293  0.31129618  1
  Zn  Zn154  1  0.56850066  0.56196724  0.81499814  1
  Zn  Zn155  1  0.43469593  0.18945813  0.44103473  1
  Zn  Zn156  1  0.43960075  0.19142304  0.94203987  1
  Zn  Zn157  1  0.44064167  0.68480717  0.44182109  1
  Zn  Zn158  1  0.43932260  0.68865320  0.93663824  1
  Zn  Zn159  1  0.93624933  0.18637945  0.43924106  1
  Zn  Zn160  1  0.93765463  0.19082007  0.93762602  1
  Zn  Zn161  1  0.93801494  0.69410301  0.43802222  1
  Zn  Zn162  1  0.94066426  0.68406316  0.93950083  1
  Zn  Zn163  1  0.05845292  0.30940403  0.06560990  1
  Zn  Zn164  1  0.06399520  0.31085179  0.55750956  1
  Zn  Zn165  1  0.06040644  0.81227534  0.06237878  1
  Zn  Zn166  1  0.06159337  0.81231954  0.56285272  1
  Zn  Zn167  1  0.56094706  0.31388034  0.06568389  1
  Zn  Zn168  1  0.56534222  0.31638043  0.56684554  1
  Zn  Zn169  1  0.56179493  0.81475590  0.06624759  1
  Zn  Zn170  1  0.56256333  0.81088457  0.56459378  1
  O  O171  1  0.12550266  0.11905839  0.11172256  1
  O  O172  1  0.11754326  0.12302103  0.61453349  1
  O  O173  1  0.10744426  0.62965452  0.12308202  1
  O  O174  1  0.12029375  0.61992901  0.61642189  1
  O  O175  1  0.61616007  0.12083470  0.12007258  1
  O  O176  1  0.60908112  0.12138022  0.61615607  1
  O  O177  1  0.62106890  0.61598618  0.11240937  1
  O  O178  1  0.62075174  0.61163234  0.62354412  1
  O  O179  1  0.39529292  0.38627686  0.36979815  1
  O  O180  1  0.37382358  0.38577630  0.88511168  1
  O  O181  1  0.38499332  0.88183607  0.38013917  1
  O  O182  1  0.38714609  0.87033586  0.88169323  1
  O  O183  1  0.88074397  0.38333709  0.38376474  1
  O  O184  1  0.88737795  0.37362896  0.88417107  1
  O  O185  1  0.88495058  0.87033551  0.38567191  1
  O  O186  1  0.87486667  0.88220978  0.88525734  1
  O  O187  1  0.25990004  -0.00673365  0.36394217  1
  O  O188  1  0.24902661  0.01206567  0.86878463  1
  O  O189  1  0.27751190  0.48625794  0.38607149  1
  O  O190  1  0.25596838  0.50713740  0.86755374  1
  O  O191  1  0.74467663  0.00258139  0.35930430  1
  O  O192  1  0.75457553  0.00496628  0.87209430  1
  O  O193  1  0.76537353  0.49813544  0.37901304  1
  O  O194  1  0.75145134  0.52052185  0.87655533  1
  O  O195  1  0.25369499  0.48546935  0.12664838  1
  O  O196  1  0.24388147  0.50035712  0.63003026  1
  O  O197  1  0.24602932  0.99514111  0.13095125  1
  O  O198  1  0.25715888  0.98792311  0.63268045  1
  O  O199  1  0.73753521  0.50122105  0.11862955  1
  O  O200  1  0.74317062  0.51200904  0.62812095  1
  O  O201  1  0.74174616  0.99496815  0.13705660  1
  O  O202  1  0.74889024  0.99574692  0.63364222  1
  O  O203  1  -0.00533371  0.35988284  0.25205189  1
  O  O204  1  0.01176178  0.37336077  0.75774629  1
  O  O205  1  0.00230522  0.87376263  0.25636994  1
  O  O206  1  0.00889327  0.86626516  0.74841935  1
  O  O207  1  0.51019575  0.37359538  0.26259331  1
  O  O208  1  0.51126057  0.36361034  0.75074738  1
  O  O209  1  0.50540940  0.86900190  0.25500257  1
  O  O210  1  0.50359735  0.87140360  0.75814070  1
  O  O211  1  0.50671295  0.12447251  0.23705531  1
  O  O212  1  0.50823139  0.13759884  0.74017656  1
  O  O213  1  0.50342753  0.64027120  0.25013495  1
  O  O214  1  0.50562617  0.63940013  0.75306503  1
  O  O215  1  0.98868102  0.12751633  0.25109199  1
  O  O216  1  0.99710412  0.12532121  0.74515781  1
  O  O217  1  0.99632873  0.63668455  0.24369352  1
  O  O218  1  1.01157974  0.63804902  0.73573844  1
  O  O219  1  0.37608019  0.26315633  0.00826114  1
  O  O220  1  0.35877391  0.24538549  0.50576017  1
  O  O221  1  0.36972447  0.75618611  0.00597439  1
  O  O222  1  0.37080026  0.75567799  0.50597722  1
  O  O223  1  0.87555145  0.25737653  0.01022441  1
  O  O224  1  0.86991260  0.26006512  0.49438281  1
  O  O225  1  0.88399393  0.76585248  -0.00281632  1
  O  O226  1  0.86552354  0.75997507  0.50605653  1
  O  O227  1  0.13737650  0.23812066  0.49704070  1
  O  O228  1  0.12620046  0.23738755  0.99979249  1
  O  O229  1  0.13053549  0.74811961  0.49407507  1
  O  O230  1  0.12972081  0.75188610  0.98750908  1
  O  O231  1  0.62850415  0.23707405  0.50787502  1
  O  O232  1  0.62467901  0.24664668  0.99512854  1
  O  O233  1  0.62893349  0.73566568  0.50643942  1
  O  O234  1  0.61544540  0.73444627  1.00243606  1
  O  O235  1  0.49251919  0.24118320  0.12560415  1
  O  O236  1  0.49359155  0.24600283  0.62978524  1
  O  O237  1  0.48915653  0.75203076  0.13358597  1
  O  O238  1  0.49082885  0.75069096  0.63385033  1
  O  O239  1  0.99059859  0.24473765  0.13533459  1
  O  O240  1  1.00527921  0.23492179  0.62668641  1
  O  O241  1  1.00317901  0.74695076  0.13720032  1
  O  O242  1  0.99378811  0.74442709  0.63014488  1
  O  O243  1  0.00606538  0.24309394  0.36531349  1
  O  O244  1  0.00578717  0.26345635  0.87443654  1
  O  O245  1  0.00832664  0.76342543  0.37002551  1
  O  O246  1  0.00861093  0.74815790  0.86531937  1
  O  O247  1  0.49573763  0.26457386  0.37854027  1
  O  O248  1  0.50555486  0.25095558  0.86682505  1
  O  O249  1  0.49154191  0.76201797  0.36620396  1
  O  O250  1  0.50186039  0.75996004  0.86833956  1
  O  O251  1  0.24045461  0.12847144  0.50720471  1
  O  O252  1  0.24244827  0.12224758  0.98767356  1
  O  O253  1  0.23655801  0.63608843  0.50393568  1
  O  O254  1  0.24602753  0.63097461  0.98888909  1
  O  O255  1  0.74157210  0.11558466  0.47913933  1
  O  O256  1  0.74221057  0.12327326  0.99649318  1
  O  O257  1  0.73614923  0.63598644  0.50465633  1
  O  O258  1  0.73712326  0.62471680  0.99720895  1
  O  O259  1  0.26090316  0.37614784  0.00798291  1
  O  O260  1  0.24253134  0.35874300  0.50143959  1
  O  O261  1  0.25422908  0.87212859  0.00329518  1
  O  O262  1  0.25388346  0.87137369  0.50744262  1
  O  O263  1  0.76638336  0.37712017  -0.00894497  1
  O  O264  1  0.76368365  0.37096193  0.50019957  1
  O  O265  1  0.75800796  0.88351227  0.00994026  1
  O  O266  1  0.75420374  0.87285054  0.50439185  1
  O  O267  1  0.13389066  0.48838348  0.30201418  1
  O  O268  1  0.13408034  0.49266318  0.73983825  1
  O  O269  1  0.13101307  0.99748566  0.24606992  1
  O  O270  1  0.13213315  0.98561857  0.75595952  1
  O  O271  1  0.62518509  0.49299139  0.23960469  1
  O  O272  1  0.62147096  0.49350238  0.73760470  1
  O  O273  1  0.62995231  0.98819876  0.24461457  1
  O  O274  1  0.63120370  0.99406550  0.74988606  1
  O  O275  1  0.36513652  -0.00690225  0.25664718  1
  O  O276  1  0.36455757  -0.00512676  0.75103611  1
  O  O277  1  0.38412447  0.50723600  0.26386915  1
  O  O278  1  0.36660279  0.49123285  0.75905732  1
  O  O279  1  0.86479507  0.01019315  0.24311214  1
  O  O280  1  0.87092431  0.00403920  0.75975819  1
  O  O281  1  0.86784475  0.50345703  0.26244531  1
  O  O282  1  0.89359477  0.50416985  0.75779010  1
  O  O283  1  0.11728398  0.35009201  0.38698050  1
  O  O284  1  0.12183952  0.37453460  0.86533646  1
  O  O285  1  0.11493302  0.86975814  0.37101506  1
  O  O286  1  0.12512642  0.86328088  0.86591306  1
  O  O287  1  0.61427871  0.38483735  0.36215864  1
  O  O288  1  0.62360016  0.37144938  0.86647798  1
  O  O289  1  0.61311244  0.88185257  0.36526843  1
  O  O290  1  0.61381366  0.87403093  0.87134369  1
  O  O291  1  0.38414791  0.13647285  0.11674411  1
  O  O292  1  0.38810558  0.13663300  0.61891387  1
  O  O293  1  0.37666753  0.63924411  0.12169850  1
  O  O294  1  0.37534028  0.63881001  0.61834650  1
  O  O295  1  0.87477160  0.13346749  0.13701387  1
  O  O296  1  0.89373375  0.10900739  0.64073057  1
  O  O297  1  0.89093981  0.62420419  0.12476158  1
  O  O298  1  0.88197596  0.62804062  0.61913880  1
  O  O299  1  0.26013260  0.25977918  0.12121599  1
  O  O300  1  0.25851784  0.25011902  0.61752712  1
  O  O301  1  0.25508506  0.75664613  0.11799509  1
  O  O302  1  0.25728766  0.75899483  0.62104820  1
  O  O303  1  0.76307110  0.24727946  0.12507145  1
  O  O304  1  0.76112437  0.19570614  0.61763772  1
  O  O305  1  0.74270155  0.76597589  0.12771754  1
  O  O306  1  0.75359356  0.75871813  0.61794158  1
  O  O307  1  0.24622077  0.25211572  0.38544927  1
  O  O308  1  0.24860271  0.23655816  0.87650969  1
  O  O309  1  0.23673648  0.76312668  0.38044825  1
  O  O310  1  0.24559114  0.74353746  0.87603035  1
  O  O311  1  0.74655101  0.23650436  0.37021392  1
  O  O312  1  0.74327857  0.24213578  0.88037379  1
  O  O313  1  0.74757418  0.75854970  0.38949066  1
  O  O314  1  0.74451484  0.73684703  0.87612677  1
  O  O315  1  0.00695342  0.11533096  -0.00073365  1
  O  O316  1  0.00418373  0.11618005  0.50772072  1
  O  O317  1  0.00289347  0.61535878  0.00583384  1
  O  O318  1  0.01241383  0.63739641  0.51394877  1
  O  O319  1  0.50499777  0.11796304  0.00738115  1
  O  O320  1  0.50610382  0.12236375  0.50473565  1
  O  O321  1  0.50806908  0.61489406  -0.00224339  1
  O  O322  1  0.51390303  0.61806010  0.50549756  1
  O  O323  1  0.51439503  0.38458969  0.48761056  1
  O  O324  1  0.49171644  0.38623354  0.99864104  1
  O  O325  1  0.49759222  0.87878996  0.49267953  1
  O  O326  1  0.49670417  0.88245077  0.99404744  1
  O  O327  1  0.98786408  0.36676090  0.49613867  1
  O  O328  1  0.99584742  0.38008786  0.99530364  1
  O  O329  1  0.99409870  0.87994685  0.49579357  1
  O  O330  1  0.99253553  0.88565243  1.00040068  1
  O  O331  1  0.49605562  0.49270968  0.38516457  1
  O  O332  1  0.49141108  0.50040586  0.88116990  1
  O  O333  1  0.49235752  0.98980526  0.37746944  1
  O  O334  1  0.50415945  0.99276469  0.88582469  1
  O  O335  1  0.98276505  0.49830173  0.37096062  1
  O  O336  1  1.00309798  0.48852766  0.88396456  1
  O  O337  1  1.00414654  0.98849702  0.38511285  1
  O  O338  1  0.99519989  0.99624905  0.88514173  1
  O  O339  1  0.00660619  0.00272337  0.11571662  1
  O  O340  1  0.00382063  0.00138699  0.61371155  1
  O  O341  1  -0.00255381  0.50628519  0.11734247  1
  O  O342  1  0.01484213  0.51098441  0.62962573  1
  O  O343  1  0.50330517  0.00613917  0.11857214  1
  O  O344  1  0.49539735  0.00818977  0.61773508  1
  O  O345  1  0.50534674  0.50238262  0.11493597  1
  O  O346  1  0.50556203  0.50033984  0.61738762  1
  O  O347  1  0.25328481  0.37453490  0.23660420  1
  O  O348  1  0.24334568  0.38630399  0.74845663  1
  O  O349  1  0.24161600  0.88186853  0.24177616  1
  O  O350  1  0.24491825  0.88161360  0.74423301  1
  O  O351  1  0.73426560  0.37736291  0.25814172  1
  O  O352  1  0.73938818  0.36927744  0.75330211  1
  O  O353  1  0.74357434  0.87954678  0.24475760  1
  O  O354  1  0.74479618  0.87879030  0.74679671  1
  O  O355  1  0.24614092  0.11285105  0.24300733  1
  O  O356  1  0.24518117  0.11612732  0.76295028  1
  O  O357  1  0.24811088  0.62262843  0.24397660  1
  O  O358  1  0.24422659  0.61446351  0.75727630  1
  O  O359  1  0.75155901  0.11834098  0.25823778  1
  O  O360  1  0.75813405  0.11674619  0.76110151  1
  O  O361  1  0.75165807  0.62494942  0.25051380  1
  O  O362  1  0.74577491  0.63218157  0.76088590  1
  O  O363  1  0.38332539  0.11024776  0.37621579  1
  O  O364  1  0.36305193  0.12742005  0.88168472  1
  O  O365  1  0.38183848  0.61170091  0.37715638  1
  O  O366  1  0.36411050  0.61525505  0.88008155  1
  O  O367  1  0.85964838  0.12782541  0.36399352  1
  O  O368  1  0.87216349  0.11840469  0.87019971  1
  O  O369  1  0.87909347  0.61380952  0.38323799  1
  O  O370  1  0.86031562  0.62754976  0.88129789  1
  O  O371  1  0.14090179  0.36680421  0.12135022  1
  O  O372  1  0.12567583  0.38425750  0.62978914  1
  O  O373  1  0.12931437  0.88191661  0.12924514  1
  O  O374  1  0.13752868  0.86638002  0.63335895  1
  O  O375  1  0.61713955  0.38361634  0.13865191  1
  O  O376  1  0.62736156  0.39139063  0.63037332  1
  O  O377  1  0.63039379  0.88177822  0.13215810  1
  O  O378  1  0.63037266  0.87908478  0.63084838  1
  O  O379  1  0.11365559  0.23721041  0.25891203  1
  O  O380  1  0.12889796  0.26321778  0.74717352  1
  O  O381  1  0.11511867  0.75952331  0.25835525  1
  O  O382  1  0.11971555  0.75880553  0.75575442  1
  O  O383  1  0.62134029  0.26451161  0.24422752  1
  O  O384  1  0.61774558  0.25767293  0.75425973  1
  O  O385  1  0.61398445  0.76364142  0.24196753  1
  O  O386  1  0.61289215  0.76059653  0.75019854  1
  O  O387  1  0.38031220  0.25640847  0.23898812  1
  O  O388  1  0.38611046  0.25573882  0.74240447  1
  O  O389  1  0.38084006  0.75164088  0.24205586  1
  O  O390  1  0.38404096  0.75665714  0.74015552  1
  O  O391  1  0.88041104  0.24330637  0.24579901  1
  O  O392  1  0.87810294  0.23429240  0.75697056  1
  O  O393  1  0.88843248  0.74966747  0.25933461  1
  O  O394  1  0.88782741  0.75717214  0.74355498  1
  O  O395  1  0.39153189  0.50564250  0.49413207  1
  O  O396  1  0.38157473  0.49575385  0.99326081  1
  O  O397  1  0.37966605  0.99395793  0.49110535  1
  O  O398  1  0.38752594  0.99384118  1.00821069  1
  O  O399  1  0.87686601  0.48641145  0.48952227  1
  O  O400  1  0.88744143  0.49097683  0.99634612  1
  O  O401  1  0.88440549  0.98756110  0.50414171  1
  O  O402  1  0.88376749  0.99774256  0.99747754  1
  O  O403  1  0.11732986  0.00483866  0.00293694  1
  O  O404  1  0.11785185  0.00737226  0.49429417  1
  O  O405  1  0.11374738  0.49965210  -0.00383557  1
  O  O406  1  0.13290530  0.51130505  0.50586887  1
  O  O407  1  0.61364610  0.00534413  0.00613405  1
  O  O408  1  0.61587141  0.01185327  0.50053541  1
  O  O409  1  0.61749819  0.50522761  0.00473319  1
  O  O410  1  0.62384644  0.50923633  0.51311525  1
  O  O411  1  0.37288382  0.36944643  0.11879547  1
  O  O412  1  0.37510062  0.36193751  0.62372819  1
  O  O413  1  0.36988497  0.86513147  0.11871139  1
  O  O414  1  0.36652427  0.86599992  0.61788684  1
  O  O415  1  0.88262204  0.36609026  0.11590306  1
  O  O416  1  0.88043905  0.37617715  0.60986068  1
  O  O417  1  0.86394339  0.88159001  0.11665231  1
  O  O418  1  0.86911664  0.86970380  0.61697864  1
  O  O419  1  0.12100723  0.13394882  0.39087540  1
  O  O420  1  0.13056131  0.12573296  0.88402078  1
  O  O421  1  0.11220895  0.64256055  0.38652820  1
  O  O422  1  0.13417786  0.63475024  0.87238185  1
  O  O423  1  0.63295723  0.12364408  0.37885944  1
  O  O424  1  0.62951052  0.13153056  0.88102897  1
  O  O425  1  0.62202712  0.61661625  0.39147169  1
  O  O426  1  0.63276889  0.62537025  0.88839800  1
