# generated using pymatgen
data_V85Zn86O256
_symmetry_space_group_name_H-M   'P 1'
_cell_length_a   16.95229533
_cell_length_b   16.94505486
_cell_length_c   16.93620052
_cell_angle_alpha   90.07281987
_cell_angle_beta   90.17804322
_cell_angle_gamma   89.98083687
_symmetry_Int_Tables_number   1
_chemical_formula_structural   V85Zn86O256
_chemical_formula_sum   'V85 Zn86 O256'
_cell_volume   4865.02419584
_cell_formula_units_Z   1
loop_
 _symmetry_equiv_pos_site_id
 _symmetry_equiv_pos_as_xyz
  1  'x, y, z'
loop_
 _atom_site_type_symbol
 _atom_site_label
 _atom_site_symmetry_multiplicity
 _atom_site_fract_x
 _atom_site_fract_y
 _atom_site_fract_z
 _atom_site_occupancy
  V  V0  1  0.86978197  0.37181347  0.49737193  1
  V  V1  1  0.00205536  0.37515447  0.86645516  1
  V  V2  1  0.49951857  0.12283671  0.12468557  1
  V  V3  1  0.49937868  0.61957436  0.12659202  1
  V  V4  1  0.62573875  0.37563581  0.75185632  1
  V  V5  1  0.37625508  0.00154009  0.37843263  1
  V  V6  1  0.12478862  0.37938470  0.24162046  1
  V  V7  1  0.00869209  0.49671584  -0.00079774  1
  V  V8  1  0.49336077  0.74497401  0.25166840  1
  V  V9  1  0.87435539  0.12973174  0.24555148  1
  V  V10  1  0.75192768  0.13245090  0.37891086  1
  V  V11  1  0.25096214  0.00077478  0.25107923  1
  V  V12  1  0.49705723  0.36688398  0.87026571  1
  V  V13  1  0.87560471  -0.00154085  0.87210170  1
  V  V14  1  0.75200870  0.24752226  0.00496875  1
  V  V15  1  0.24163930  0.00906406  0.75169104  1
  V  V16  1  0.74480498  0.37996630  0.12234466  1
  V  V17  1  0.63009772  0.13214839  0.50113787  1
  V  V18  1  0.48719284  0.75360590  0.75170009  1
  V  V19  1  0.00557684  0.12369425  0.62516160  1
  V  V20  1  0.62515460  0.12344445  0.00035253  1
  V  V21  1  0.74978228  0.38273808  0.62976466  1
  V  V22  1  0.25382195  0.62677654  0.37081943  1
  V  V23  1  0.85757362  0.49655438  0.87039387  1
  V  V24  1  0.24722094  0.87962689  0.62649753  1
  V  V25  1  0.62523022  0.74977063  0.37742043  1
  V  V26  1  0.48785429  0.62933662  0.63296447  1
  V  V27  1  0.12577281  0.00042489  0.12355569  1
  V  V28  1  0.12503133  0.63942941  -0.01352786  1
  V  V29  1  0.62401463  0.00032725  0.12522320  1
  V  V30  1  0.11798188  0.50052247  0.63422151  1
  V  V31  1  0.12825311  0.13377280  0.50123451  1
  V  V32  1  0.24922631  0.24635920  -0.00588838  1
  V  V33  1  0.37810297  -0.00044546  0.87542433  1
  V  V34  1  0.38152461  0.12809435  0.75438942  1
  V  V35  1  0.00114807  0.25112400  0.24922997  1
  V  V36  1  0.62372314  0.74941845  0.87321084  1
  V  V37  1  0.62373276  0.38080405  0.24439129  1
  V  V38  1  0.37527697  0.50397624  0.37005340  1
  V  V39  1  0.26617738  0.49991824  0.75704183  1
  V  V40  1  0.50370105  0.00218718  0.50763395  1
  V  V41  1  0.25565087  0.74829962  0.50852435  1
  V  V42  1  0.87546859  0.87507672  0.50201301  1
  V  V43  1  0.62542980  0.62048197  0.00062532  1
  V  V44  1  0.26086160  0.63243718  0.87300625  1
  V  V45  1  0.86867968  0.24922517  0.61903221  1
  V  V46  1  0.00288649  0.87484875  0.37425533  1
  V  V47  1  0.50538035  0.50224876  0.50454876  1
  V  V48  1  0.62438069  0.87484794  0.25110461  1
  V  V49  1  0.75373290  0.87657345  0.63451279  1
  V  V50  1  0.87597579  0.74657790  0.12720106  1
  V  V51  1  0.74859624  0.74285104  -0.00445783  1
  V  V52  1  -0.00271079  0.12778149  0.12307996  1
  V  V53  1  0.74949569  0.62441321  0.37396102  1
  V  V54  1  0.63195570  0.87608811  0.75308114  1
  V  V55  1  0.24995676  0.13378996  0.38089133  1
  V  V56  1  0.36988525  0.37080419  0.50161896  1
  V  V57  1  0.37468892  0.12598807  0.25053761  1
  V  V58  1  0.12195811  0.85977215  0.75152699  1
  V  V59  1  0.00753352  0.61922988  0.12441573  1
  V  V60  1  0.89054673  0.73975720  0.62672095  1
  V  V61  1  0.38039478  0.87388699  -0.00259695  1
  V  V62  1  0.24712765  0.37449088  0.62661199  1
  V  V63  1  0.87747380  0.87357177  -0.00391006  1
  V  V64  1  0.50090822  0.37300865  0.37489151  1
  V  V65  1  0.75027129  0.87412416  0.12600128  1
  V  V66  1  0.87073642  0.12095489  0.74679931  1
  V  V67  1  0.49841590  0.50022456  -0.00574125  1
  V  V68  1  0.24986878  0.87034210  0.11874274  1
  V  V69  1  0.74949585  0.00235394  0.25059559  1
  V  V70  1  0.87251355  0.62275902  0.75968428  1
  V  V71  1  0.12132577  0.62268167  0.50386581  1
  V  V72  1  0.12744659  0.12331202  -0.00664478  1
  V  V73  1  0.12269620  0.25144453  0.86884679  1
  V  V74  1  0.12494938  0.87528523  0.25066081  1
  V  V75  1  0.24761207  0.50260766  0.24329009  1
  V  V76  1  0.87650103  0.49944755  0.37294322  1
  V  V77  1  0.37704661  0.87342062  0.50757183  1
  V  V78  1  0.87475364  0.36953894  0.00401139  1
  V  V79  1  0.37326211  0.38049638  -0.00582147  1
  V  V80  1  0.00934626  -0.00006038  0.50379384  1
  V  V81  1  0.37342113  0.25084308  0.12391675  1
  V  V82  1  0.37174987  0.74642779  0.12294121  1
  V  V83  1  0.38005591  0.25147458  0.63066520  1
  V  V84  1  0.74887741  0.12207902  0.87071224  1
  Zn  Zn85  1  0.00296092  0.25171868  0.74663520  1
  Zn  Zn86  1  0.01397300  0.85278287  0.87376394  1
  Zn  Zn87  1  0.13011904  0.25690858  0.37712076  1
  Zn  Zn88  1  0.50820697  0.13393826  0.63132478  1
  Zn  Zn89  1  -0.00158772  0.50243413  0.50358914  1
  Zn  Zn90  1  0.87540862  0.00095246  0.37449273  1
  Zn  Zn91  1  0.63397869  0.51132132  0.64196648  1
  Zn  Zn92  1  0.62629041  0.62856745  0.50769576  1
  Zn  Zn93  1  0.74667326  0.50362508  0.24114132  1
  Zn  Zn94  1  0.00247923  -0.00307259  -0.00304518  1
  Zn  Zn95  1  0.12747322  0.74897435  0.37562604  1
  Zn  Zn96  1  0.00224451  0.74663404  0.25088061  1
  Zn  Zn97  1  0.63529500  0.00479321  0.63401290  1
  Zn  Zn98  1  0.50422259  -0.00550753  -0.00478910  1
  Zn  Zn99  1  0.74995943  0.75138539  0.50233483  1
  Zn  Zn100  1  0.00296219  0.37646948  0.37681855  1
  Zn  Zn101  1  0.50010242  0.87509322  0.37782061  1
  Zn  Zn102  1  0.24538324  0.38378374  0.11939825  1
  Zn  Zn103  1  0.63206478  0.25503944  0.37798396  1
  Zn  Zn104  1  0.50218091  0.25015401  0.24960290  1
  Zn  Zn105  1  0.87719251  0.62140499  0.24835420  1
  Zn  Zn106  1  0.61957936  0.24432235  0.86794189  1
  Zn  Zn107  1  0.18689114  0.18955964  0.18634453  1
  Zn  Zn108  1  0.19252971  0.19020066  0.68491838  1
  Zn  Zn109  1  0.18388183  0.68717951  0.18643961  1
  Zn  Zn110  1  0.19255344  0.68265141  0.68908977  1
  Zn  Zn111  1  0.68549292  0.19322662  0.18925080  1
  Zn  Zn112  1  0.68713373  0.19490290  0.68707914  1
  Zn  Zn113  1  0.68462154  0.68687729  0.18718659  1
  Zn  Zn114  1  0.69314557  0.68827119  0.68705057  1
  Zn  Zn115  1  0.31246276  0.31700017  0.30998856  1
  Zn  Zn116  1  0.30903020  0.31302342  0.81089890  1
  Zn  Zn117  1  0.31308210  0.81404293  0.31488670  1
  Zn  Zn118  1  0.30547836  0.81583147  0.81631196  1
  Zn  Zn119  1  0.81308994  0.31324530  0.30737430  1
  Zn  Zn120  1  0.81115460  0.30733441  0.81014975  1
  Zn  Zn121  1  0.81336254  0.81282567  0.31336749  1
  Zn  Zn122  1  0.82875533  0.79999214  0.81788880  1
  Zn  Zn123  1  0.18569071  0.43985454  0.43600607  1
  Zn  Zn124  1  0.18730442  0.43684462  0.93349313  1
  Zn  Zn125  1  0.18927362  0.94181860  0.43880547  1
  Zn  Zn126  1  0.19131613  0.93653210  0.93236652  1
  Zn  Zn127  1  0.69006895  0.43731515  0.43778308  1
  Zn  Zn128  1  0.67884294  0.43452287  0.93984966  1
  Zn  Zn129  1  0.68904788  0.94147239  0.43872875  1
  Zn  Zn130  1  0.69098676  0.93446324  0.93590594  1
  Zn  Zn131  1  0.31162392  0.06046311  0.06100970  1
  Zn  Zn132  1  0.31345492  0.06364336  0.56739506  1
  Zn  Zn133  1  0.31157597  0.56766756  0.05633146  1
  Zn  Zn134  1  0.31080364  0.55753156  0.56261868  1
  Zn  Zn135  1  0.81270034  0.06027276  0.06130085  1
  Zn  Zn136  1  0.81433843  0.05869560  0.56115733  1
  Zn  Zn137  1  0.81693802  0.55927664  0.05770543  1
  Zn  Zn138  1  0.81209830  0.56306916  0.55774507  1
  Zn  Zn139  1  0.43541851  0.43768057  0.18501565  1
  Zn  Zn140  1  0.43986066  0.43977221  0.68897853  1
  Zn  Zn141  1  0.43780249  0.93531988  0.18822738  1
  Zn  Zn142  1  0.43925328  0.93772292  0.69156751  1
  Zn  Zn143  1  0.93569958  0.43721047  0.18610770  1
  Zn  Zn144  1  0.93394257  0.44039233  0.68798251  1
  Zn  Zn145  1  0.93730159  0.94093743  0.18636374  1
  Zn  Zn146  1  0.93967497  0.93753991  0.68687450  1
  Zn  Zn147  1  0.06401009  0.06243144  0.31472003  1
  Zn  Zn148  1  0.05646753  0.05900441  0.81216658  1
  Zn  Zn149  1  0.06543709  0.56256086  0.31395681  1
  Zn  Zn150  1  0.05475425  0.56412424  0.80899459  1
  Zn  Zn151  1  0.56202593  0.06373472  0.31620390  1
  Zn  Zn152  1  0.56003479  0.05861774  0.81451707  1
  Zn  Zn153  1  0.56281976  0.56218902  0.31245716  1
  Zn  Zn154  1  0.56083072  0.56291197  0.81530592  1
  Zn  Zn155  1  0.43803105  0.18826541  0.44315161  1
  Zn  Zn156  1  0.43564539  0.18386589  0.93732086  1
  Zn  Zn157  1  0.43833170  0.68672013  0.44166617  1
  Zn  Zn158  1  0.43823122  0.69128976  0.93764353  1
  Zn  Zn159  1  0.93926042  0.18863608  0.43487968  1
  Zn  Zn160  1  0.93847395  0.18714781  0.93560331  1
  Zn  Zn161  1  0.93766598  0.68857218  0.43833596  1
  Zn  Zn162  1  0.94059693  0.68417728  0.93532563  1
  Zn  Zn163  1  0.06149755  0.31086662  0.06083360  1
  Zn  Zn164  1  0.05792082  0.31563480  0.56286055  1
  Zn  Zn165  1  0.06192446  0.80992658  0.06357735  1
  Zn  Zn166  1  0.06912468  0.81097976  0.56392047  1
  Zn  Zn167  1  0.56274095  0.30980790  0.05858474  1
  Zn  Zn168  1  0.56351053  0.31554163  0.56585183  1
  Zn  Zn169  1  0.56109505  0.80953296  0.06449487  1
  Zn  Zn170  1  0.56303071  0.81294987  0.56959739  1
  O  O171  1  0.11836698  0.12054446  0.11586319  1
  O  O172  1  0.11406503  0.13414307  0.61769360  1
  O  O173  1  0.11425949  0.63108743  0.10941527  1
  O  O174  1  0.13598976  0.61022885  0.61634232  1
  O  O175  1  0.62070499  0.12056988  0.12121828  1
  O  O176  1  0.62772597  0.12322909  0.61862802  1
  O  O177  1  0.61042591  0.63470222  0.11361427  1
  O  O178  1  0.61690942  0.62476047  0.62446622  1
  O  O179  1  0.38017355  0.38283655  0.38269587  1
  O  O180  1  0.38086843  0.36696383  0.88698679  1
  O  O181  1  0.37513314  0.88318022  0.38820495  1
  O  O182  1  0.36488741  0.88156165  0.88948370  1
  O  O183  1  0.87266114  0.38217238  0.38041835  1
  O  O184  1  0.87929443  0.38167541  0.88050889  1
  O  O185  1  0.88425978  0.87551257  0.38385832  1
  O  O186  1  0.85578610  0.89153607  0.88510866  1
  O  O187  1  0.25640554  0.01040966  0.37097731  1
  O  O188  1  0.26092631  -0.00317172  0.85935169  1
  O  O189  1  0.25797828  0.50792060  0.36896621  1
  O  O190  1  0.24467966  0.50306067  0.86075229  1
  O  O191  1  0.75212024  0.01113337  0.36753569  1
  O  O192  1  0.75847492  0.01518249  0.88161664  1
  O  O193  1  0.75851483  0.50877836  0.37420824  1
  O  O194  1  0.75991153  0.49215670  0.88169125  1
  O  O195  1  0.26017853  0.50433100  0.13960184  1
  O  O196  1  0.24543634  0.49465221  0.63757496  1
  O  O197  1  0.24575134  0.99170436  0.13129216  1
  O  O198  1  0.25568894  0.99090970  0.63925357  1
  O  O199  1  0.75276757  0.48523195  0.12043085  1
  O  O200  1  0.75020720  0.48762320  0.61937661  1
  O  O201  1  0.74421567  0.99470146  0.13055333  1
  O  O202  1  0.75415918  0.98330467  0.62402260  1
  O  O203  1  0.00559145  0.36737986  0.24712382  1
  O  O204  1  -0.00689022  0.37281678  0.76246704  1
  O  O205  1  0.00479707  0.87790820  0.25912392  1
  O  O206  1  0.02079593  0.88290872  0.74559185  1
  O  O207  1  0.50491186  0.37668732  0.25776910  1
  O  O208  1  0.50277865  0.37929576  0.76358776  1
  O  O209  1  0.50575825  0.86433780  0.25301739  1
  O  O210  1  0.51226279  0.85800172  0.73892209  1
  O  O211  1  0.49270493  0.12810991  0.24527933  1
  O  O212  1  0.48740820  0.11893177  0.74705598  1
  O  O213  1  0.50506195  0.63411928  0.24113640  1
  O  O214  1  0.50207101  0.63402335  0.74082450  1
  O  O215  1  0.99519089  0.12960984  0.24362807  1
  O  O216  1  0.99114350  0.12437962  0.73982129  1
  O  O217  1  1.00066958  0.62514349  0.23874975  1
  O  O218  1  0.97507429  0.61420478  0.74592890  1
  O  O219  1  0.36608374  0.25385191  0.00534463  1
  O  O220  1  0.37777170  0.26373799  0.50988855  1
  O  O221  1  0.37988636  0.75982426  0.01246215  1
  O  O222  1  0.36740427  0.76159989  0.49476981  1
  O  O223  1  0.86590224  0.25961632  -0.00860898  1
  O  O224  1  0.88193156  0.25782253  0.50841395  1
  O  O225  1  0.86592891  0.75293405  0.01131358  1
  O  O226  1  0.87688155  0.76126358  0.50731709  1
  O  O227  1  0.11697211  0.23843841  0.49597100  1
  O  O228  1  0.13074040  0.24266643  0.99389090  1
  O  O229  1  0.13810571  0.74189787  0.49932503  1
  O  O230  1  0.11942879  0.73921008  0.99298343  1
  O  O231  1  0.61892741  0.23702792  0.49923518  1
  O  O232  1  0.63538351  0.24135080  0.99619570  1
  O  O233  1  0.62420432  0.75210695  0.48731105  1
  O  O234  1  0.62953382  0.74488552  0.99416503  1
  O  O235  1  0.48768529  0.24345419  0.12222039  1
  O  O236  1  0.48512299  0.25463788  0.62657320  1
  O  O237  1  0.49167317  0.74280739  0.13328933  1
  O  O238  1  0.50176904  0.73792963  0.63565642  1
  O  O239  1  1.00565287  0.23752717  0.13461590  1
  O  O240  1  0.99050584  0.24142612  0.62690594  1
  O  O241  1  0.99078369  0.73973122  0.12393401  1
  O  O242  1  0.98918071  0.75373509  0.62101560  1
  O  O243  1  0.00272664  0.25135683  0.35993040  1
  O  O244  1  0.00534727  0.25776260  0.87345534  1
  O  O245  1  0.00293012  0.76350011  0.37454323  1
  O  O246  1  -0.05789283  0.76909608  0.86663835  1
  O  O247  1  0.49597975  0.26551078  0.37487827  1
  O  O248  1  0.50159138  0.26171202  0.88435388  1
  O  O249  1  0.50671321  0.74844266  0.36811544  1
  O  O250  1  0.50830248  0.74406319  0.86083869  1
  O  O251  1  0.24029275  0.11812991  0.49376553  1
  O  O252  1  0.23891590  0.13392582  1.00450293  1
  O  O253  1  0.24689372  0.63070236  0.49402774  1
  O  O254  1  0.23199269  0.61518301  0.98635053  1
  O  O255  1  0.74310998  0.11675437  0.49038794  1
  O  O256  1  0.74715956  0.13085768  0.99465003  1
  O  O257  1  0.74656156  0.62920016  0.48635534  1
  O  O258  1  0.73885583  0.63308336  1.01171645  1
  O  O259  1  0.25622978  0.36890721  0.00118247  1
  O  O260  1  0.26238834  0.38852434  0.51018102  1
  O  O261  1  0.25618884  0.87940249  0.01372264  1
  O  O262  1  0.25519458  0.87093254  0.50705407  1
  O  O263  1  0.75359027  0.36680697  0.00325930  1
  O  O264  1  0.76203165  0.37623089  0.50747274  1
  O  O265  1  0.75798433  0.86432922  0.00675789  1
  O  O266  1  0.76354351  0.87633164  0.50475299  1
  O  O267  1  0.13540958  0.49179125  0.25363029  1
  O  O268  1  0.12763308  0.50456974  0.73630834  1
  O  O269  1  0.13087400  0.99589949  0.24398354  1
  O  O270  1  0.14001514  1.00247200  0.75489422  1
  O  O271  1  0.62729114  0.48612367  0.25412621  1
  O  O272  1  0.62028878  0.48414504  0.75530499  1
  O  O273  1  0.62944819  0.99558208  0.24552602  1
  O  O274  1  0.61831516  0.98151790  0.75172827  1
  O  O275  1  0.37097420  0.00552740  0.25661256  1
  O  O276  1  0.36913062  0.00506368  0.75634313  1
  O  O277  1  0.36697416  0.49275998  0.26342761  1
  O  O278  1  0.36508821  0.50269407  0.75095276  1
  O  O279  1  0.86892603  0.01130676  0.25041448  1
  O  O280  1  0.87819188  0.01116925  0.75619847  1
  O  O281  1  0.86952404  0.49948230  0.25924066  1
  O  O282  1  0.87130927  0.50206978  0.76396809  1
  O  O283  1  0.12330400  0.37471404  0.36333364  1
  O  O284  1  0.11262800  0.36336502  0.88236281  1
  O  O285  1  0.11832001  0.87662230  0.37133319  1
  O  O286  1  0.12722796  0.87476636  0.85951391  1
  O  O287  1  0.61664904  0.37479057  0.36995788  1
  O  O288  1  0.61515890  0.37054038  0.87013595  1
  O  O289  1  0.62556976  0.86655718  0.37016123  1
  O  O290  1  0.63149910  0.86105292  0.86883137  1
  O  O291  1  0.37771083  0.13146755  0.12906689  1
  O  O292  1  0.37688588  0.13617054  0.63195910  1
  O  O293  1  0.38372665  0.63711111  0.11629904  1
  O  O294  1  0.38869814  0.62149963  0.62182193  1
  O  O295  1  0.88516687  0.11905661  0.13277809  1
  O  O296  1  0.87998429  0.13066246  0.62785168  1
  O  O297  1  0.88402527  0.63175443  0.12252225  1
  O  O298  1  0.87721441  0.63767380  0.61591692  1
  O  O299  1  0.25864248  0.25101744  0.11425916  1
  O  O300  1  0.25977928  0.26579399  0.62945239  1
  O  O301  1  0.25934731  0.75904190  0.13357830  1
  O  O302  1  0.25076494  0.75770209  0.61517606  1
  O  O303  1  0.74864430  0.25799725  0.11203913  1
  O  O304  1  0.76320165  0.25976169  0.62495010  1
  O  O305  1  0.75614329  0.75406829  0.11952620  1
  O  O306  1  0.76092289  0.76153830  0.61948867  1
  O  O307  1  0.25281810  0.23750011  0.37137420  1
  O  O308  1  0.23946527  0.25651548  0.88706675  1
  O  O309  1  0.25175457  0.74188327  0.38398929  1
  O  O310  1  0.24814263  0.73151507  0.86665775  1
  O  O311  1  0.75246798  0.23688296  0.37096165  1
  O  O312  1  0.74964094  0.23763692  0.88419551  1
  O  O313  1  0.74205802  0.74305434  0.37425869  1
  O  O314  1  0.74453679  0.74837285  0.88960365  1
  O  O315  1  0.00641285  0.12498008  0.00851611  1
  O  O316  1  0.00612288  0.11861423  0.50459326  1
  O  O317  1  0.00799943  0.61762599  0.00123642  1
  O  O318  1  0.01697685  0.62542334  0.49338177  1
  O  O319  1  0.50712745  0.12078216  0.00641620  1
  O  O320  1  0.50926894  0.11807518  0.50349992  1
  O  O321  1  0.50468681  0.61891362  0.00542809  1
  O  O322  1  0.50172121  0.61923320  0.51156037  1
  O  O323  1  0.49327258  0.38326350  0.49423484  1
  O  O324  1  0.49375382  0.38189100  0.99465170  1
  O  O325  1  0.49350240  0.88180916  0.50227043  1
  O  O326  1  0.48631915  0.87791222  1.00906352  1
  O  O327  1  0.98590759  0.37896391  0.49691283  1
  O  O328  1  0.99164530  0.37790341  0.99398557  1
  O  O329  1  0.99854064  0.88167906  0.49563421  1
  O  O330  1  0.98757609  0.87350148  0.99771211  1
  O  O331  1  0.49306137  0.49400624  0.38124237  1
  O  O332  1  0.49878661  0.49195834  0.88887083  1
  O  O333  1  0.49516196  0.99927117  0.38802777  1
  O  O334  1  0.48411273  0.99693347  0.87656061  1
  O  O335  1  0.98722531  0.50011482  0.37511719  1
  O  O336  1  0.99361315  0.48964646  0.88192083  1
  O  O337  1  0.99908081  0.99128249  0.38386761  1
  O  O338  1  0.98556957  0.99339396  0.87699581  1
  O  O339  1  0.00758195  0.01006361  0.12261733  1
  O  O340  1  -0.00535416  0.01317673  0.61529782  1
  O  O341  1  -0.00975012  0.50983214  0.11231742  1
  O  O342  1  0.01440526  0.49401571  0.62439660  1
  O  O343  1  0.50650738  0.00590782  0.12553720  1
  O  O344  1  0.50328485  0.00124145  0.61507767  1
  O  O345  1  0.49113423  0.51173794  0.11566269  1
  O  O346  1  0.50297357  0.51066682  0.62014837  1
  O  O347  1  0.24265894  0.38415149  0.24636334  1
  O  O348  1  0.25332967  0.38880452  0.74175902  1
  O  O349  1  0.24560438  0.88125412  0.24309082  1
  O  O350  1  0.24188050  0.88297487  0.74408745  1
  O  O351  1  0.74276077  0.37400844  0.23832654  1
  O  O352  1  0.74368837  0.37139828  0.74040499  1
  O  O353  1  0.74557918  0.88092769  0.24583794  1
  O  O354  1  0.74506546  0.86352887  0.74505172  1
  O  O355  1  0.25462270  0.12037610  0.25728624  1
  O  O356  1  0.25973302  0.11260041  0.74251021  1
  O  O357  1  0.24213868  0.61848128  0.26183954  1
  O  O358  1  0.24716498  0.61217429  0.76214568  1
  O  O359  1  0.75699432  0.12336575  0.25409248  1
  O  O360  1  0.75900004  0.13138821  0.75826671  1
  O  O361  1  0.75086045  0.62324878  0.25905604  1
  O  O362  1  0.77100837  0.62193520  0.73825328  1
  O  O363  1  0.36906794  0.12194764  0.37305890  1
  O  O364  1  0.37478193  0.11616258  0.86625468  1
  O  O365  1  0.36644128  0.61494746  0.38224140  1
  O  O366  1  0.35932897  0.62305840  0.88943327  1
  O  O367  1  0.86968427  0.12301380  0.36594798  1
  O  O368  1  0.87033792  0.11858890  0.86734926  1
  O  O369  1  0.86760381  0.61950160  0.37371853  1
  O  O370  1  0.87169361  0.60901718  0.86948806  1
  O  O371  1  0.12642128  0.37180416  0.13564075  1
  O  O372  1  0.13544561  0.38862069  0.61506257  1
  O  O373  1  0.13126826  0.87882704  0.12805459  1
  O  O374  1  0.13814072  0.87466323  0.63407547  1
  O  O375  1  0.63139273  0.36979585  0.13137132  1
  O  O376  1  0.63355697  0.37815445  0.63186366  1
  O  O377  1  0.63061013  0.87845052  0.13064571  1
  O  O378  1  0.63737902  0.87365223  0.63462466  1
  O  O379  1  0.11860745  0.25840762  0.25144438  1
  O  O380  1  0.12552539  0.24031111  0.76507799  1
  O  O381  1  0.12211696  0.75962452  0.25356117  1
  O  O382  1  0.12833099  0.76074502  0.74467467  1
  O  O383  1  0.62101366  0.26374957  0.25520138  1
  O  O384  1  0.62457671  0.26603906  0.75116562  1
  O  O385  1  0.61637869  0.75467741  0.25820993  1
  O  O386  1  0.62374532  0.75431325  0.75986038  1
  O  O387  1  0.37446969  0.24692762  0.23843157  1
  O  O388  1  0.36680482  0.23883254  0.74486335  1
  O  O389  1  0.38518964  0.75631190  0.24171805  1
  O  O390  1  0.38884639  0.75955024  0.75532925  1
  O  O391  1  0.88444990  0.23856107  0.25032638  1
  O  O392  1  0.87820379  0.23771375  0.74063381  1
  O  O393  1  0.87692728  0.74945911  0.23710140  1
  O  O394  1  0.87343257  0.73512013  0.73331565  1
  O  O395  1  0.38540123  0.49227536  0.49302559  1
  O  O396  1  0.38029717  0.48749558  1.00475925  1
  O  O397  1  0.38295168  0.99481737  0.49880628  1
  O  O398  1  0.37380219  0.99364310  0.99240353  1
  O  O399  1  0.87709564  0.49261532  0.49034824  1
  O  O400  1  0.88249706  0.49136741  0.98657481  1
  O  O401  1  0.88796375  0.98923495  0.49894483  1
  O  O402  1  0.87638434  0.99006974  0.99436586  1
  O  O403  1  0.12587879  0.00726845  0.00261507  1
  O  O404  1  0.11545081  0.01137153  0.49818413  1
  O  O405  1  0.11153129  0.50168207  -0.00324244  1
  O  O406  1  0.12534996  0.50811952  0.50819671  1
  O  O407  1  0.62671595  0.00418289  0.00657828  1
  O  O408  1  0.61810194  0.00932752  0.50245261  1
  O  O409  1  0.61387834  0.51005739  -0.00102079  1
  O  O410  1  0.61138544  0.50072251  0.49806682  1
  O  O411  1  0.37460023  0.36494670  0.11411485  1
  O  O412  1  0.36949545  0.37242451  0.62055480  1
  O  O413  1  0.36702587  0.86918790  0.11973517  1
  O  O414  1  0.36625477  0.88016889  0.61459507  1
  O  O415  1  0.86709001  0.37747389  0.11002105  1
  O  O416  1  0.86984015  0.36945137  0.61939328  1
  O  O417  1  0.87196608  0.86812435  0.11661291  1
  O  O418  1  0.87355430  0.86642382  0.62097155  1
  O  O419  1  0.13403554  0.12715807  0.38214306  1
  O  O420  1  0.11269552  0.13215968  0.88773264  1
  O  O421  1  0.13763402  0.62442474  0.38488196  1
  O  O422  1  0.12085768  0.62274600  0.88411693  1
  O  O423  1  0.63405101  0.12869364  0.38188839  1
  O  O424  1  0.63276640  0.12303759  0.87880525  1
  O  O425  1  0.63192099  0.63373704  0.37516361  1
  O  O426  1  0.61957844  0.63532481  0.88901208  1
