# generated using pymatgen
data_V85Zn86O256
_symmetry_space_group_name_H-M   'P 1'
_cell_length_a   16.97344996
_cell_length_b   16.98507508
_cell_length_c   16.96785782
_cell_angle_alpha   89.99169729
_cell_angle_beta   89.98994469
_cell_angle_gamma   89.81770538
_symmetry_Int_Tables_number   1
_chemical_formula_structural   V85Zn86O256
_chemical_formula_sum   'V85 Zn86 O256'
_cell_volume   4891.72914408
_cell_formula_units_Z   1
loop_
 _symmetry_equiv_pos_site_id
 _symmetry_equiv_pos_as_xyz
  1  'x, y, z'
loop_
 _atom_site_type_symbol
 _atom_site_label
 _atom_site_symmetry_multiplicity
 _atom_site_fract_x
 _atom_site_fract_y
 _atom_site_fract_z
 _atom_site_occupancy
  V  V0  1  0.87387028  0.36741001  0.50891308  1
  V  V1  1  0.75011001  0.25192157  -0.00179473  1
  V  V2  1  0.49716967  -0.00341483  0.50590246  1
  V  V3  1  0.50172097  -0.00063645  -0.00039313  1
  V  V4  1  0.23831777  0.25255635  0.50431013  1
  V  V5  1  0.62590951  -0.00101907  0.12886199  1
  V  V6  1  0.62863508  0.87853378  0.25350136  1
  V  V7  1  0.89203477  0.87639114  0.49512535  1
  V  V8  1  0.75209799  -0.01493995  0.75352670  1
  V  V9  1  0.12794479  0.49289213  0.62470748  1
  V  V10  1  -0.01427445  0.25323961  0.74446828  1
  V  V11  1  0.62632828  0.75165410  0.87076222  1
  V  V12  1  0.38290771  0.12382726  0.74219461  1
  V  V13  1  0.74944045  0.75703046  0.50421867  1
  V  V14  1  0.06643446  0.07184375  0.57359006  1
  V  V15  1  0.49952083  0.75135916  0.74862619  1
  V  V16  1  0.23593298  0.13125691  0.37830787  1
  V  V17  1  0.12297174  0.00257532  0.11273301  1
  V  V18  1  0.37442912  0.62298906  0.25125176  1
  V  V19  1  0.37365116  0.37078336  0.50717680  1
  V  V20  1  0.75066833  0.87814738  0.12807520  1
  V  V21  1  -0.00039852  0.62645505  0.12852693  1
  V  V22  1  0.50140510  0.74936274  0.25028242  1
  V  V23  1  0.37444219  0.12445085  0.25130089  1
  V  V24  1  0.62435469  0.50105856  0.12584624  1
  V  V25  1  0.12888096  0.36973323  0.75570644  1
  V  V26  1  0.24884808  0.87641559  0.61468682  1
  V  V27  1  0.88087016  0.38321159  0.00405971  1
  V  V28  1  0.12290368  0.37158669  0.25315928  1
  V  V29  1  0.88615205  0.87993417  -0.00419620  1
  V  V30  1  0.62516225  0.24588132  0.37668405  1
  V  V31  1  0.62636207  0.37367667  0.25141826  1
  V  V32  1  0.50067593  0.49815240  0.49947928  1
  V  V33  1  0.75044247  0.37568866  0.12806904  1
  V  V34  1  0.25227168  0.49562354  0.74425650  1
  V  V35  1  0.49947529  0.37183646  0.37535792  1
  V  V36  1  0.24628740  0.13018452  0.87538121  1
  V  V37  1  0.62589876  0.12560717  0.00041027  1
  V  V38  1  0.11315092  0.86747071  0.25640366  1
  V  V39  1  0.63121327  0.74454553  0.37403785  1
  V  V40  1  0.00008219  0.36420516  0.37664449  1
  V  V41  1  0.75607667  0.24498077  0.50785045  1
  V  V42  1  0.37256673  0.24936817  0.12363184  1
  V  V43  1  0.63403478  0.62221183  0.49528184  1
  V  V44  1  0.00693535  0.62630137  0.62453748  1
  V  V45  1  0.62501853  0.62591776  0.00088245  1
  V  V46  1  0.00790637  0.37613490  0.88111701  1
  V  V47  1  0.49939857  0.24824762  0.25062018  1
  V  V48  1  0.62448620  -0.01953745  0.63399850  1
  V  V49  1  -0.00201380  0.12129054  0.11820913  1
  V  V50  1  0.61999961  0.37671704  0.75691522  1
  V  V51  1  0.50577075  0.87563741  0.87015298  1
  V  V52  1  0.38061413  0.37455978  -0.00239035  1
  V  V53  1  0.63080146  0.49722948  0.62639947  1
  V  V54  1  0.38171509  0.49652634  0.87527733  1
  V  V55  1  0.49878826  0.12308404  0.12561141  1
  V  V56  1  0.88167277  0.62780147  0.75017204  1
  V  V57  1  0.86872800  0.11713497  0.24988045  1
  V  V58  1  0.37573923  -0.00121216  0.87430618  1
  V  V59  1  0.11961790  0.62338499  -0.00110981  1
  V  V60  1  0.87110828  0.62442219  0.25496000  1
  V  V61  1  0.86813095  0.49916605  0.37597245  1
  V  V62  1  0.00479104  0.49917947  0.50107259  1
  V  V63  1  -0.00075470  0.24618354  0.25138062  1
  V  V64  1  0.11872609  0.49827506  0.12079990  1
  V  V65  1  0.11932382  0.75949566  0.86477894  1
  V  V66  1  0.24838401  0.00092888  0.25109994  1
  V  V67  1  0.24648423  -0.00888192  0.74559834  1
  V  V68  1  0.49894734  0.62554387  0.62371808  1
  V  V69  1  0.24907287  0.87595164  0.12152314  1
  V  V70  1  0.75017300  0.11383797  0.37335592  1
  V  V71  1  0.24680077  0.74906183  0.49574403  1
  V  V72  1  0.62153926  0.12272877  0.51219773  1
  V  V73  1  0.87444719  0.75137167  0.62574999  1
  V  V74  1  0.37410201  -0.00533992  0.38155937  1
  V  V75  1  0.88338098  0.50338202  0.87955412  1
  V  V76  1  0.75263057  0.62472805  0.87462631  1
  V  V77  1  0.37466426  0.49848747  0.37421437  1
  V  V78  1  0.88018471  0.75095412  0.13074886  1
  V  V79  1  0.37315166  0.75021436  0.12447945  1
  V  V80  1  0.61564590  0.25339053  0.87755332  1
  V  V81  1  0.25127873  0.62588387  0.87477225  1
  V  V82  1  0.23423106  0.62761994  0.37806038  1
  V  V83  1  0.50201607  0.24728963  0.74153772  1
  V  V84  1  0.24928063  0.37398002  0.12603326  1
  Zn  Zn85  1  0.24935020  0.75127269  -0.00229235  1
  Zn  Zn86  1  -0.00801052  0.87766353  0.84899328  1
  Zn  Zn87  1  0.74630877  0.50303128  0.25820619  1
  Zn  Zn88  1  0.75273005  0.75222497  -0.00067684  1
  Zn  Zn89  1  0.37553370  0.62370961  0.74756780  1
  Zn  Zn90  1  0.49326495  0.87064684  0.38042871  1
  Zn  Zn91  1  0.87024989  0.12618156  0.74435764  1
  Zn  Zn92  1  0.06452869  0.80320658  0.42503756  1
  Zn  Zn93  1  -0.05730064  0.04142283  -0.07612478  1
  Zn  Zn94  1  0.10967692  0.13572624  -0.01469226  1
  Zn  Zn95  1  0.75353112  0.49702674  0.75123434  1
  Zn  Zn96  1  0.37677926  0.87323653  0.00033621  1
  Zn  Zn97  1  0.24577446  0.49936380  0.25194653  1
  Zn  Zn98  1  0.88476973  -0.01502223  0.36885067  1
  Zn  Zn99  1  0.76033268  0.11619022  0.87634060  1
  Zn  Zn100  1  0.38180843  0.76000653  0.60767783  1
  Zn  Zn101  1  0.49738309  0.62377384  0.12214343  1
  Zn  Zn102  1  0.50410782  0.49544709  -0.00611043  1
  Zn  Zn103  1  0.75612562  0.36465696  0.63321558  1
  Zn  Zn104  1  0.24321258  0.25328717  -0.00688715  1
  Zn  Zn105  1  0.37740351  0.24604900  0.62140145  1
  Zn  Zn106  1  0.87433953  0.24960192  0.12476525  1
  Zn  Zn107  1  0.18535661  0.18705956  0.18522209  1
  Zn  Zn108  1  0.19534190  0.19075289  0.69210144  1
  Zn  Zn109  1  0.18713544  0.68736940  0.19072982  1
  Zn  Zn110  1  0.19317888  0.68593902  0.68314960  1
  Zn  Zn111  1  0.68756828  0.18729520  0.18719814  1
  Zn  Zn112  1  0.69130229  0.18055997  0.69196690  1
  Zn  Zn113  1  0.69274297  0.68981639  0.18662312  1
  Zn  Zn114  1  0.69093811  0.68592982  0.68831148  1
  Zn  Zn115  1  0.31090751  0.31104720  0.31451975  1
  Zn  Zn116  1  0.31767336  0.31277805  0.81049125  1
  Zn  Zn117  1  0.30529808  0.81194130  0.31028411  1
  Zn  Zn118  1  0.31629746  0.81083154  0.81159416  1
  Zn  Zn119  1  0.81337766  0.30578562  0.31765268  1
  Zn  Zn120  1  0.80933714  0.31909953  0.81860088  1
  Zn  Zn121  1  0.81311397  0.80722465  0.31467702  1
  Zn  Zn122  1  0.81418301  0.81126606  0.81137267  1
  Zn  Zn123  1  0.18803813  0.43522273  0.43648886  1
  Zn  Zn124  1  0.19377321  0.43975847  0.93881935  1
  Zn  Zn125  1  0.17961425  0.94680423  0.44244374  1
  Zn  Zn126  1  0.13743007  0.97528266  0.89646020  1
  Zn  Zn127  1  0.68826483  0.43080431  0.44103136  1
  Zn  Zn128  1  0.69222848  0.43903726  0.93760898  1
  Zn  Zn129  1  0.68590331  0.93698630  0.44061859  1
  Zn  Zn130  1  0.69207281  0.93551562  0.94056747  1
  Zn  Zn131  1  0.31108903  0.06073909  0.05992141  1
  Zn  Zn132  1  0.30668961  0.06423032  0.56060879  1
  Zn  Zn133  1  0.30758162  0.55885474  0.06175224  1
  Zn  Zn134  1  0.31200409  0.56383602  0.55724571  1
  Zn  Zn135  1  0.81092434  0.06087137  0.06390443  1
  Zn  Zn136  1  0.81027450  0.05662406  0.57023403  1
  Zn  Zn137  1  0.80997070  0.56390136  0.06511421  1
  Zn  Zn138  1  0.81724011  0.56084125  0.56178952  1
  Zn  Zn139  1  0.43841095  0.43650947  0.18588180  1
  Zn  Zn140  1  0.44123826  0.43690210  0.68869225  1
  Zn  Zn141  1  0.43838814  0.93638703  0.19273718  1
  Zn  Zn142  1  0.43546945  0.93601727  0.68333228  1
  Zn  Zn143  1  0.93826683  0.44026873  0.18912598  1
  Zn  Zn144  1  0.94206673  0.43797827  0.69105687  1
  Zn  Zn145  1  0.93854202  0.93942585  0.18314354  1
  Zn  Zn146  1  0.92849564  0.94203035  0.67395640  1
  Zn  Zn147  1  0.05960764  0.05060542  0.30590423  1
  Zn  Zn148  1  0.04001557  0.04474729  0.75931560  1
  Zn  Zn149  1  0.05337689  0.55934362  0.31151492  1
  Zn  Zn150  1  0.06559481  0.56272319  0.81137006  1
  Zn  Zn151  1  0.56034756  0.06046492  0.31793111  1
  Zn  Zn152  1  0.56855535  0.06586205  0.81293514  1
  Zn  Zn153  1  0.56016870  0.56177366  0.31210631  1
  Zn  Zn154  1  0.56398670  0.56554224  0.81086610  1
  Zn  Zn155  1  0.43567724  0.18129117  0.43867642  1
  Zn  Zn156  1  0.43505391  0.18706253  0.93604522  1
  Zn  Zn157  1  0.43681924  0.68797466  0.43559851  1
  Zn  Zn158  1  0.43833801  0.68545412  0.93761006  1
  Zn  Zn159  1  0.95821269  0.13454937  0.42676934  1
  Zn  Zn160  1  0.93422325  0.20223202  0.92965717  1
  Zn  Zn161  1  0.93697277  0.68396030  0.43836874  1
  Zn  Zn162  1  0.94108818  0.69346951  0.94094648  1
  Zn  Zn163  1  0.06402893  0.30711102  0.06375302  1
  Zn  Zn164  1  0.03286121  0.26369594  0.54112094  1
  Zn  Zn165  1  0.06688669  0.80949144  0.06233798  1
  Zn  Zn166  1  0.06182309  0.81256762  0.68136998  1
  Zn  Zn167  1  0.56136368  0.31272239  0.06526937  1
  Zn  Zn168  1  0.56645467  0.31169275  0.56346950  1
  Zn  Zn169  1  0.56125944  0.81229688  0.06161397  1
  Zn  Zn170  1  0.56290964  0.81241587  0.55928927  1
  O  O171  1  0.11397738  0.11738304  0.12674551  1
  O  O172  1  0.13264617  0.12231814  0.62831744  1
  O  O173  1  0.11944357  0.61969139  0.12134739  1
  O  O174  1  0.11418078  0.61329313  0.63290089  1
  O  O175  1  0.61901723  0.11954981  0.12098649  1
  O  O176  1  0.62588263  0.12032660  0.61389450  1
  O  O177  1  0.62687968  0.61879844  0.11778550  1
  O  O178  1  0.61770126  0.61766017  0.61797726  1
  O  O179  1  0.38147333  0.37896089  0.38102540  1
  O  O180  1  0.36799763  0.38534882  0.88559880  1
  O  O181  1  0.37051081  0.89071628  0.36706612  1
  O  O182  1  0.38547052  0.88293211  0.87688917  1
  O  O183  1  0.88328289  0.37914992  0.38199241  1
  O  O184  1  0.88266505  0.38616223  0.88477969  1
  O  O185  1  0.86707505  0.87172520  0.38966970  1
  O  O186  1  0.87933174  0.86345432  0.89258452  1
  O  O187  1  0.25487835  0.01342815  0.37442164  1
  O  O188  1  0.26225964  0.00570710  0.86410095  1
  O  O189  1  0.25539392  0.51060563  0.37435349  1
  O  O190  1  0.25872715  0.50933963  0.86685238  1
  O  O191  1  0.75367811  0.01126118  0.38163408  1
  O  O192  1  0.73637013  0.00020674  0.85985358  1
  O  O193  1  0.76326067  0.49102320  0.37784187  1
  O  O194  1  0.76386175  0.50691334  0.87503619  1
  O  O195  1  0.23782061  0.49343875  0.13007406  1
  O  O196  1  0.24330783  0.51129951  0.63495989  1
  O  O197  1  0.24423039  0.99548118  0.12979516  1
  O  O198  1  0.25756975  0.98959058  0.63564079  1
  O  O199  1  0.73802882  0.49426561  0.12714610  1
  O  O200  1  0.73767479  0.50159236  0.62566312  1
  O  O201  1  0.74194311  0.98736215  0.12220226  1
  O  O202  1  0.73132784  0.99843214  0.63668792  1
  O  O203  1  0.00233619  0.36667812  0.25607280  1
  O  O204  1  0.00949440  0.37430267  0.76208680  1
  O  O205  1  0.01405975  0.88161561  0.24588990  1
  O  O206  1  -0.01405429  0.86932562  0.73817323  1
  O  O207  1  0.50561050  0.36817924  0.25516621  1
  O  O208  1  0.51212640  0.36596630  0.74861375  1
  O  O209  1  0.51151556  0.86643157  0.25216105  1
  O  O210  1  0.49691933  0.86586835  0.76147417  1
  O  O211  1  0.49542327  0.12875002  0.24516270  1
  O  O212  1  0.49329253  0.13538703  0.75753863  1
  O  O213  1  0.49003304  0.63007186  0.24722999  1
  O  O214  1  0.50095563  0.63189887  0.73930340  1
  O  O215  1  0.99131306  0.13209182  0.24119270  1
  O  O216  1  1.00034934  0.15266063  0.75764490  1
  O  O217  1  0.98672053  0.61790842  0.23721185  1
  O  O218  1  0.98987639  0.61708596  0.74075349  1
  O  O219  1  0.37204690  0.25791155  0.00467566  1
  O  O220  1  0.37338423  0.25649146  0.50055805  1
  O  O221  1  0.37394948  0.74952959  0.01200676  1
  O  O222  1  0.36130343  0.74724621  0.49417994  1
  O  O223  1  0.86488284  0.26419794  0.00125948  1
  O  O224  1  0.86493039  0.25996439  0.49639328  1
  O  O225  1  0.87409305  0.75836321  0.01298118  1
  O  O226  1  0.86679286  0.75257815  0.50524413  1
  O  O227  1  0.14053061  0.26253832  0.50010070  1
  O  O228  1  0.13121110  0.24462909  1.00195187  1
  O  O229  1  0.14625918  0.75736034  0.49184405  1
  O  O230  1  0.12965650  0.73907411  0.99106303  1
  O  O231  1  0.62944994  0.24082112  0.49514191  1
  O  O232  1  0.62986614  0.24836002  0.99589642  1
  O  O233  1  0.63002310  0.74079817  0.49452802  1
  O  O234  1  0.62477906  0.74086902  0.99099104  1
  O  O235  1  0.49401636  0.24271959  0.13095019  1
  O  O236  1  0.50180874  0.25051070  0.63773430  1
  O  O237  1  0.48999742  0.74805287  0.13062555  1
  O  O238  1  0.50247474  0.74280500  0.63045685  1
  O  O239  1  0.99627502  0.23950357  0.13349577  1
  O  O240  1  1.00048726  0.27099070  0.64742388  1
  O  O241  1  0.99173516  0.73875179  0.12229755  1
  O  O242  1  0.99085764  0.73412229  0.62233196  1
  O  O243  1  -0.00397303  0.25648948  0.36453536  1
  O  O244  1  0.00028470  0.27096691  0.86598611  1
  O  O245  1  0.00157519  0.73529010  0.36741370  1
  O  O246  1  0.01594217  0.75448756  0.87715848  1
  O  O247  1  0.50488237  0.25175817  0.36962016  1
  O  O248  1  0.51060297  0.24938069  0.86885734  1
  O  O249  1  0.51168937  0.75149191  0.37030733  1
  O  O250  1  0.50644869  0.75489590  0.86894885  1
  O  O251  1  0.25124309  0.13685347  0.48730577  1
  O  O252  1  0.25863071  0.12543188  0.98143670  1
  O  O253  1  0.25012460  0.62884317  0.48424576  1
  O  O254  1  0.24068473  0.62508546  0.99059634  1
  O  O255  1  0.74184882  0.12840835  0.49315067  1
  O  O256  1  0.74528796  0.13544948  1.00057382  1
  O  O257  1  0.73824114  0.62915576  0.50417675  1
  O  O258  1  0.74022172  0.62761681  0.99468752  1
  O  O259  1  0.26092211  0.37476295  0.00756468  1
  O  O260  1  0.26167490  0.36107239  0.48733630  1
  O  O261  1  0.25539027  0.87236663  0.01759663  1
  O  O262  1  0.24852836  0.87548331  0.51002722  1
  O  O263  1  0.75797622  0.37030796  0.00679803  1
  O  O264  1  0.75676921  0.36340381  0.50370004  1
  O  O265  1  0.76033525  0.87232172  0.01088181  1
  O  O266  1  0.74711726  0.85834267  0.50136227  1
  O  O267  1  0.12133112  0.48816542  0.24064193  1
  O  O268  1  0.13517963  0.49578697  0.74609403  1
  O  O269  1  0.13099567  0.99209246  0.23728587  1
  O  O270  1  0.14827574  1.00097454  0.75619979  1
  O  O271  1  0.62630126  0.49435195  0.24393370  1
  O  O272  1  0.62505647  0.49340784  0.74400700  1
  O  O273  1  0.61738180  0.98668244  0.24573403  1
  O  O274  1  0.62562691  1.00049817  0.73837829  1
  O  O275  1  0.36871569  0.00595191  0.25704552  1
  O  O276  1  0.37513424  0.00648069  0.75820908  1
  O  O277  1  0.37402484  0.50753873  0.25340134  1
  O  O278  1  0.36923880  0.49902654  0.75609727  1
  O  O279  1  0.87686895  0.01311837  0.24949321  1
  O  O280  1  0.85492268  -0.00098382  0.74357274  1
  O  O281  1  0.87253656  0.50409445  0.25921950  1
  O  O282  1  0.87454843  0.50808141  0.76064509  1
  O  O283  1  0.11220585  0.38160029  0.36365396  1
  O  O284  1  0.11692331  0.38989422  0.86969527  1
  O  O285  1  0.12822300  0.88146602  0.36127459  1
  O  O286  1  0.13246335  0.85853407  0.87866433  1
  O  O287  1  0.61882480  0.36739091  0.37166390  1
  O  O288  1  0.62967145  0.36808022  0.86816915  1
  O  O289  1  0.62649032  0.86508612  0.36666879  1
  O  O290  1  0.61603726  0.86246243  0.88338980  1
  O  O291  1  0.37918712  0.12810028  0.13038874  1
  O  O292  1  0.37082048  0.12314937  0.63915789  1
  O  O293  1  0.37150463  0.63097831  0.13402577  1
  O  O294  1  0.39164886  0.62257606  0.62220267  1
  O  O295  1  0.88016012  0.12542881  0.13139259  1
  O  O296  1  0.86947899  0.12679764  0.63058681  1
  O  O297  1  0.88124232  0.63073655  0.12888232  1
  O  O298  1  0.88345297  0.62716464  0.63192580  1
  O  O299  1  0.25769088  0.25626760  0.12649057  1
  O  O300  1  0.25652548  0.24456985  0.60710864  1
  O  O301  1  0.25934464  0.75643828  0.12721815  1
  O  O302  1  0.25694932  0.75456551  0.61577861  1
  O  O303  1  0.74838417  0.25669578  0.11335980  1
  O  O304  1  0.73984307  0.24887784  0.61158805  1
  O  O305  1  0.75952569  0.76029357  0.12210903  1
  O  O306  1  0.76241838  0.73957408  0.61649057  1
  O  O307  1  0.25347167  0.23706298  0.38184209  1
  O  O308  1  0.25727799  0.23332755  0.86917725  1
  O  O309  1  0.25324773  0.73307380  0.37525347  1
  O  O310  1  0.24519159  0.73929173  0.87359252  1
  O  O311  1  0.74243393  0.24145833  0.38652385  1
  O  O312  1  0.74078444  0.25323085  0.88894140  1
  O  O313  1  0.73730857  0.74691328  0.38400778  1
  O  O314  1  0.74079807  0.74389973  0.87565913  1
  O  O315  1  -0.00778253  0.12752395  0.00685190  1
  O  O316  1  0.01305736  0.14945847  0.52189875  1
  O  O317  1  0.01136531  0.62756566  0.01038827  1
  O  O318  1  -0.00809212  0.60665674  0.51083040  1
  O  O319  1  0.50498088  0.11972215  0.00594054  1
  O  O320  1  0.51208097  0.11149339  0.49268588  1
  O  O321  1  0.51324046  0.62152816  0.00133301  1
  O  O322  1  0.51044463  0.61914686  0.50612975  1
  O  O323  1  0.49495885  0.37812752  0.49447656  1
  O  O324  1  0.48588083  0.37666849  1.00583180  1
  O  O325  1  0.50488567  0.88920254  0.49671106  1
  O  O326  1  0.49873306  0.88068107  0.98988808  1
  O  O327  1  0.99186819  0.37170771  0.49250118  1
  O  O328  1  0.98888829  0.37027882  0.99646637  1
  O  O329  1  0.99078016  0.86936514  0.49354013  1
  O  O330  1  0.98633715  0.87322005  1.00770876  1
  O  O331  1  0.49536733  0.49236895  0.38037070  1
  O  O332  1  0.48592333  0.50725097  0.87336319  1
  O  O333  1  0.49061738  0.99590373  0.38341608  1
  O  O334  1  0.49683320  0.99318460  0.87757717  1
  O  O335  1  0.99189165  0.48761368  0.38370650  1
  O  O336  1  0.99023437  0.49475376  0.87383469  1
  O  O337  1  0.98683754  1.03063023  0.38592810  1
  O  O338  1  1.02292617  0.99040191  0.86300562  1
  O  O339  1  0.00838263  0.01267295  0.12684138  1
  O  O340  1  0.00969454  0.01984769  0.64509861  1
  O  O341  1  0.01018475  0.50857306  0.12596545  1
  O  O342  1  0.00779729  0.50408658  0.61914151  1
  O  O343  1  0.50438520  0.00369153  0.12044706  1
  O  O344  1  0.51117315  -0.00443183  0.61896396  1
  O  O345  1  0.51419654  0.50162331  0.12348761  1
  O  O346  1  0.51113839  0.50632792  0.62051063  1
  O  O347  1  0.23900734  0.37467192  0.24744942  1
  O  O348  1  0.24497739  0.38840677  0.75868629  1
  O  O349  1  0.24238584  0.88187799  0.23966671  1
  O  O350  1  0.25902682  0.88888313  0.75043770  1
  O  O351  1  0.74345067  0.37197541  0.24574909  1
  O  O352  1  0.73712693  0.37726697  0.74881058  1
  O  O353  1  0.73948242  0.86730230  0.24086290  1
  O  O354  1  0.74919307  0.88442560  0.75386115  1
  O  O355  1  0.25406674  0.12250600  0.25915810  1
  O  O356  1  0.26283910  0.11635384  0.75805632  1
  O  O357  1  0.25817272  0.62321522  0.26005572  1
  O  O358  1  0.25352848  0.61579913  0.75863499  1
  O  O359  1  0.75750470  0.13224825  0.25874216  1
  O  O360  1  0.75062667  0.11494292  0.75855146  1
  O  O361  1  0.76538841  0.62071501  0.24425953  1
  O  O362  1  0.76113917  0.62050945  0.75709812  1
  O  O363  1  0.36892319  0.11492182  0.36788196  1
  O  O364  1  0.37297014  0.11457050  0.86607393  1
  O  O365  1  0.37368463  0.61724267  0.36427547  1
  O  O366  1  0.36603559  0.61709371  0.87604445  1
  O  O367  1  0.86157907  0.13073477  0.36453959  1
  O  O368  1  0.87842257  0.12190424  0.87053289  1
  O  O369  1  0.88040999  0.60947197  0.36675930  1
  O  O370  1  0.87544381  0.62250477  0.87132413  1
  O  O371  1  0.12679355  0.38205320  0.13138196  1
  O  O372  1  0.12557122  0.39223701  0.64101875  1
  O  O373  1  0.13082266  0.88319505  0.12895405  1
  O  O374  1  0.15112923  0.86627779  0.63616735  1
  O  O375  1  0.62931508  0.38247413  0.13057144  1
  O  O376  1  0.62627527  0.38478583  0.63353024  1
  O  O377  1  0.63152808  0.87665656  0.13193817  1
  O  O378  1  0.62373317  0.88130107  0.62820502  1
  O  O379  1  0.11248647  0.26169986  0.24179859  1
  O  O380  1  0.12875163  0.26766169  0.74907357  1
  O  O381  1  0.12744157  0.76896380  0.24246357  1
  O  O382  1  0.12696247  0.74526808  0.76101579  1
  O  O383  1  0.61850141  0.25390719  0.25507810  1
  O  O384  1  0.62006609  0.25571413  0.75857198  1
  O  O385  1  0.62244064  0.75332371  0.25669019  1
  O  O386  1  0.61529730  0.74082150  0.76140975  1
  O  O387  1  0.38072073  0.24505240  0.24482858  1
  O  O388  1  0.38526889  0.24415141  0.74691848  1
  O  O389  1  0.37934415  0.74177196  0.24392159  1
  O  O390  1  0.39131542  0.74376328  0.75097275  1
  O  O391  1  0.88353540  0.24213569  0.24640320  1
  O  O392  1  0.88288048  0.25994868  0.75424656  1
  O  O393  1  0.86990454  0.74095420  0.23883132  1
  O  O394  1  0.86878111  0.73663690  0.74062290  1
  O  O395  1  0.38032470  0.49124109  0.49411759  1
  O  O396  1  0.37613389  0.49323531  0.99332220  1
  O  O397  1  0.38406754  1.01008878  0.49245276  1
  O  O398  1  0.38283082  0.99894619  0.98914040  1
  O  O399  1  0.88348445  0.48984383  0.49400949  1
  O  O400  1  0.87017257  0.49283504  0.99385339  1
  O  O401  1  0.86882612  0.97639481  0.50740061  1
  O  O402  1  0.87387676  0.98568509  1.00056659  1
  O  O403  1  0.13000105  0.00862520  0.01048233  1
  O  O404  1  0.11647889  0.01001863  0.51199839  1
  O  O405  1  0.13130054  0.51035311  0.01047115  1
  O  O406  1  0.11288595  0.48781089  0.50801066  1
  O  O407  1  0.62032426  0.00519611  0.00717538  1
  O  O408  1  0.62015286  0.00336239  0.51240964  1
  O  O409  1  0.62565532  0.50708145  0.00656749  1
  O  O410  1  0.62145529  0.50366287  0.50597606  1
  O  O411  1  0.36929125  0.37053068  0.11949540  1
  O  O412  1  0.38043755  0.37586230  0.61048312  1
  O  O413  1  0.36866045  0.86595853  0.12943492  1
  O  O414  1  0.35954835  0.87034287  0.63182759  1
  O  O415  1  0.87033096  0.37716000  0.11861169  1
  O  O416  1  0.87221417  0.38691172  0.61315885  1
  O  O417  1  0.86965901  0.86959120  0.12135279  1
  O  O418  1  0.87911750  0.85761161  0.60909568  1
  O  O419  1  0.13858563  0.12325726  0.36612739  1
  O  O420  1  0.14580408  0.11180188  0.87382853  1
  O  O421  1  0.13660489  0.61771802  0.36608306  1
  O  O422  1  0.13157756  0.62979057  0.88103164  1
  O  O423  1  0.63271687  0.12703757  0.38082557  1
  O  O424  1  0.62686510  0.13777124  0.88470451  1
  O  O425  1  0.61875374  0.63132284  0.38448769  1
  O  O426  1  0.63047494  0.63066125  0.88218595  1
