# generated using pymatgen
data_V85Zn86O256
_symmetry_space_group_name_H-M   'P 1'
_cell_length_a   17.01079334
_cell_length_b   16.99762639
_cell_length_c   17.00429591
_cell_angle_alpha   90.08661731
_cell_angle_beta   90.07653963
_cell_angle_gamma   90.10591267
_symmetry_Int_Tables_number   1
_chemical_formula_structural   V85Zn86O256
_chemical_formula_sum   'V85 Zn86 O256'
_cell_volume   4916.65657393
_cell_formula_units_Z   1
loop_
 _symmetry_equiv_pos_site_id
 _symmetry_equiv_pos_as_xyz
  1  'x, y, z'
loop_
 _atom_site_type_symbol
 _atom_site_label
 _atom_site_symmetry_multiplicity
 _atom_site_fract_x
 _atom_site_fract_y
 _atom_site_fract_z
 _atom_site_occupancy
  V  V0  1  0.37506240  0.49774490  0.37556320  1
  V  V1  1  0.37404909  0.77119123  0.61887002  1
  V  V2  1  0.24059629  0.24344775  -0.00576653  1
  V  V3  1  0.88482582  0.25123741  0.12321703  1
  V  V4  1  0.50269859  0.49861644  0.00058148  1
  V  V5  1  0.87483872  -0.00155791  0.37019710  1
  V  V6  1  0.24674870  0.38245480  0.12371158  1
  V  V7  1  0.00133412  0.62437328  0.62345308  1
  V  V8  1  -0.02200172  0.12603606  0.63013411  1
  V  V9  1  0.12247434  0.12667475  0.49808213  1
  V  V10  1  0.12628545  0.00061400  0.62838222  1
  V  V11  1  0.49643878  0.12442400  0.13037174  1
  V  V12  1  0.25183339  0.62597792  0.37727825  1
  V  V13  1  0.50375133  0.24962274  0.25136246  1
  V  V14  1  0.36400149  -0.00816439  0.88016340  1
  V  V15  1  0.38323722  0.63061195  0.74450313  1
  V  V16  1  0.00373094  0.74998280  0.24824689  1
  V  V17  1  0.25301274  0.75899993  0.00058482  1
  V  V18  1  0.75058262  0.63559751  0.87601163  1
  V  V19  1  0.75291364  0.74934261  0.49736475  1
  V  V20  1  -0.01662202  0.25298320  0.75008156  1
  V  V21  1  0.62766473  0.36924918  0.25115422  1
  V  V22  1  0.11874639  0.24910590  0.36882485  1
  V  V23  1  0.60440880  0.00484844  0.60184528  1
  V  V24  1  0.61878946  0.12316136  -0.00086748  1
  V  V25  1  0.24495371  -0.00506004  0.75109774  1
  V  V26  1  0.37699602  0.50010800  0.87462725  1
  V  V27  1  0.75152620  0.62429949  0.37296920  1
  V  V28  1  0.00227143  0.74857075  0.74735652  1
  V  V29  1  0.13123547  0.00589407  0.12980575  1
  V  V30  1  0.87598613  0.87595859  0.50195539  1
  V  V31  1  0.49949294  0.37228571  0.37496781  1
  V  V32  1  0.49903258  0.87990046  0.39690833  1
  V  V33  1  0.73958461  -0.00156657  0.75040297  1
  V  V34  1  0.49385143  0.24032509  0.75218443  1
  V  V35  1  0.50169493  0.75592425  0.24774072  1
  V  V36  1  0.62560124  0.62546623  0.49913801  1
  V  V37  1  0.36559472  -0.00054943  0.38789666  1
  V  V38  1  0.62721961  0.49875722  0.12444988  1
  V  V39  1  0.12492370  0.37990404  0.24546250  1
  V  V40  1  0.87389239  0.38126728  -0.00775863  1
  V  V41  1  0.49902402  0.50178170  0.50225330  1
  V  V42  1  0.11926918  0.37130618  0.75801463  1
  V  V43  1  0.00473457  0.61920444  0.12445664  1
  V  V44  1  0.37322614  0.24336135  0.62666782  1
  V  V45  1  0.87392779  0.74792692  0.11915413  1
  V  V46  1  0.24408415  0.37550316  0.62582172  1
  V  V47  1  0.62518540  0.75013338  0.37516679  1
  V  V48  1  0.74807836  0.87199974  0.12215197  1
  V  V49  1  0.62604651  0.49581060  0.62585331  1
  V  V50  1  0.37688245  0.62439863  0.25258584  1
  V  V51  1  0.37415453  0.25074648  0.12395191  1
  V  V52  1  0.63057898  0.63611342  -0.00080033  1
  V  V53  1  0.36090995  0.12892993  0.76166948  1
  V  V54  1  0.62165960  0.24406022  0.88115973  1
  V  V55  1  0.87971832  0.75077873  0.62213204  1
  V  V56  1  0.00198824  0.49827088  -0.00721944  1
  V  V57  1  0.50070039  0.37504963  0.87576562  1
  V  V58  1  0.37743410  0.75367096  0.12109397  1
  V  V59  1  0.87463768  0.49929289  0.37235800  1
  V  V60  1  0.88327683  0.12661479  0.24122181  1
  V  V61  1  0.12334770  0.49925250  0.62483165  1
  V  V62  1  -0.00210439  0.87306004  0.87407512  1
  V  V63  1  -0.00206726  0.00101724  0.50011553  1
  V  V64  1  0.37212733  0.37505747  0.49873890  1
  V  V65  1  0.87775595  0.87393021  -0.00026465  1
  V  V66  1  0.12879642  0.75332484  0.87488183  1
  V  V67  1  0.49079301  -0.00720469  -0.00371428  1
  V  V68  1  0.12724755  0.62424958  0.49706421  1
  V  V69  1  0.01036263  0.00480055  -0.00422925  1
  V  V70  1  0.75036810  -0.00012272  0.24056775  1
  V  V71  1  0.00114593  0.87346005  0.37075688  1
  V  V72  1  -0.00401470  0.49533811  0.49690980  1
  V  V73  1  -0.00173523  0.37283329  0.36521156  1
  V  V74  1  0.87602855  0.62364759  0.74872949  1
  V  V75  1  0.25125224  0.87465523  0.13338842  1
  V  V76  1  0.12782616  0.62035832  0.00475425  1
  V  V77  1  0.77018616  0.21670277  -0.01578961  1
  V  V78  1  0.75027808  0.49857984  0.24805574  1
  V  V79  1  0.25103770  0.62556456  0.87519271  1
  V  V80  1  0.74975672  0.49562990  0.74773228  1
  V  V81  1  0.24287613  0.24818856  0.49819865  1
  V  V82  1  0.74158439  0.12514081  0.37798059  1
  V  V83  1  0.24920175  0.49986274  0.75089513  1
  V  V84  1  0.50198418  0.62360670  0.12636709  1
  Zn  Zn85  1  0.12812083  0.87190943  0.74669467  1
  Zn  Zn86  1  0.87818686  0.49834466  0.86913536  1
  Zn  Zn87  1  0.75426078  0.33345009  0.61987132  1
  Zn  Zn88  1  0.12277108  0.23755724  0.87165058  1
  Zn  Zn89  1  0.50824784  0.63934343  0.63128927  1
  Zn  Zn90  1  0.37192981  0.37617925  -0.00011890  1
  Zn  Zn91  1  0.73902856  0.88011245  0.62648876  1
  Zn  Zn92  1  0.26102525  0.76850459  0.50136754  1
  Zn  Zn93  1  0.74971271  0.36878984  0.11831647  1
  Zn  Zn94  1  0.83250883  0.07407759  0.84819142  1
  Zn  Zn95  1  0.62761581  0.87566740  0.25069571  1
  Zn  Zn96  1  0.13008808  0.87976801  0.25134673  1
  Zn  Zn97  1  0.62596702  0.37003093  0.74943881  1
  Zn  Zn98  1  0.00969918  0.12966142  0.12161637  1
  Zn  Zn99  1  0.34433644  0.10460700  0.26041474  1
  Zn  Zn100  1  0.67465404  0.27336245  0.43287960  1
  Zn  Zn101  1  0.61598150  0.75597287  0.84113540  1
  Zn  Zn102  1  0.87564580  0.62315458  0.24658002  1
  Zn  Zn103  1  0.13214171  0.75394943  0.37460625  1
  Zn  Zn104  1  0.24981279  0.50090554  0.24649294  1
  Zn  Zn105  1  0.61869996  -0.00491776  0.12184115  1
  Zn  Zn106  1  0.85144761  0.35366310  0.49536365  1
  Zn  Zn107  1  0.18682243  0.19205464  0.18555299  1
  Zn  Zn108  1  0.17932649  0.18562936  0.68646458  1
  Zn  Zn109  1  0.18962185  0.68795174  0.18968856  1
  Zn  Zn110  1  0.19433099  0.68957202  0.68681791  1
  Zn  Zn111  1  0.69330625  0.18492886  0.17685631  1
  Zn  Zn112  1  0.67496205  0.17229135  0.70965393  1
  Zn  Zn113  1  0.68799197  0.68755677  0.18657818  1
  Zn  Zn114  1  0.69563116  0.68481349  0.68170586  1
  Zn  Zn115  1  0.29808761  0.28553064  0.29780017  1
  Zn  Zn116  1  0.31019185  0.31677969  0.81475726  1
  Zn  Zn117  1  0.31970753  0.81544019  0.31582991  1
  Zn  Zn118  1  0.42957881  0.81172094  0.81370289  1
  Zn  Zn119  1  0.81659863  0.31004511  0.30749794  1
  Zn  Zn120  1  0.80899099  0.31447237  0.81545504  1
  Zn  Zn121  1  0.81618524  0.80978676  0.30768209  1
  Zn  Zn122  1  0.81364216  0.81800728  0.80853042  1
  Zn  Zn123  1  0.18578491  0.43654273  0.43424573  1
  Zn  Zn124  1  0.18848940  0.43639116  0.93845766  1
  Zn  Zn125  1  0.19086579  0.93952072  0.44000719  1
  Zn  Zn126  1  0.18420759  1.06527445  0.93823400  1
  Zn  Zn127  1  0.68726835  0.44077083  0.43773328  1
  Zn  Zn128  1  0.68965110  0.44069785  0.93584527  1
  Zn  Zn129  1  0.68641409  0.93803599  0.43763559  1
  Zn  Zn130  1  0.69275065  0.93402552  0.93848769  1
  Zn  Zn131  1  0.31270230  0.06498985  0.06816158  1
  Zn  Zn132  1  0.30960660  0.06055952  0.56270087  1
  Zn  Zn133  1  0.31574076  0.56498702  0.06200884  1
  Zn  Zn134  1  0.31145627  0.56442634  0.56302642  1
  Zn  Zn135  1  0.82263369  0.05959812  0.05204991  1
  Zn  Zn136  1  0.76049834  0.11461006  0.59301745  1
  Zn  Zn137  1  0.81232455  0.56212485  0.06056262  1
  Zn  Zn138  1  0.81419072  0.55675272  0.56239620  1
  Zn  Zn139  1  0.43630799  0.43521553  0.18806082  1
  Zn  Zn140  1  0.43670650  0.43663381  0.68813972  1
  Zn  Zn141  1  0.43239205  0.93927900  0.19233670  1
  Zn  Zn142  1  0.43366735  0.95267810  0.68198315  1
  Zn  Zn143  1  0.93603678  0.43721546  0.18296432  1
  Zn  Zn144  1  0.92873395  0.42899079  0.67761880  1
  Zn  Zn145  1  0.94032543  0.93866083  0.18204106  1
  Zn  Zn146  1  0.92746774  0.94449442  0.69416908  1
  Zn  Zn147  1  0.06404524  0.06243331  0.31131770  1
  Zn  Zn148  1  0.05307870  0.06536050  0.80748133  1
  Zn  Zn149  1  0.06455301  0.56084241  0.31026577  1
  Zn  Zn150  1  0.06493257  0.56328551  0.81283177  1
  Zn  Zn151  1  0.55927266  0.05728329  0.31344095  1
  Zn  Zn152  1  0.56558948  -0.05968995  0.81775336  1
  Zn  Zn153  1  0.56286133  0.56019534  0.31248541  1
  Zn  Zn154  1  0.56794549  0.56429958  0.81520465  1
  Zn  Zn155  1  0.43899209  0.18553209  0.43803248  1
  Zn  Zn156  1  0.43370767  0.18463067  0.93989063  1
  Zn  Zn157  1  0.44038025  0.69226223  0.44171819  1
  Zn  Zn158  1  0.43695448  0.67889297  0.93988989  1
  Zn  Zn159  1  0.92702647  0.18147843  0.43174393  1
  Zn  Zn160  1  0.94742338  0.19274413  0.93749281  1
  Zn  Zn161  1  0.93937460  0.68517152  0.43532568  1
  Zn  Zn162  1  0.93861205  0.68533496  0.93545127  1
  Zn  Zn163  1  0.06352221  0.31782006  0.05910296  1
  Zn  Zn164  1  0.01608024  0.28780752  0.53979066  1
  Zn  Zn165  1  0.06737199  0.81437088  0.06216321  1
  Zn  Zn166  1  0.08646395  0.82487614  0.54912223  1
  Zn  Zn167  1  0.56532170  0.31144632  0.06210865  1
  Zn  Zn168  1  0.55558361  0.31791628  0.57249924  1
  Zn  Zn169  1  0.54895222  0.81547621  -0.02709634  1
  Zn  Zn170  1  0.56066929  0.82236850  0.67115347  1
  O  O171  1  0.12754715  0.11198144  0.12925651  1
  O  O172  1  0.11466027  0.11815754  0.61527900  1
  O  O173  1  0.11791720  0.63242580  0.11456857  1
  O  O174  1  0.12192901  0.61821522  0.61731631  1
  O  O175  1  0.61127527  0.12298301  0.11708547  1
  O  O176  1  0.63461532  0.10110646  0.62777226  1
  O  O177  1  0.62227444  0.61722835  0.11995121  1
  O  O178  1  0.62284956  0.61454108  0.61578823  1
  O  O179  1  0.37953204  0.37944460  0.38186743  1
  O  O180  1  0.38440540  0.38176196  0.87803818  1
  O  O181  1  0.38993206  0.88200773  0.37661662  1
  O  O182  1  0.36974235  0.89372733  0.87359529  1
  O  O183  1  0.88311963  0.37966480  0.37379058  1
  O  O184  1  0.87420520  0.37918619  0.88749391  1
  O  O185  1  0.88404066  0.87673625  0.37914154  1
  O  O186  1  0.88967376  0.85896870  0.88791521  1
  O  O187  1  0.26436323  -0.00887535  0.37501152  1
  O  O188  1  0.26037577  0.00772350  0.87117171  1
  O  O189  1  0.25745522  0.50913392  0.37514282  1
  O  O190  1  0.25571784  0.50574176  0.87132701  1
  O  O191  1  0.75648020  0.00451399  0.35951815  1
  O  O192  1  0.75125566  -0.01114022  0.86242727  1
  O  O193  1  0.75502977  0.50433218  0.36832920  1
  O  O194  1  0.74893487  0.51000570  0.86093357  1
  O  O195  1  0.25726522  0.48692304  0.12451696  1
  O  O196  1  0.24432519  0.49260508  0.62946779  1
  O  O197  1  0.23980308  0.99092312  0.11920062  1
  O  O198  1  0.23540027  1.00919636  0.63471768  1
  O  O199  1  0.74441648  0.49955405  0.13197962  1
  O  O200  1  0.73708639  0.50951342  0.63524934  1
  O  O201  1  0.75735705  0.99054301  0.12973267  1
  O  O202  1  0.75272340  1.00281564  0.63966052  1
  O  O203  1  0.00693819  0.38221546  0.25830039  1
  O  O204  1  0.00631676  0.36121282  0.73536850  1
  O  O205  1  -0.00274536  0.86638157  0.25553105  1
  O  O206  1  -0.00232997  0.86733958  0.76136759  1
  O  O207  1  0.51103615  0.37027506  0.25300974  1
  O  O208  1  0.49906793  0.36891158  0.76406253  1
  O  O209  1  0.50470426  0.86109929  0.24361017  1
  O  O210  1  0.49429109  0.88140023  0.74952431  1
  O  O211  1  0.50656356  0.13517831  0.24044914  1
  O  O212  1  0.48138919  0.14155689  0.75019836  1
  O  O213  1  0.49721614  0.63318960  0.24741190  1
  O  O214  1  0.48534623  0.61702096  0.75285836  1
  O  O215  1  0.98670264  0.11841002  0.24403744  1
  O  O216  1  0.99039381  0.13365726  0.73791648  1
  O  O217  1  1.00210403  0.63101996  0.24073217  1
  O  O218  1  0.99648776  0.62808101  0.74322271  1
  O  O219  1  0.36748855  0.25109861  0.01073114  1
  O  O220  1  0.36389279  0.25357073  0.50751798  1
  O  O221  1  0.36609483  0.73793964  0.01306871  1
  O  O222  1  0.37463307  0.75240421  0.51232460  1
  O  O223  1  0.87586056  0.26533844  0.00336017  1
  O  O224  1  0.90974423  0.25927737  0.50549247  1
  O  O225  1  0.88693880  0.75757878  0.01179407  1
  O  O226  1  0.87434297  0.75681729  0.50116915  1
  O  O227  1  0.12315765  0.24398782  0.49471205  1
  O  O228  1  0.13699923  0.25541340  0.99578546  1
  O  O229  1  0.10945338  0.72591601  0.49242052  1
  O  O230  1  0.13214699  0.74102683  0.99403723  1
  O  O231  1  0.58953059  0.23409523  0.49975744  1
  O  O232  1  0.63037571  0.24059416  0.99703076  1
  O  O233  1  0.63707075  0.73937951  0.48978253  1
  O  O234  1  0.62313822  0.73433745  1.01121131  1
  O  O235  1  0.49339912  0.24343549  0.12691053  1
  O  O236  1  0.48044858  0.26521018  0.64084914  1
  O  O237  1  0.49006540  0.74008930  0.13324545  1
  O  O238  1  0.47776225  0.74986553  0.62781685  1
  O  O239  1  0.98984722  0.24621057  0.11222980  1
  O  O240  1  1.00468137  0.23307781  0.63877129  1
  O  O241  1  0.99614890  0.74267927  0.13084599  1
  O  O242  1  0.99842774  0.74192510  0.62887389  1
  O  O243  1  0.00906472  0.26294181  0.37756472  1
  O  O244  1  0.00192058  0.24449958  0.85447176  1
  O  O245  1  -0.00104625  0.75675757  0.36431206  1
  O  O246  1  0.00970760  0.75075443  0.86890578  1
  O  O247  1  0.49201521  0.25694238  0.35797390  1
  O  O248  1  0.50112765  0.25746741  0.87309736  1
  O  O249  1  0.50343531  0.75947023  0.36678672  1
  O  O250  1  0.49880699  0.75503140  0.88566484  1
  O  O251  1  0.23423038  0.13810999  0.50800609  1
  O  O252  1  0.24858713  0.13919449  1.00580600  1
  O  O253  1  0.24170736  0.62365229  0.49177499  1
  O  O254  1  0.24280915  0.62978829  0.99730154  1
  O  O255  1  0.75562262  0.11875670  0.47556955  1
  O  O256  1  0.72685781  0.11714304  1.01291491  1
  O  O257  1  0.74694524  0.62751376  0.49213086  1
  O  O258  1  0.74247648  0.61806344  0.98752062  1
  O  O259  1  0.25063450  0.36790174  0.00766202  1
  O  O260  1  0.25024972  0.37018464  0.50958541  1
  O  O261  1  0.24950259  0.85852157  0.01521357  1
  O  O262  1  0.19318334  0.85431746  0.50843338  1
  O  O263  1  0.76431173  0.38192714  0.00131634  1
  O  O264  1  0.73400981  0.35308710  0.49196468  1
  O  O265  1  0.76792524  0.88161437  0.01038692  1
  O  O266  1  0.76423716  0.86930747  0.49621687  1
  O  O267  1  0.13088330  0.48537873  0.25415560  1
  O  O268  1  0.12835161  0.49398206  0.74422878  1
  O  O269  1  0.12047836  0.99778984  0.23457991  1
  O  O270  1  0.12918347  1.00553332  0.74286911  1
  O  O271  1  0.62943550  0.48907941  0.24542555  1
  O  O272  1  0.63140108  0.49901631  0.74211752  1
  O  O273  1  0.63738943  0.99632312  0.24081030  1
  O  O274  1  0.63627472  0.99497003  0.74888207  1
  O  O275  1  0.37907236  0.00025631  0.26769312  1
  O  O276  1  0.36485016  0.01074144  0.76066092  1
  O  O277  1  0.37582694  0.50673786  0.25765628  1
  O  O278  1  0.36800010  0.50375424  0.75640828  1
  O  O279  1  0.87010270  0.00525985  0.24921316  1
  O  O280  1  0.87055776  0.00744373  0.76446907  1
  O  O281  1  0.86851158  0.50045877  0.25456640  1
  O  O282  1  0.86735244  0.50459474  0.74772661  1
  O  O283  1  0.11730976  0.36993363  0.36654916  1
  O  O284  1  0.12696984  0.37643235  0.86006613  1
  O  O285  1  0.10975525  0.87575210  0.36894900  1
  O  O286  1  0.11411079  0.85833738  0.87221284  1
  O  O287  1  0.61899138  0.37089570  0.36471892  1
  O  O288  1  0.61559830  0.36431905  0.87832853  1
  O  O289  1  0.61571834  0.86792295  0.37205680  1
  O  O290  1  0.61741027  0.86433958  0.89020450  1
  O  O291  1  0.38146429  0.13510641  0.13033432  1
  O  O292  1  0.36564905  0.14020147  0.63301673  1
  O  O293  1  0.38054540  0.63141134  0.13314022  1
  O  O294  1  0.37972458  0.61589205  0.64026889  1
  O  O295  1  0.88049870  0.13150560  0.12556814  1
  O  O296  1  0.88257659  0.12257801  0.61521135  1
  O  O297  1  0.88545780  0.63257058  0.12284535  1
  O  O298  1  0.88232947  0.62948193  0.62771703  1
  O  O299  1  0.25634088  0.26065660  0.11252962  1
  O  O300  1  0.25184073  0.25886827  0.61790319  1
  O  O301  1  0.25794438  0.75240877  0.12063389  1
  O  O302  1  0.27008200  0.73948386  0.62171896  1
  O  O303  1  0.76473685  0.24425777  0.10031992  1
  O  O304  1  0.73464487  0.22480160  0.62762763  1
  O  O305  1  0.76565568  0.75657885  0.13381618  1
  O  O306  1  0.76310037  0.75270456  0.61350019  1
  O  O307  1  0.23379301  0.26394623  0.39394504  1
  O  O308  1  0.25301544  0.25570925  0.89254290  1
  O  O309  1  0.25225993  0.73837868  0.37831333  1
  O  O310  1  0.24141167  0.74135855  0.88652958  1
  O  O311  1  0.75331094  0.23141616  0.36238919  1
  O  O312  1  0.73910576  0.25354951  0.88796501  1
  O  O313  1  0.74741337  0.74452642  0.37637401  1
  O  O314  1  0.74861453  0.73694872  0.86377229  1
  O  O315  1  -0.00124235  0.10648959  -0.00088569  1
  O  O316  1  0.00447965  0.12024099  0.50884692  1
  O  O317  1  0.00923511  0.62056838  0.00656648  1
  O  O318  1  0.00545317  0.61140872  0.50117129  1
  O  O319  1  0.50170890  0.11984554  0.01108893  1
  O  O320  1  0.54145239  0.16756985  0.49268938  1
  O  O321  1  0.51037642  0.61690499  0.00664105  1
  O  O322  1  0.50802076  0.61813083  0.50087642  1
  O  O323  1  0.49184306  0.38158762  0.49535091  1
  O  O324  1  0.49951292  0.37911211  0.99094628  1
  O  O325  1  0.50357418  0.87138793  0.49108543  1
  O  O326  1  0.48863484  0.89631231  1.02003547  1
  O  O327  1  1.01013749  0.39067355  0.48478822  1
  O  O328  1  0.99158893  0.39046298  1.00758645  1
  O  O329  1  0.99542368  0.87874616  0.48778810  1
  O  O330  1  0.99898197  0.87819265  0.99284718  1
  O  O331  1  0.49514044  0.49309261  0.38151424  1
  O  O332  1  0.49890095  0.49178831  0.87974390  1
  O  O333  1  0.50081959  0.98295778  0.37576798  1
  O  O334  1  0.48737751  0.99749386  0.89124972  1
  O  O335  1  0.99485830  0.49408542  0.37783699  1
  O  O336  1  0.99728993  0.50936353  0.88814430  1
  O  O337  1  0.99498217  0.99185935  0.37677514  1
  O  O338  1  1.00959362  0.98632651  0.88779853  1
  O  O339  1  0.01548457  -0.00407157  0.11360832  1
  O  O340  1  0.00113933  0.01448908  0.62204244  1
  O  O341  1  -0.00365913  0.51395267  0.11641622  1
  O  O342  1  0.00395542  0.50346290  0.61486923  1
  O  O343  1  0.49235528  0.01206863  0.11954379  1
  O  O344  1  0.50423178  0.00853012  0.61566955  1
  O  O345  1  0.50594230  0.50450125  0.12181473  1
  O  O346  1  0.51113374  0.49680450  0.62035619  1
  O  O347  1  0.24301914  0.37342842  0.24030998  1
  O  O348  1  0.24226121  0.38006941  0.74367810  1
  O  O349  1  0.24834680  0.86430390  0.23798981  1
  O  O350  1  0.24436891  0.89590572  0.75262745  1
  O  O351  1  0.74125635  0.37808540  0.24683876  1
  O  O352  1  0.74604569  0.38573966  0.75051647  1
  O  O353  1  0.75491995  0.88341091  0.24117117  1
  O  O354  1  0.76245765  0.88703515  0.73985481  1
  O  O355  1  0.26467283  0.17753251  0.26260185  1
  O  O356  1  0.25638372  0.12244959  0.74799666  1
  O  O357  1  0.25634117  0.62351123  0.25985953  1
  O  O358  1  0.25854585  0.61731271  0.75582639  1
  O  O359  1  0.76119014  0.11430720  0.24484684  1
  O  O360  1  0.75157606  0.10607171  0.76305591  1
  O  O361  1  0.75090994  0.61700116  0.25587387  1
  O  O362  1  0.75749088  0.61660383  0.75538382  1
  O  O363  1  0.38661493  0.10591162  0.37806883  1
  O  O364  1  0.37677309  0.11802812  0.86650652  1
  O  O365  1  0.36961967  0.62031972  0.37325478  1
  O  O366  1  0.37022057  0.61918083  0.86447245  1
  O  O367  1  0.86901652  0.11713707  0.35916872  1
  O  O368  1  0.84544166  0.14009939  0.93738792  1
  O  O369  1  0.86954270  0.61819889  0.37031846  1
  O  O370  1  0.86773417  0.62358429  0.86802641  1
  O  O371  1  0.13411529  0.36746777  0.13487103  1
  O  O372  1  0.13624052  0.38087291  0.63382035  1
  O  O373  1  0.13423566  0.88302716  0.12768050  1
  O  O374  1  0.10279252  0.89771670  0.63507938  1
  O  O375  1  0.62806847  0.38070632  0.13187459  1
  O  O376  1  0.63066906  0.38447714  0.62813509  1
  O  O377  1  0.64521849  0.87522993  0.12403305  1
  O  O378  1  0.62595779  0.89816618  0.61867935  1
  O  O379  1  0.12461623  0.26183421  0.26181526  1
  O  O380  1  0.12087617  0.25935972  0.75136491  1
  O  O381  1  0.11367241  0.75207908  0.25207365  1
  O  O382  1  0.12194543  0.74818356  0.75683108  1
  O  O383  1  0.61826230  0.26009444  0.23570576  1
  O  O384  1  0.61036955  0.25019265  0.76458741  1
  O  O385  1  0.61720619  0.74927901  0.25620316  1
  O  O386  1  0.61589051  0.74286009  0.73111883  1
  O  O387  1  0.39393001  0.26271178  0.23359045  1
  O  O388  1  0.37301437  0.24715618  0.74674657  1
  O  O389  1  0.38424978  0.74354682  0.24420365  1
  O  O390  1  0.37330351  0.73376058  0.74381699  1
  O  O391  1  0.86917585  0.23986842  0.23271007  1
  O  O392  1  0.88442897  0.25851029  0.75076948  1
  O  O393  1  0.88822537  0.74622156  0.23926306  1
  O  O394  1  0.88330635  0.74285027  0.74167403  1
  O  O395  1  0.37887461  0.49481916  0.49629475  1
  O  O396  1  0.38495331  0.50252668  0.99214868  1
  O  O397  1  0.37022403  0.99990049  0.49055552  1
  O  O398  1  0.37935655  1.01166424  0.98914820  1
  O  O399  1  0.88520638  0.50208255  0.48862093  1
  O  O400  1  0.88423173  0.49604335  0.99796757  1
  O  O401  1  0.88302190  0.98680026  0.48748208  1
  O  O402  1  0.89712045  0.98318086  1.00795004  1
  O  O403  1  0.11746873  -0.00014774  0.01175520  1
  O  O404  1  0.11737176  0.01027754  0.50552613  1
  O  O405  1  0.11926532  0.51285744  -0.00588669  1
  O  O406  1  0.11848362  0.50757199  0.50301122  1
  O  O407  1  0.60642542  0.00606791  0.00139973  1
  O  O408  1  0.62532044  0.00530777  0.50198375  1
  O  O409  1  0.62012797  0.50571354  0.00573496  1
  O  O410  1  0.62022340  0.50531047  0.50660399  1
  O  O411  1  0.36772722  0.36806088  0.12114969  1
  O  O412  1  0.36044553  0.36997547  0.62147249  1
  O  O413  1  0.36737122  0.86053967  0.13178673  1
  O  O414  1  0.36940596  0.86881444  0.63118278  1
  O  O415  1  0.87261128  0.36626540  0.11834043  1
  O  O416  1  0.85222612  0.39079881  0.60624336  1
  O  O417  1  0.87363540  0.86535039  0.11851148  1
  O  O418  1  0.88565556  0.86996341  0.60991602  1
  O  O419  1  0.11224667  0.13497720  0.38684942  1
  O  O420  1  0.11940067  0.12534831  0.87295027  1
  O  O421  1  0.13627392  0.62165891  0.37964248  1
  O  O422  1  0.12999879  0.63359079  0.88312107  1
  O  O423  1  0.64292500  0.11858104  0.36224484  1
  O  O424  1  0.61209049  0.14008035  0.88950636  1
  O  O425  1  0.63106625  0.62816357  0.37932337  1
  O  O426  1  0.63217621  0.63147074  0.88290131  1
