# generated using pymatgen
data_V85Zn86O256
_symmetry_space_group_name_H-M   'P 1'
_cell_length_a   17.01928560
_cell_length_b   17.00502288
_cell_length_c   16.97324192
_cell_angle_alpha   89.92770586
_cell_angle_beta   89.99192489
_cell_angle_gamma   89.98319281
_symmetry_Int_Tables_number   1
_chemical_formula_structural   V85Zn86O256
_chemical_formula_sum   'V85 Zn86 O256'
_cell_volume   4912.27848106
_cell_formula_units_Z   1
loop_
 _symmetry_equiv_pos_site_id
 _symmetry_equiv_pos_as_xyz
  1  'x, y, z'
loop_
 _atom_site_type_symbol
 _atom_site_label
 _atom_site_symmetry_multiplicity
 _atom_site_fract_x
 _atom_site_fract_y
 _atom_site_fract_z
 _atom_site_occupancy
  V  V0  1  0.50006192  0.25618405  0.75166015  1
  V  V1  1  0.87420121  0.76538697  0.62211701  1
  V  V2  1  0.74656512  0.37883209  0.12145363  1
  V  V3  1  0.49379055  0.62183946  0.63864099  1
  V  V4  1  0.49678929  -0.00871158  -0.00626572  1
  V  V5  1  0.75201594  0.50195273  0.24825179  1
  V  V6  1  0.37335372  0.37557668  0.49923605  1
  V  V7  1  -0.00667303  0.24260305  0.24899077  1
  V  V8  1  0.62466327  0.25275585  0.38035369  1
  V  V9  1  0.62206882  0.12527346  -0.00056125  1
  V  V10  1  0.37643791  0.12146552  0.25541618  1
  V  V11  1  0.75116500  0.24773886  -0.00338491  1
  V  V12  1  -0.00605967  0.87555733  0.37699040  1
  V  V13  1  0.75959354  0.76065102  0.49599323  1
  V  V14  1  0.12508385  0.62423634  0.50225024  1
  V  V15  1  0.49830155  0.50731630  0.50101435  1
  V  V16  1  0.24607858  0.11683682  0.87180551  1
  V  V17  1  0.87386716  0.12995123  0.75012585  1
  V  V18  1  0.24821279  0.75219750  0.50208906  1
  V  V19  1  0.12577946  -0.00038040  0.62878047  1
  V  V20  1  -0.00552260  0.12367401  0.12288820  1
  V  V21  1  0.11934084  0.87391715  0.75231214  1
  V  V22  1  0.75200026  0.62197259  0.37462072  1
  V  V23  1  0.74868340  0.74887467  -0.00701799  1
  V  V24  1  0.87636777  0.50218404  0.36926410  1
  V  V25  1  0.37137705  0.75025047  0.11515782  1
  V  V26  1  0.37504705  0.11805661  0.74838125  1
  V  V27  1  0.25110795  0.50663860  0.75792146  1
  V  V28  1  0.75286746  0.37044556  0.62558863  1
  V  V29  1  0.49529254  0.76104337  0.75592436  1
  V  V30  1  0.24338139  0.24489424  -0.00255208  1
  V  V31  1  0.75203705  0.00010958  0.24850623  1
  V  V32  1  0.00029080  0.37360354  0.37330948  1
  V  V33  1  0.61935201  0.25660785  0.87540277  1
  V  V34  1  0.24796481  0.37539297  0.12429290  1
  V  V35  1  0.62598360  0.50341197  0.62510980  1
  V  V36  1  0.50572217  0.12012734  0.62068401  1
  V  V37  1  0.24957920  0.87598576  0.62619221  1
  V  V38  1  0.87456143  0.75622088  0.12556108  1
  V  V39  1  0.75241340  0.87672441  0.12160983  1
  V  V40  1  0.00013012  -0.00231522  -0.00211566  1
  V  V41  1  0.12523251  0.12564762  0.49935350  1
  V  V42  1  0.12655070  0.24984144  0.37288452  1
  V  V43  1  0.87039064  -0.00659908  0.87734022  1
  V  V44  1  0.25239214  0.12170398  0.37593167  1
  V  V45  1  0.00124177  0.36978760  0.87441096  1
  V  V46  1  0.37439197  0.50491158  0.37352288  1
  V  V47  1  0.87956109  0.36982232  -0.00318237  1
  V  V48  1  0.37436006  0.25010221  0.12515018  1
  V  V49  1  0.12618202  0.00633022  0.11761582  1
  V  V50  1  0.50010256  0.37737709  0.37515233  1
  V  V51  1  -0.00414372  -0.00271302  0.49791514  1
  V  V52  1  0.12351629  0.49541253  0.62865778  1
  V  V53  1  -0.00011037  0.49816889  0.49868536  1
  V  V54  1  0.51156214  0.61282116  0.11781623  1
  V  V55  1  0.62496167  0.38121224  0.24586059  1
  V  V56  1  0.37495963  0.25125764  0.62295744  1
  V  V57  1  0.75450146  0.12881412  0.36647354  1
  V  V58  1  0.11942981  0.50010677  0.11811610  1
  V  V59  1  -0.05988427  0.54747284  -0.05705412  1
  V  V60  1  0.61978831  0.75168587  0.87519191  1
  V  V61  1  -0.00609459  0.13102542  0.62362851  1
  V  V62  1  0.12898446  0.63003928  -0.01024517  1
  V  V63  1  -0.00715538  0.62136747  0.12996619  1
  V  V64  1  0.00389599  0.25391001  0.74750678  1
  V  V65  1  -0.00554093  0.74719578  0.24960796  1
  V  V66  1  0.87328106  0.36887473  0.50337786  1
  V  V67  1  0.12477223  0.37547930  0.24792472  1
  V  V68  1  0.37514896  0.62685647  0.24528465  1
  V  V69  1  0.36927250  0.74390437  0.62573774  1
  V  V70  1  0.37935360  0.37966611  -0.01011503  1
  V  V71  1  -0.00396273  0.74929331  0.75176789  1
  V  V72  1  0.25072250  0.25086993  0.49984779  1
  V  V73  1  0.25375877  -0.00114552  0.25082662  1
  V  V74  1  0.76026623  0.52553347  0.75163362  1
  V  V75  1  0.62650976  0.37779587  0.75169822  1
  V  V76  1  0.62549213  -0.00481491  0.12635478  1
  V  V77  1  0.12650524  0.87488829  0.24754564  1
  V  V78  1  0.49982270  0.25059541  0.25161976  1
  V  V79  1  0.62214341  0.75855422  0.37004043  1
  V  V80  1  0.62637484  0.10338091  0.50265091  1
  V  V81  1  0.12380892  0.74976839  0.37431186  1
  V  V82  1  0.87687399  0.00681596  0.36582027  1
  V  V83  1  0.24532819  0.37360608  0.63254346  1
  V  V84  1  -0.00931731  0.62319936  0.62687956  1
  Zn  Zn85  1  0.86978969  0.24274768  0.13042501  1
  Zn  Zn86  1  0.62782218  0.88414510  0.74617250  1
  Zn  Zn87  1  0.38090259  -0.00476941  0.86171190  1
  Zn  Zn88  1  0.37273720  0.87066857  -0.01347002  1
  Zn  Zn89  1  0.75255216  0.24715112  0.50359294  1
  Zn  Zn90  1  0.38389060  0.89104297  0.48252789  1
  Zn  Zn91  1  0.49944472  0.12350319  0.12585421  1
  Zn  Zn92  1  0.63602688  0.60962107  -0.00549552  1
  Zn  Zn93  1  0.24820702  0.87299866  0.11636120  1
  Zn  Zn94  1  0.00251106  0.87380762  0.87892188  1
  Zn  Zn95  1  0.40062232  0.50213963  0.86118900  1
  Zn  Zn96  1  0.51380535  0.75462480  0.23663994  1
  Zn  Zn97  1  0.49728700  0.89361070  0.35019025  1
  Zn  Zn98  1  0.33229456  0.66332228  0.81155439  1
  Zn  Zn99  1  0.74774548  0.12229180  0.86847551  1
  Zn  Zn100  1  0.53434250  0.47449227  0.97836559  1
  Zn  Zn101  1  0.62780097  0.62472411  0.49882935  1
  Zn  Zn102  1  0.24854377  0.50153318  0.24911912  1
  Zn  Zn103  1  0.74491908  -0.00215152  0.73389817  1
  Zn  Zn104  1  0.24948590  0.62588133  0.37144684  1
  Zn  Zn105  1  0.12525843  0.24842082  0.87339178  1
  Zn  Zn106  1  0.24937071  0.75065021  -0.02452286  1
  Zn  Zn107  1  0.18569234  0.18609222  0.18653003  1
  Zn  Zn108  1  0.18588322  0.18600082  0.69013897  1
  Zn  Zn109  1  0.18600454  0.68501980  0.18263686  1
  Zn  Zn110  1  0.17097877  0.69149058  0.80684210  1
  Zn  Zn111  1  0.68579772  0.18943717  0.18591435  1
  Zn  Zn112  1  0.68783980  0.18588558  0.68710681  1
  Zn  Zn113  1  0.69190512  0.68630508  0.18859011  1
  Zn  Zn114  1  0.68047779  0.70851448  0.67874832  1
  Zn  Zn115  1  0.31293716  0.31289300  0.31271612  1
  Zn  Zn116  1  0.31227193  0.30898083  0.81289770  1
  Zn  Zn117  1  0.31558593  0.81338741  0.30723979  1
  Zn  Zn118  1  0.30952325  0.83216797  0.80914773  1
  Zn  Zn119  1  0.81243259  0.31545844  0.31339850  1
  Zn  Zn120  1  0.81356182  0.31498600  0.81000333  1
  Zn  Zn121  1  0.80956165  0.81817762  0.31112563  1
  Zn  Zn122  1  0.81109445  0.81470653  0.80628417  1
  Zn  Zn123  1  0.18917648  0.43797737  0.43661289  1
  Zn  Zn124  1  0.18483107  0.43401456  0.94201092  1
  Zn  Zn125  1  0.18502092  0.93745507  0.43719758  1
  Zn  Zn126  1  0.18946121  0.93656098  0.93722042  1
  Zn  Zn127  1  0.68733229  0.43734883  0.43800770  1
  Zn  Zn128  1  0.70081685  0.44199113  0.92959384  1
  Zn  Zn129  1  0.70066428  0.91713024  0.58479380  1
  Zn  Zn130  1  0.68561666  0.93201779  0.93450883  1
  Zn  Zn131  1  0.31170232  0.06420740  0.06192439  1
  Zn  Zn132  1  0.31189224  0.06299482  0.56848032  1
  Zn  Zn133  1  0.31040197  0.56440630  0.05709820  1
  Zn  Zn134  1  0.30934438  0.56247602  0.56523151  1
  Zn  Zn135  1  0.81487851  0.06236955  0.05860933  1
  Zn  Zn136  1  0.81473591  0.06522673  0.55425789  1
  Zn  Zn137  1  0.80842749  0.56562785  0.06762386  1
  Zn  Zn138  1  0.81217546  0.55994156  0.55990311  1
  Zn  Zn139  1  0.43605800  0.43850759  0.18542278  1
  Zn  Zn140  1  0.43381612  0.43622078  0.68814643  1
  Zn  Zn141  1  0.43938925  0.93462320  0.18040573  1
  Zn  Zn142  1  0.46673799  0.91421467  0.63695318  1
  Zn  Zn143  1  0.93592433  0.43138138  0.18471199  1
  Zn  Zn144  1  0.93272120  0.43850993  0.69061431  1
  Zn  Zn145  1  0.93906478  0.93728383  0.18724691  1
  Zn  Zn146  1  0.93255589  0.94215122  0.68791049  1
  Zn  Zn147  1  0.06741670  0.06274747  0.30798488  1
  Zn  Zn148  1  0.05965293  0.06371872  0.81242065  1
  Zn  Zn149  1  0.06395708  0.56157766  0.31052385  1
  Zn  Zn150  1  0.05912525  0.55692952  0.80451490  1
  Zn  Zn151  1  0.56952469  0.06458848  0.30926379  1
  Zn  Zn152  1  0.56286667  0.06488652  0.80907023  1
  Zn  Zn153  1  0.56128987  0.56950168  0.30969544  1
  Zn  Zn154  1  0.57384953  0.56632791  0.81618608  1
  Zn  Zn155  1  0.44115665  0.06091331  0.44017300  1
  Zn  Zn156  1  0.43454251  0.18541271  0.93613315  1
  Zn  Zn157  1  0.42185876  0.72071549  0.41723956  1
  Zn  Zn158  1  0.44548630  0.67726686  0.94059775  1
  Zn  Zn159  1  0.93865143  0.18758217  0.43645360  1
  Zn  Zn160  1  0.93936119  0.18192370  0.93638992  1
  Zn  Zn161  1  0.93727945  0.68472348  0.43736894  1
  Zn  Zn162  1  0.93491192  0.70849182  0.94212686  1
  Zn  Zn163  1  0.06145392  0.30859959  0.06280591  1
  Zn  Zn164  1  0.06214226  0.31197059  0.56097713  1
  Zn  Zn165  1  0.06373463  0.81493019  0.06238226  1
  Zn  Zn166  1  0.06137351  0.81170156  0.56434241  1
  Zn  Zn167  1  0.56103370  0.31101380  0.06471891  1
  Zn  Zn168  1  0.56113188  0.31467401  0.56433315  1
  Zn  Zn169  1  0.56285514  0.81033414  0.06479007  1
  Zn  Zn170  1  0.56603677  0.80394547  0.55191853  1
  O  O171  1  0.11453464  0.11335842  0.13036610  1
  O  O172  1  0.11695167  0.11742634  0.62038743  1
  O  O173  1  0.11075998  0.61985735  0.11381427  1
  O  O174  1  0.11211611  0.61236667  0.61015966  1
  O  O175  1  0.62620672  0.11786109  0.11406527  1
  O  O176  1  0.62189060  0.13503172  0.60698705  1
  O  O177  1  0.61212495  0.62915980  0.12972647  1
  O  O178  1  0.61285591  0.61710023  0.62125126  1
  O  O179  1  0.38075267  0.38241158  0.37839722  1
  O  O180  1  0.37182361  0.37679603  0.88736720  1
  O  O181  1  0.39789729  0.83514119  0.38220129  1
  O  O182  1  0.37853469  0.88488839  0.87474982  1
  O  O183  1  0.87998643  0.38358498  0.38218285  1
  O  O184  1  0.88200231  0.37004198  0.88754109  1
  O  O185  1  0.88818909  0.88673162  0.36797177  1
  O  O186  1  0.88042947  0.89178485  0.86659060  1
  O  O187  1  0.24116668  0.00446800  0.35888586  1
  O  O188  1  0.25556439  0.01540622  0.87998322  1
  O  O189  1  0.25832311  0.50417285  0.37270038  1
  O  O190  1  0.23858098  0.48535962  0.85513278  1
  O  O191  1  0.76205679  0.01142773  0.36223624  1
  O  O192  1  0.76478131  0.00205009  0.88321683  1
  O  O193  1  0.75815712  0.50246970  0.36866046  1
  O  O194  1  0.74582273  0.50682214  0.85028002  1
  O  O195  1  0.23687552  0.49431322  0.12444511  1
  O  O196  1  0.24234064  0.49258391  0.63164803  1
  O  O197  1  0.24145336  1.00127705  0.13106305  1
  O  O198  1  0.23428160  0.99066115  0.61760125  1
  O  O199  1  0.75850054  0.48803461  0.13540238  1
  O  O200  1  0.74111085  0.49489722  0.62805918  1
  O  O201  1  0.74786622  0.99549239  0.12716850  1
  O  O202  1  0.76886534  0.99342860  0.62229410  1
  O  O203  1  0.00634317  0.36580330  0.25378187  1
  O  O204  1  -0.01401124  0.36427906  0.76017004  1
  O  O205  1  0.00606383  0.86670926  0.25655750  1
  O  O206  1  0.00462452  0.86687040  0.74381884  1
  O  O207  1  0.50785913  0.37287098  0.25310886  1
  O  O208  1  0.50787624  0.36249678  0.73981138  1
  O  O209  1  0.50235720  0.86628262  0.24036856  1
  O  O210  1  0.49777179  0.86052485  0.73949064  1
  O  O211  1  0.49214083  0.13214205  0.24715294  1
  O  O212  1  0.49571703  0.13982259  0.74272475  1
  O  O213  1  0.49156618  0.62876009  0.23738955  1
  O  O214  1  0.49988063  0.62656852  0.74117354  1
  O  O215  1  1.00481495  0.13466912  0.24262600  1
  O  O216  1  0.99400570  0.13276178  0.74148347  1
  O  O217  1  1.00609979  0.63677896  0.24202010  1
  O  O218  1  1.00734642  0.63587309  0.73702270  1
  O  O219  1  0.36889668  0.25766357  0.00755078  1
  O  O220  1  0.36514902  0.25997419  0.50830317  1
  O  O221  1  0.37497569  0.74511971  0.00831197  1
  O  O222  1  0.35985572  0.74401482  0.51169580  1
  O  O223  1  0.86498063  0.25248935  0.00071107  1
  O  O224  1  0.87272566  0.26464975  0.49186195  1
  O  O225  1  0.86154184  0.75284497  0.01369056  1
  O  O226  1  0.86836275  0.74815265  0.50397837  1
  O  O227  1  0.12991105  0.24530424  0.49270164  1
  O  O228  1  0.13999838  0.25181630  1.00047436  1
  O  O229  1  0.12848115  0.74239483  0.49665007  1
  O  O230  1  0.11663452  0.73248928  1.00099103  1
  O  O231  1  0.62809677  0.25854331  0.48601144  1
  O  O232  1  0.62990970  0.24588845  0.99497586  1
  O  O233  1  0.64317032  0.74114345  0.48854375  1
  O  O234  1  0.63792784  0.75244858  0.99653431  1
  O  O235  1  0.49015752  0.24882065  0.13274232  1
  O  O236  1  0.49601884  0.24398005  0.63052070  1
  O  O237  1  0.48904513  0.73720728  0.11915069  1
  O  O238  1  0.48818631  0.73811631  0.63620008  1
  O  O239  1  0.99968537  0.24017892  0.13192493  1
  O  O240  1  1.00486258  0.23973292  0.62986280  1
  O  O241  1  0.99295617  0.74512710  0.13041515  1
  O  O242  1  0.98868607  0.74325758  0.62496979  1
  O  O243  1  0.00674825  0.25322392  0.36774528  1
  O  O244  1  0.00266120  0.25288442  0.86792798  1
  O  O245  1  0.00188988  0.75606540  0.36885474  1
  O  O246  1  -0.01219123  0.75739538  0.85833674  1
  O  O247  1  0.51270306  0.26111777  0.36661131  1
  O  O248  1  0.50921164  0.24558736  0.86524491  1
  O  O249  1  0.52584400  0.72278145  0.37555622  1
  O  O250  1  0.50065687  0.74766153  0.86227371  1
  O  O251  1  0.24320650  0.13183770  0.49625330  1
  O  O252  1  0.26130414  0.13448792  0.98408548  1
  O  O253  1  0.23889127  0.63292382  0.50071621  1
  O  O254  1  0.23113546  0.62922762  1.00088436  1
  O  O255  1  0.74098292  0.12944154  0.48930353  1
  O  O256  1  0.74076187  0.13437373  1.00088241  1
  O  O257  1  0.75237458  0.62760785  0.48728342  1
  O  O258  1  0.74740137  0.64515281  1.01471586  1
  O  O259  1  0.25911046  0.36468699  0.00495287  1
  O  O260  1  0.25378333  0.37095260  0.50801711  1
  O  O261  1  0.25179102  0.86544353  -0.00021751  1
  O  O262  1  0.24447992  0.86513685  0.50697695  1
  O  O263  1  0.75847865  0.36634497  0.00404297  1
  O  O264  1  0.75787151  0.37731275  0.50680594  1
  O  O265  1  0.74846265  0.86434716  0.01294435  1
  O  O266  1  0.75190142  0.85785534  0.49295599  1
  O  O267  1  0.12566912  0.49430511  0.23896368  1
  O  O268  1  0.13266320  0.50127303  0.73532181  1
  O  O269  1  0.13367675  0.99480218  0.23984338  1
  O  O270  1  0.11085468  0.99264471  0.73389347  1
  O  O271  1  0.63524156  0.48777054  0.25656387  1
  O  O272  1  0.63356724  0.49763125  0.73704363  1
  O  O273  1  0.63914550  1.01002637  0.23465754  1
  O  O274  1  0.63160901  0.99909830  0.75568881  1
  O  O275  1  0.36404032  0.00997334  0.23494420  1
  O  O276  1  0.38102854  0.01895619  0.74310286  1
  O  O277  1  0.37403307  0.50989371  0.25434783  1
  O  O278  1  0.35694596  0.49469255  0.74981739  1
  O  O279  1  0.87007558  0.00176318  0.25687886  1
  O  O280  1  0.87972142  0.01283130  0.76294583  1
  O  O281  1  0.86581966  0.48777442  0.26046397  1
  O  O282  1  0.85938060  0.50954283  0.73831869  1
  O  O283  1  0.11953673  0.36998655  0.36999480  1
  O  O284  1  0.10434930  0.37297832  0.88474345  1
  O  O285  1  0.11489549  0.86983326  0.36752709  1
  O  O286  1  0.12203120  0.88712590  0.85660196  1
  O  O287  1  0.62227064  0.37107374  0.36578211  1
  O  O288  1  0.63367482  0.36163484  0.86928037  1
  O  O289  1  0.61069023  0.85509994  0.38073719  1
  O  O290  1  0.62687517  0.85721777  0.87204744  1
  O  O291  1  0.37339012  0.13770431  0.13334272  1
  O  O292  1  0.38226574  0.13434082  0.62876681  1
  O  O293  1  0.38215748  0.62971019  0.12605534  1
  O  O294  1  0.38016306  0.63233773  0.62398933  1
  O  O295  1  0.88813276  0.12444508  0.12345917  1
  O  O296  1  0.88872810  0.12016540  0.63097439  1
  O  O297  1  0.88679184  0.63526777  0.12234933  1
  O  O298  1  0.88931084  0.62720269  0.61394952  1
  O  O299  1  0.25609014  0.25237931  0.11840381  1
  O  O300  1  0.25138296  0.25603971  0.62077286  1
  O  O301  1  0.26374039  0.74616868  0.12039701  1
  O  O302  1  0.25382518  0.75735027  0.61506438  1
  O  O303  1  0.74997743  0.25857929  0.11515761  1
  O  O304  1  0.74273152  0.26661383  0.62214463  1
  O  O305  1  0.75758350  0.75949473  0.12651853  1
  O  O306  1  0.76666733  0.74267367  0.60762117  1
  O  O307  1  0.24519349  0.24395713  0.37933855  1
  O  O308  1  0.24732953  0.24348946  0.88161965  1
  O  O309  1  0.24165327  0.74993753  0.38470628  1
  O  O310  1  0.25684124  0.74277318  0.86060631  1
  O  O311  1  0.74194578  0.24465203  0.37190817  1
  O  O312  1  0.74205552  0.24899341  0.88483643  1
  O  O313  1  0.75028793  0.74327952  0.37960550  1
  O  O314  1  0.75019112  0.75413914  0.89035990  1
  O  O315  1  0.00035752  0.11311744  0.00965738  1
  O  O316  1  0.00537220  0.11998853  0.50518619  1
  O  O317  1  -0.00051420  0.61616229  0.00306522  1
  O  O318  1  0.00668493  0.61810907  0.50385246  1
  O  O319  1  0.51031851  0.12234960  0.00339039  1
  O  O320  1  0.51873426  0.12191992  0.50461466  1
  O  O321  1  0.51181645  0.61809543  0.01220141  1
  O  O322  1  0.49953873  0.61058741  0.51035917  1
  O  O323  1  0.49384144  0.38671054  0.49682211  1
  O  O324  1  0.48409177  0.37259640  1.00699642  1
  O  O325  1  0.48638466  0.87645267  0.53085093  1
  O  O326  1  0.50226947  0.88954971  1.00323181  1
  O  O327  1  0.99317128  0.37881560  0.49393818  1
  O  O328  1  0.98748915  0.36583889  0.99437656  1
  O  O329  1  1.00871081  0.88513547  0.48758661  1
  O  O330  1  1.00435600  0.88991235  0.99792877  1
  O  O331  1  0.49569224  0.49804287  0.38240183  1
  O  O332  1  0.51152263  0.48993121  0.86894990  1
  O  O333  1  0.50473663  1.00195800  0.37115391  1
  O  O334  1  0.50049964  1.01033807  0.89201542  1
  O  O335  1  0.99408146  0.49421166  0.37678277  1
  O  O336  1  0.99407847  0.49072731  0.87456377  1
  O  O337  1  0.99717442  0.99586113  0.37625272  1
  O  O338  1  0.99215718  1.00282904  0.88270644  1
  O  O339  1  0.00565855  0.00501356  0.11981319  1
  O  O340  1  0.00457001  0.00741196  0.61406882  1
  O  O341  1  0.00632956  0.50895829  0.13273394  1
  O  O342  1  0.00555258  0.50275732  0.62103678  1
  O  O343  1  0.51160281  0.00406223  0.11489664  1
  O  O344  1  0.50079082  0.02266942  0.63430853  1
  O  O345  1  0.49862183  0.51185669  0.12530197  1
  O  O346  1  0.50481912  0.50303762  0.62140031  1
  O  O347  1  0.24226811  0.37456161  0.24247675  1
  O  O348  1  0.25040837  0.37598263  0.73573593  1
  O  O349  1  0.24668006  0.88329237  0.24576939  1
  O  O350  1  0.23240190  0.87060271  0.73414910  1
  O  O351  1  0.74357639  0.38020536  0.24198467  1
  O  O352  1  0.74548501  0.37960794  0.74029434  1
  O  O353  1  0.75361846  0.89066921  0.23920339  1
  O  O354  1  0.74554230  0.88007027  0.74801853  1
  O  O355  1  0.25636644  0.11879522  0.25414725  1
  O  O356  1  0.26152047  0.13501487  0.76162438  1
  O  O357  1  0.25919868  0.62290193  0.24856669  1
  O  O358  1  0.24401494  0.61008875  0.75352125  1
  O  O359  1  0.74637921  0.12040445  0.25830288  1
  O  O360  1  0.76156603  0.12395749  0.74859471  1
  O  O361  1  0.75005500  0.60927362  0.25584914  1
  O  O362  1  0.74197290  0.62253116  0.73473641  1
  O  O363  1  0.36916593  0.12509164  0.35998811  1
  O  O364  1  0.36852002  0.12381409  0.86466513  1
  O  O365  1  0.37436304  0.62552137  0.36177494  1
  O  O366  1  0.37266069  0.60546136  0.89582349  1
  O  O367  1  0.86540870  0.12016145  0.37855366  1
  O  O368  1  0.87267023  0.11686702  0.86619163  1
  O  O369  1  0.86898968  0.61074321  0.37729338  1
  O  O370  1  0.88589687  0.61176082  0.89221366  1
  O  O371  1  0.12630948  0.38254560  0.12637058  1
  O  O372  1  0.13259610  0.38564340  0.61502585  1
  O  O373  1  0.12609548  0.88432741  0.13146710  1
  O  O374  1  0.12771547  0.88187207  0.62829642  1
  O  O375  1  0.63534452  0.36792544  0.13449953  1
  O  O376  1  0.63175180  0.38584194  0.62932519  1
  O  O377  1  0.63616859  0.88794901  0.11931253  1
  O  O378  1  0.63431206  0.84231420  0.63323893  1
  O  O379  1  0.11716821  0.25531450  0.25386547  1
  O  O380  1  0.10875390  0.24731761  0.75105191  1
  O  O381  1  0.11623061  0.75421058  0.25268951  1
  O  O382  1  0.10757400  0.76152145  0.74490848  1
  O  O383  1  0.62146426  0.25910214  0.25728534  1
  O  O384  1  0.61925162  0.25405100  0.75700393  1
  O  O385  1  0.63309693  0.74609420  0.26530629  1
  O  O386  1  0.60497429  0.74594564  0.75766174  1
  O  O387  1  0.37839683  0.24307150  0.24363691  1
  O  O388  1  0.38422751  0.24793191  0.74313809  1
  O  O389  1  0.37484595  0.73865670  0.23386973  1
  O  O390  1  0.38267109  0.74620170  0.74389305  1
  O  O391  1  0.88920537  0.25778182  0.24936958  1
  O  O392  1  0.88474703  0.23809574  0.75586372  1
  O  O393  1  0.88644814  0.75544051  0.24303838  1
  O  O394  1  0.88066156  0.75344807  0.73017947  1
  O  O395  1  0.38048873  0.49645218  0.49577508  1
  O  O396  1  0.36842128  0.47914211  1.00622558  1
  O  O397  1  0.36182009  1.00099108  0.49178797  1
  O  O398  1  0.39264460  1.00191271  1.00808509  1
  O  O399  1  0.88108051  0.49043324  0.48932596  1
  O  O400  1  0.87495509  0.49136911  1.00215352  1
  O  O401  1  0.89071701  1.00627764  0.48391952  1
  O  O402  1  0.88424061  1.00482395  0.98605423  1
  O  O403  1  0.11926881  -0.00274222  0.01078471  1
  O  O404  1  0.11464824  0.00620360  0.50506690  1
  O  O405  1  0.12495170  0.51041249  0.01009137  1
  O  O406  1  0.11969985  0.50546468  0.50426106  1
  O  O407  1  0.61912976  0.00750725  0.00418107  1
  O  O408  1  0.63587875  0.00810213  0.50566356  1
  O  O409  1  0.64026404  0.49644883  0.00547902  1
  O  O410  1  0.61629663  0.49840091  0.50917987  1
  O  O411  1  0.36812024  0.36340344  0.12343451  1
  O  O412  1  0.36458486  0.37091371  0.61925599  1
  O  O413  1  0.37389358  0.85761100  0.11781980  1
  O  O414  1  0.35854834  0.86123316  0.63072940  1
  O  O415  1  0.86547240  0.36943889  0.11447357  1
  O  O416  1  0.86524853  0.38308694  0.61321540  1
  O  O417  1  0.86776964  0.86657588  0.12875983  1
  O  O418  1  0.88239782  0.86329618  0.61676217  1
  O  O419  1  0.13160627  0.13009013  0.37944543  1
  O  O420  1  0.14237685  0.12497210  0.86567738  1
  O  O421  1  0.12303741  0.62973446  0.38595848  1
  O  O422  1  0.11545194  0.62050309  0.88527953  1
  O  O423  1  0.63401494  0.13272658  0.38547271  1
  O  O424  1  0.62839147  0.13732716  0.88484026  1
  O  O425  1  0.64320192  0.62009670  0.37610494  1
  O  O426  1  0.62410661  0.64436272  0.88148208  1
