# generated using pymatgen
data_V85Zn86O256
_symmetry_space_group_name_H-M   'P 1'
_cell_length_a   16.97671706
_cell_length_b   16.97802687
_cell_length_c   16.98965364
_cell_angle_alpha   89.84073068
_cell_angle_beta   90.07760950
_cell_angle_gamma   89.97874494
_symmetry_Int_Tables_number   1
_chemical_formula_structural   V85Zn86O256
_chemical_formula_sum   'V85 Zn86 O256'
_cell_volume   4896.92379219
_cell_formula_units_Z   1
loop_
 _symmetry_equiv_pos_site_id
 _symmetry_equiv_pos_as_xyz
  1  'x, y, z'
loop_
 _atom_site_type_symbol
 _atom_site_label
 _atom_site_symmetry_multiplicity
 _atom_site_fract_x
 _atom_site_fract_y
 _atom_site_fract_z
 _atom_site_occupancy
  V  V0  1  0.87640053  0.50408687  0.86965567  1
  V  V1  1  0.87767177  0.87808216  0.00013030  1
  V  V2  1  0.75190221  0.75087090  0.00025801  1
  V  V3  1  0.75021922  0.48971831  0.75052466  1
  V  V4  1  0.87577099  0.86310941  0.50181690  1
  V  V5  1  0.62891095  0.24974463  0.37554922  1
  V  V6  1  0.25582953  0.61860474  0.86635442  1
  V  V7  1  0.50105038  0.62409656  0.62535913  1
  V  V8  1  0.00732875  0.62475475  0.12544802  1
  V  V9  1  0.75209150  0.88050202  0.12668098  1
  V  V10  1  0.37217779  -0.00318576  0.37192331  1
  V  V11  1  0.61088289  0.12403807  0.00153682  1
  V  V12  1  -0.00240489  0.12555567  0.62353347  1
  V  V13  1  0.25641177  0.61245634  0.38128004  1
  V  V14  1  0.50517452  0.86834748  0.37132689  1
  V  V15  1  0.87807366  0.24778665  0.12512048  1
  V  V16  1  0.62800461  0.49378408  0.62889318  1
  V  V17  1  0.49814750  0.49653987  0.50056858  1
  V  V18  1  0.12388932  0.13107617  -0.00529447  1
  V  V19  1  0.88642553  0.75136008  0.12644988  1
  V  V20  1  0.62620504  0.37296361  0.24704586  1
  V  V21  1  0.75084013  0.25047900  -0.00059196  1
  V  V22  1  0.12576042  0.49774474  0.64367175  1
  V  V23  1  0.62483634  0.87574657  0.74931432  1
  V  V24  1  0.62020059  0.62636708  0.00461992  1
  V  V25  1  0.12356724  0.87454231  0.74893325  1
  V  V26  1  0.49901321  0.75177107  0.75077313  1
  V  V27  1  0.75040600  0.00165869  0.74843515  1
  V  V28  1  0.12368729  0.38693013  0.23930715  1
  V  V29  1  0.87490484  -0.00489344  0.37297832  1
  V  V30  1  0.24081903  0.74616672  0.50136524  1
  V  V31  1  0.87052404  0.25500846  0.61279475  1
  V  V32  1  0.12330607  0.75122171  0.87416747  1
  V  V33  1  0.37955407  0.88402267  0.00158702  1
  V  V34  1  0.87459296  0.12742166  0.74817406  1
  V  V35  1  0.74937314  0.12689093  0.87457623  1
  V  V36  1  0.37311606  0.74723399  0.62832677  1
  V  V37  1  0.00869358  0.25321242  0.75435726  1
  V  V38  1  0.75420291  0.49939818  0.24863540  1
  V  V39  1  0.50124488  0.38284023  0.87062003  1
  V  V40  1  0.24594706  0.13392045  0.87144535  1
  V  V41  1  0.24944693  0.13333868  0.37154630  1
  V  V42  1  -0.00024974  -0.00360285  0.49954372  1
  V  V43  1  0.01094169  0.37327580  0.87060913  1
  V  V44  1  0.25392608  0.25464799  0.49523474  1
  V  V45  1  0.50361172  0.25312991  0.74637294  1
  V  V46  1  -0.01596638  0.74648960  0.74744360  1
  V  V47  1  0.37892905  0.24555336  0.12025433  1
  V  V48  1  0.88089073  0.12424804  0.24593494  1
  V  V49  1  0.24893406  0.37596908  0.63937515  1
  V  V50  1  0.00342139  0.50071321  0.00294967  1
  V  V51  1  0.75397097  0.62564353  0.86801799  1
  V  V52  1  0.60687379  0.00150724  0.12017175  1
  V  V53  1  0.12307883  0.12315975  0.49414552  1
  V  V54  1  0.11896944  0.61479380  0.50089805  1
  V  V55  1  0.24383165  -0.00266217  0.25048350  1
  V  V56  1  0.24515893  0.37677232  0.12039390  1
  V  V57  1  0.25287648  0.75523961  -0.00183346  1
  V  V58  1  0.12098555  0.00639318  0.12658182  1
  V  V59  1  0.62599528  0.63075429  0.49520059  1
  V  V60  1  0.00837507  0.24834585  0.24585132  1
  V  V61  1  0.74922560  0.63023490  0.37375385  1
  V  V62  1  0.06932337  0.30776846  0.41980414  1
  V  V63  1  0.24870523  0.87556883  0.62528845  1
  V  V64  1  0.87478392  0.00236731  0.87397133  1
  V  V65  1  0.61883878  0.50483284  0.12439576  1
  V  V66  1  -0.00011535  0.00474244  0.00361195  1
  V  V67  1  0.87550436  0.37548284  -0.00033570  1
  V  V68  1  0.62518082  0.75143312  0.87621046  1
  V  V69  1  0.75076417  0.12666142  0.37695881  1
  V  V70  1  -0.01104164  0.62202442  0.63132422  1
  V  V71  1  0.01125823  0.85879499  0.36561348  1
  V  V72  1  0.75606481  0.37500272  0.60533730  1
  V  V73  1  0.88235217  0.62675694  0.24938033  1
  V  V74  1  0.24164326  0.87716307  0.12270395  1
  V  V75  1  0.12378189  0.62610542  -0.00002142  1
  V  V76  1  0.62694201  0.25675559  0.86993242  1
  V  V77  1  0.62593430  0.12732255  0.49897807  1
  V  V78  1  0.75324591  0.86704502  0.62275349  1
  V  V79  1  -0.00159193  0.87659689  0.87362489  1
  V  V80  1  0.50153113  0.24148557  0.24220151  1
  V  V81  1  0.62330710  0.00211073  0.62236094  1
  V  V82  1  0.89267948  0.49038741  0.38321343  1
  V  V83  1  0.25246353  0.00027161  0.75362351  1
  V  V84  1  0.37664571  0.38062630  -0.00631944  1
  Zn  Zn85  1  0.62597101  0.87301941  0.25072952  1
  Zn  Zn86  1  0.75178335  0.37596482  0.12268636  1
  Zn  Zn87  1  0.74671612  0.00155886  0.24721884  1
  Zn  Zn88  1  0.74928268  0.74758589  0.50040422  1
  Zn  Zn89  1  0.37634900  0.24800899  0.62465819  1
  Zn  Zn90  1  0.28565350  0.53117145  0.21413265  1
  Zn  Zn91  1  0.37801371  0.12553020  0.74889901  1
  Zn  Zn92  1  0.37445106  0.37617375  0.50110886  1
  Zn  Zn93  1  0.37502947  0.60316932  0.75529949  1
  Zn  Zn94  1  0.50525606  0.88226599  0.88701579  1
  Zn  Zn95  1  0.38691697  0.00776033  0.87961297  1
  Zn  Zn96  1  0.49822798  0.37042012  0.37848515  1
  Zn  Zn97  1  0.38315685  0.49841510  0.36364534  1
  Zn  Zn98  1  0.53969149  0.72158056  0.26738719  1
  Zn  Zn99  1  0.37375882  0.87354424  0.49769272  1
  Zn  Zn100  1  0.41829897  0.66478806  0.18402832  1
  Zn  Zn101  1  0.12418503  0.00070414  0.62510345  1
  Zn  Zn102  1  0.24554058  0.25276195  -0.00761983  1
  Zn  Zn103  1  0.49655042  0.12696437  0.62356237  1
  Zn  Zn104  1  0.49518836  0.00032528  0.49767272  1
  Zn  Zn105  1  0.49663778  0.50710212  -0.00556272  1
  Zn  Zn106  1  0.37711468  0.12262356  0.24318297  1
  Zn  Zn107  1  0.19206764  0.18815306  0.18113678  1
  Zn  Zn108  1  0.18853999  0.18692794  0.68371305  1
  Zn  Zn109  1  0.24715558  0.69947441  0.19888811  1
  Zn  Zn110  1  0.18099391  0.68678455  0.68832146  1
  Zn  Zn111  1  0.69051230  0.18270923  0.18470649  1
  Zn  Zn112  1  0.68978873  0.19256303  0.68537418  1
  Zn  Zn113  1  0.69494215  0.69037642  0.18589514  1
  Zn  Zn114  1  0.68572603  0.68420208  0.68749823  1
  Zn  Zn115  1  0.32583519  0.34125587  0.29689392  1
  Zn  Zn116  1  0.31967958  0.31380563  0.81130078  1
  Zn  Zn117  1  0.29428677  0.81031658  0.31821246  1
  Zn  Zn118  1  0.31454449  0.81399473  0.81611793  1
  Zn  Zn119  1  0.81524423  0.31277378  0.31480691  1
  Zn  Zn120  1  0.82047859  0.31300990  0.81066511  1
  Zn  Zn121  1  0.81379771  0.81112546  0.30980148  1
  Zn  Zn122  1  0.80893955  0.81611307  0.81334035  1
  Zn  Zn123  1  0.18124381  0.44011978  0.44436195  1
  Zn  Zn124  1  0.19004094  0.43891896  0.93506771  1
  Zn  Zn125  1  0.18689368  0.93749057  0.43840463  1
  Zn  Zn126  1  0.18507653  0.94186328  0.93599981  1
  Zn  Zn127  1  0.68700549  0.44415843  0.43251100  1
  Zn  Zn128  1  0.68748185  0.43895023  0.93866599  1
  Zn  Zn129  1  0.68884390  0.93830112  0.43930099  1
  Zn  Zn130  1  0.68593462  0.94027743  0.94004377  1
  Zn  Zn131  1  0.30982608  0.06313000  0.06039998  1
  Zn  Zn132  1  0.31369945  0.06453021  0.56174478  1
  Zn  Zn133  1  0.30753093  0.56211915  0.04813590  1
  Zn  Zn134  1  0.31141457  0.56018749  0.57030456  1
  Zn  Zn135  1  0.81013449  0.06654172  0.05968177  1
  Zn  Zn136  1  0.81302080  0.06014895  0.56085513  1
  Zn  Zn137  1  0.81316178  0.56424726  0.06033781  1
  Zn  Zn138  1  0.81285676  0.55643437  0.55709196  1
  Zn  Zn139  1  0.44097286  0.43070627  0.18069130  1
  Zn  Zn140  1  0.43714235  0.43402553  0.68669980  1
  Zn  Zn141  1  0.41973364  0.83295369  0.19290793  1
  Zn  Zn142  1  0.43693881  0.93790678  0.68890770  1
  Zn  Zn143  1  0.94033774  0.43600300  0.18915829  1
  Zn  Zn144  1  0.93640131  0.43675860  0.68717827  1
  Zn  Zn145  1  0.94142321  0.93737288  0.18909982  1
  Zn  Zn146  1  0.93683644  0.93696848  0.68601786  1
  Zn  Zn147  1  0.06064511  0.05917718  0.31457652  1
  Zn  Zn148  1  0.06347920  0.06389899  0.81060672  1
  Zn  Zn149  1  0.07026443  0.56908243  0.31080882  1
  Zn  Zn150  1  0.06197942  0.56390101  0.81361912  1
  Zn  Zn151  1  0.55985666  0.05502016  0.30729153  1
  Zn  Zn152  1  0.56294484  0.06602310  0.81311863  1
  Zn  Zn153  1  0.56201357  0.55746728  0.31246663  1
  Zn  Zn154  1  0.56679622  0.56575424  0.81048471  1
  Zn  Zn155  1  0.43818203  0.18644768  0.43339864  1
  Zn  Zn156  1  0.43298679  0.19289427  0.93010526  1
  Zn  Zn157  1  0.43475923  0.68669284  0.43827253  1
  Zn  Zn158  1  0.43579377  0.69442154  0.93726896  1
  Zn  Zn159  1  0.93354658  0.18368321  0.43547297  1
  Zn  Zn160  1  0.93866466  0.18866934  0.93579208  1
  Zn  Zn161  1  0.93896734  0.68011168  0.43781949  1
  Zn  Zn162  1  0.93725655  0.69014270  0.93754286  1
  Zn  Zn163  1  0.05834368  0.31169978  0.06158338  1
  Zn  Zn164  1  0.06267802  0.31397067  0.58427287  1
  Zn  Zn165  1  0.07991622  0.80553763  0.19369415  1
  Zn  Zn166  1  0.05861294  0.80665032  0.56308565  1
  Zn  Zn167  1  0.56305993  0.31440166  0.05817986  1
  Zn  Zn168  1  0.56966251  0.31344736  0.56278517  1
  Zn  Zn169  1  0.55939487  0.80361827  0.07568570  1
  Zn  Zn170  1  0.55966574  0.81544178  0.55920682  1
  O  O171  1  0.13294085  0.11367975  0.11129957  1
  O  O172  1  0.11780448  0.12758563  0.60855276  1
  O  O173  1  0.11328405  0.63045399  0.10820212  1
  O  O174  1  0.12307803  0.61104041  0.62251145  1
  O  O175  1  0.63098175  0.11149376  0.11614207  1
  O  O176  1  0.63056742  0.11880816  0.61460121  1
  O  O177  1  0.63538237  0.61787245  0.11509542  1
  O  O178  1  0.62274011  0.61523014  0.61651113  1
  O  O179  1  0.38154720  0.37785686  0.38731012  1
  O  O180  1  0.38764241  0.36917970  0.88395181  1
  O  O181  1  0.37574154  0.88273973  0.37581318  1
  O  O182  1  0.37478823  0.87751106  0.89102485  1
  O  O183  1  0.87743822  0.39162341  0.36319220  1
  O  O184  1  0.88206464  0.38639313  0.88144296  1
  O  O185  1  0.88163446  0.87965344  0.38017132  1
  O  O186  1  0.87752782  0.88295832  0.88007854  1
  O  O187  1  0.25084741  0.00679051  0.36923447  1
  O  O188  1  0.25020237  0.00692365  0.86381088  1
  O  O189  1  0.25645982  0.50965794  0.39736766  1
  O  O190  1  0.24559919  0.52018386  0.87898803  1
  O  O191  1  0.76016681  0.00498296  0.37136610  1
  O  O192  1  0.75473791  0.00582749  0.86866796  1
  O  O193  1  0.75813422  0.50810131  0.36204610  1
  O  O194  1  0.75561564  0.50586677  0.86936253  1
  O  O195  1  0.24679498  0.47979289  0.11465920  1
  O  O196  1  0.23934129  0.48596712  0.62347942  1
  O  O197  1  0.24142415  0.99736025  0.13104693  1
  O  O198  1  0.24801794  0.98983710  0.63120677  1
  O  O199  1  0.74579049  0.50061270  0.13523952  1
  O  O200  1  0.74892296  0.49338023  0.63163016  1
  O  O201  1  0.75592328  0.98816527  0.12391786  1
  O  O202  1  0.74195166  0.99234275  0.62775771  1
  O  O203  1  0.01536322  0.36537818  0.24244923  1
  O  O204  1  -0.00624916  0.36635374  0.75909521  1
  O  O205  1  0.00308184  0.86937686  0.25929114  1
  O  O206  1  0.00307037  0.86760972  0.75300204  1
  O  O207  1  0.51639742  0.36581722  0.25076087  1
  O  O208  1  0.50102699  0.36414155  0.75812677  1
  O  O209  1  0.49816042  0.87715231  0.26732090  1
  O  O210  1  0.50791558  0.86221383  0.74278973  1
  O  O211  1  0.49797566  0.13767960  0.25219738  1
  O  O212  1  0.50190042  0.13917910  0.74731906  1
  O  O213  1  0.48529345  0.62370363  0.26724050  1
  O  O214  1  0.50189643  0.63805857  0.74523125  1
  O  O215  1  0.98757518  0.13242646  0.25900826  1
  O  O216  1  0.99358678  0.13061739  0.74437986  1
  O  O217  1  0.99373276  0.61802557  0.23736767  1
  O  O218  1  1.00171072  0.63195651  0.74068587  1
  O  O219  1  0.37511715  0.26055106  0.00507317  1
  O  O220  1  0.36399884  0.24772592  0.50228198  1
  O  O221  1  0.35935232  0.75976796  -0.00371955  1
  O  O222  1  0.36501386  0.74826013  0.51590220  1
  O  O223  1  0.87222771  0.25333844  0.00723938  1
  O  O224  1  0.87923091  0.24441124  0.51355115  1
  O  O225  1  0.87317396  0.75668299  0.00804993  1
  O  O226  1  0.87431901  0.76028155  0.49733193  1
  O  O227  1  0.12619390  0.24652749  0.48939861  1
  O  O228  1  0.12197343  0.23499808  1.00533163  1
  O  O229  1  0.13451896  0.73322199  0.51556028  1
  O  O230  1  0.12868205  0.74119696  0.98241481  1
  O  O231  1  0.62253164  0.24059905  0.48639354  1
  O  O232  1  0.63171129  0.24375133  0.99341217  1
  O  O233  1  0.62527325  0.73438386  0.50598885  1
  O  O234  1  0.63091946  0.74489121  0.99873028  1
  O  O235  1  0.49276324  0.25764324  0.13137953  1
  O  O236  1  0.50583975  0.25140613  0.63461591  1
  O  O237  1  0.49407260  0.75187397  0.15194542  1
  O  O238  1  0.49256985  0.74544646  0.63022851  1
  O  O239  1  0.98622893  0.25000184  0.13119801  1
  O  O240  1  0.98960612  0.24518860  0.63379419  1
  O  O241  1  0.99198924  0.74354653  0.12805384  1
  O  O242  1  1.00492249  0.73390745  0.63603996  1
  O  O243  1  0.00058744  0.25079013  0.36634286  1
  O  O244  1  -0.00857577  0.26118005  0.86600160  1
  O  O245  1  -0.00222079  0.76053772  0.37852456  1
  O  O246  1  0.00468683  0.75478011  0.86814559  1
  O  O247  1  0.51338742  0.24974677  0.36402591  1
  O  O248  1  0.50959956  0.25878204  0.86685657  1
  O  O249  1  0.49412404  0.76477335  0.37759075  1
  O  O250  1  0.50617666  0.75629814  0.86575382  1
  O  O251  1  0.23995220  0.13433007  0.49491463  1
  O  O252  1  0.24112624  0.12597425  0.98789099  1
  O  O253  1  0.23882448  0.62749431  0.50357763  1
  O  O254  1  0.24067157  0.63556297  0.98741549  1
  O  O255  1  0.74154538  0.11823436  0.48609997  1
  O  O256  1  0.74476274  0.13313536  0.99172703  1
  O  O257  1  0.74379049  0.62426293  0.49219408  1
  O  O258  1  0.74312359  0.63087657  0.99107204  1
  O  O259  1  0.25674366  0.37160222  -0.00036125  1
  O  O260  1  0.24468309  0.36235920  0.50246865  1
  O  O261  1  0.25260565  0.87368073  0.00206133  1
  O  O262  1  0.24680473  0.86510869  0.50990674  1
  O  O263  1  0.75802394  0.36910925  -0.00004281  1
  O  O264  1  0.75085794  0.38255808  0.50647680  1
  O  O265  1  0.75824200  0.87120998  0.00638651  1
  O  O266  1  0.75706664  0.87137592  0.50512362  1
  O  O267  1  0.12298770  0.48557711  0.24756368  1
  O  O268  1  0.12923536  0.50294344  0.74244288  1
  O  O269  1  0.13230576  1.01160481  0.24004358  1
  O  O270  1  0.13306628  0.99313224  0.74608993  1
  O  O271  1  0.63411647  0.49338191  0.24355528  1
  O  O272  1  0.63646980  0.50737437  0.73709452  1
  O  O273  1  0.62808481  0.99734591  0.23357795  1
  O  O274  1  0.63231911  0.99691419  0.73989699  1
  O  O275  1  0.35822954  0.00649202  0.26236487  1
  O  O276  1  0.36076009  -0.00073404  0.74942756  1
  O  O277  1  0.36347626  0.46200711  0.25547357  1
  O  O278  1  0.37423512  0.49445029  0.75088313  1
  O  O279  1  0.87849119  0.00733171  0.25844271  1
  O  O280  1  0.86989548  0.00628772  0.75412000  1
  O  O281  1  0.87016380  0.50911178  0.24944437  1
  O  O282  1  0.86746497  0.49950942  0.76284820  1
  O  O283  1  0.12803453  0.37089734  0.36112006  1
  O  O284  1  0.10983258  0.38029944  0.87940347  1
  O  O285  1  0.10886881  0.87590823  0.38178021  1
  O  O286  1  0.11845071  0.86914827  0.86925025  1
  O  O287  1  0.62922202  0.36564386  0.36491814  1
  O  O288  1  0.61883844  0.36335989  0.88331708  1
  O  O289  1  0.60875125  0.88605092  0.37518147  1
  O  O290  1  0.62808377  0.86845483  0.86884528  1
  O  O291  1  0.36555301  0.14115030  0.12429375  1
  O  O292  1  0.37826885  0.12893588  0.62895744  1
  O  O293  1  0.32368164  0.61953892  0.14398970  1
  O  O294  1  0.37977573  0.63427133  0.63164938  1
  O  O295  1  0.86788863  0.13378924  0.13625711  1
  O  O296  1  0.87747578  0.13106057  0.62826728  1
  O  O297  1  0.88418419  0.63257706  0.12784200  1
  O  O298  1  0.89112690  0.61512378  0.61987036  1
  O  O299  1  0.25831224  0.25999542  0.11745091  1
  O  O300  1  0.24269512  0.26212200  0.61390364  1
  O  O301  1  0.23213571  0.76663914  0.10265340  1
  O  O302  1  0.25527916  0.75611673  0.62469051  1
  O  O303  1  0.76109063  0.25193712  0.11994597  1
  O  O304  1  0.75798925  0.26388299  0.62902911  1
  O  O305  1  0.76383676  0.75988430  0.11800611  1
  O  O306  1  0.74437078  0.76377939  0.62591719  1
  O  O307  1  0.25339163  0.23838313  0.38160887  1
  O  O308  1  0.25178254  0.23809293  0.87061370  1
  O  O309  1  0.25320450  0.73415489  0.39625381  1
  O  O310  1  0.23932837  0.74825682  0.87911247  1
  O  O311  1  0.74089576  0.23878068  0.36626378  1
  O  O312  1  0.74557870  0.24780131  0.87791152  1
  O  O313  1  0.76058467  0.73325784  0.37706839  1
  O  O314  1  0.74652818  0.74375079  0.87981975  1
  O  O315  1  0.00685405  0.11217845  -0.01013937  1
  O  O316  1  0.00562242  0.11852829  0.50113576  1
  O  O317  1  0.00423589  0.62033486  0.00387136  1
  O  O318  1  0.01270071  0.63211362  0.51618250  1
  O  O319  1  0.51248200  0.13329178  -0.00733473  1
  O  O320  1  0.51378674  0.12207709  0.49967761  1
  O  O321  1  0.51476499  0.62712067  -0.00769021  1
  O  O322  1  0.50795891  0.61831807  0.50517410  1
  O  O323  1  0.50277508  0.38495918  0.50286250  1
  O  O324  1  0.49389087  0.37787574  0.98964809  1
  O  O325  1  0.49415654  0.87949199  0.48920087  1
  O  O326  1  0.48153374  0.86352670  1.00691748  1
  O  O327  1  1.02049973  0.36340228  0.48483195  1
  O  O328  1  0.99552224  0.38352232  0.99345617  1
  O  O329  1  0.99240405  0.87647173  0.49474023  1
  O  O330  1  0.99262474  0.89227559  0.98961071  1
  O  O331  1  0.50327106  0.49419307  0.38943316  1
  O  O332  1  0.51459401  0.48715589  0.87473974  1
  O  O333  1  0.48713363  0.99369349  0.37427934  1
  O  O334  1  0.49785945  0.99127294  0.86192157  1
  O  O335  1  0.99091296  0.50666165  0.36876552  1
  O  O336  1  0.99237668  0.49678061  0.88063550  1
  O  O337  1  0.99037333  0.99029887  0.37929848  1
  O  O338  1  0.99342829  0.99589231  0.87756169  1
  O  O339  1  0.00705658  -0.00265476  0.11468464  1
  O  O340  1  0.00055746  0.00703569  0.61809766  1
  O  O341  1  -0.00708096  0.50968214  0.11107532  1
  O  O342  1  0.01243799  0.51047294  0.63573769  1
  O  O343  1  0.51215212  -0.00284277  0.12234386  1
  O  O344  1  0.51367868  0.00103805  0.62462873  1
  O  O345  1  0.51550900  0.49777977  0.12264094  1
  O  O346  1  0.51224883  0.50329195  0.62112403  1
  O  O347  1  0.23011301  0.36327508  0.23714593  1
  O  O348  1  0.24853976  0.36482756  0.73702294  1
  O  O349  1  0.24967946  0.89104181  0.24065621  1
  O  O350  1  0.24465186  0.88011130  0.74406400  1
  O  O351  1  0.74211477  0.38249960  0.24872392  1
  O  O352  1  0.75256386  0.38796254  0.74907431  1
  O  O353  1  0.75461806  0.87934715  0.23774086  1
  O  O354  1  0.74530891  0.88148155  0.74145739  1
  O  O355  1  0.24978412  0.12071360  0.25859023  1
  O  O356  1  0.24606003  0.11616700  0.75421868  1
  O  O357  1  0.23377450  0.60948577  0.28085409  1
  O  O358  1  0.24997246  0.63433349  0.76397419  1
  O  O359  1  0.76145336  0.12229334  0.25957787  1
  O  O360  1  0.75456077  0.12077234  0.75435614  1
  O  O361  1  0.76082689  0.61656600  0.25421465  1
  O  O362  1  0.74637009  0.61787372  0.76311719  1
  O  O363  1  0.36396099  0.11743550  0.37384510  1
  O  O364  1  0.36243036  0.12294625  0.87045547  1
  O  O365  1  0.36058820  0.61754692  0.38439939  1
  O  O366  1  0.35983719  0.63414175  0.87454942  1
  O  O367  1  0.86825860  0.11619638  0.36889598  1
  O  O368  1  0.86857926  0.12121480  0.86881057  1
  O  O369  1  0.87201884  0.61550802  0.36529497  1
  O  O370  1  0.86524052  0.61553387  0.88435367  1
  O  O371  1  0.12914629  0.37060262  0.13107925  1
  O  O372  1  0.13370258  0.38865206  0.62592286  1
  O  O373  1  0.13241317  0.89309210  0.12472216  1
  O  O374  1  0.13422705  0.87219733  0.63019429  1
  O  O375  1  0.62999210  0.38372181  0.13137160  1
  O  O376  1  0.63880518  0.38748125  0.62026180  1
  O  O377  1  0.63520128  0.88744263  0.11940629  1
  O  O378  1  0.63265187  0.88371256  0.62657060  1
  O  O379  1  0.11105181  0.24646305  0.24285864  1
  O  O380  1  0.10751122  0.24434067  0.74228750  1
  O  O381  1  0.15722998  0.74934317  0.24623404  1
  O  O382  1  0.11623513  0.75484359  0.75983729  1
  O  O383  1  0.62234862  0.25392856  0.25200921  1
  O  O384  1  0.62109961  0.24569382  0.76260096  1
  O  O385  1  0.64165610  0.76003019  0.25333267  1
  O  O386  1  0.61837061  0.75440901  0.75476120  1
  O  O387  1  0.38618810  0.25551868  0.23871737  1
  O  O388  1  0.38985780  0.24873570  0.74617519  1
  O  O389  1  0.34953637  0.75257780  0.23885653  1
  O  O390  1  0.38401161  0.75380459  0.74185401  1
  O  O391  1  0.88338647  0.24435425  0.24443213  1
  O  O392  1  0.88191111  0.24328216  0.74093062  1
  O  O393  1  0.86988071  0.73587315  0.23921788  1
  O  O394  1  0.88478557  0.75351240  0.75507551  1
  O  O395  1  0.39277638  0.50247592  0.51065321  1
  O  O396  1  0.38040017  0.48710847  1.00414260  1
  O  O397  1  0.37118599  0.99824515  0.48694410  1
  O  O398  1  0.37122501  0.98789066  0.99890917  1
  O  O399  1  0.87687650  0.50249462  0.48169507  1
  O  O400  1  0.88297014  0.49688865  0.99145538  1
  O  O401  1  0.87902161  0.99167299  0.48902924  1
  O  O402  1  0.88122509  1.00004041  0.99396310  1
  O  O403  1  0.11722140  0.00770763  0.00535958  1
  O  O404  1  0.11942416  0.00816379  0.50312509  1
  O  O405  1  0.11207171  0.51281878  -0.01006808  1
  O  O406  1  0.12271227  0.51112944  0.51488531  1
  O  O407  1  0.62881305  0.00960299  0.00989118  1
  O  O408  1  0.62511285  0.00915736  0.50788804  1
  O  O409  1  0.62762807  0.50956424  0.00867771  1
  O  O410  1  0.61999142  0.50878960  0.50835066  1
  O  O411  1  0.36767634  0.36522610  0.11261508  1
  O  O412  1  0.35798392  0.37104706  0.61902386  1
  O  O413  1  0.35415978  0.87966276  0.10982508  1
  O  O414  1  0.36372992  0.86689798  0.62456857  1
  O  O415  1  0.87469499  0.36618791  0.11937474  1
  O  O416  1  0.86773441  0.36798015  0.62702869  1
  O  O417  1  0.87332790  0.86880329  0.12082348  1
  O  O418  1  0.86429869  0.88367859  0.61306088  1
  O  O419  1  0.13226603  0.11972756  0.38622331  1
  O  O420  1  0.13363823  0.11819776  0.88337845  1
  O  O421  1  0.13034781  0.61741735  0.39693207  1
  O  O422  1  0.13009858  0.63358301  0.87893915  1
  O  O423  1  0.63232080  0.12822559  0.37775033  1
  O  O424  1  0.63175261  0.13474301  0.88260138  1
  O  O425  1  0.63765554  0.61502450  0.38366727  1
  O  O426  1  0.63522610  0.63149164  0.88339580  1
