# generated using pymatgen
data_V85Zn86O256
_symmetry_space_group_name_H-M   'P 1'
_cell_length_a   16.98161178
_cell_length_b   16.98725547
_cell_length_c   16.96870056
_cell_angle_alpha   90.04471505
_cell_angle_beta   89.80031944
_cell_angle_gamma   90.18192220
_symmetry_Int_Tables_number   1
_chemical_formula_structural   V85Zn86O256
_chemical_formula_sum   'V85 Zn86 O256'
_cell_volume   4894.92179104
_cell_formula_units_Z   1
loop_
 _symmetry_equiv_pos_site_id
 _symmetry_equiv_pos_as_xyz
  1  'x, y, z'
loop_
 _atom_site_type_symbol
 _atom_site_label
 _atom_site_symmetry_multiplicity
 _atom_site_fract_x
 _atom_site_fract_y
 _atom_site_fract_z
 _atom_site_occupancy
  V  V0  1  0.88125467  0.49730245  0.38186135  1
  V  V1  1  -0.00070987  0.12304264  0.62643772  1
  V  V2  1  0.74938871  0.37507654  0.12303198  1
  V  V3  1  0.25199687  0.87623634  0.12977566  1
  V  V4  1  0.24912255  0.62662606  0.87537071  1
  V  V5  1  0.74826322  -0.00239880  0.74279115  1
  V  V6  1  0.88250385  0.62981667  0.75043534  1
  V  V7  1  0.87543248  -0.00006617  0.37068659  1
  V  V8  1  0.61706616  0.24379152  0.37710321  1
  V  V9  1  0.11116665  0.75471327  0.87423796  1
  V  V10  1  0.24792219  0.86852848  0.62385379  1
  V  V11  1  0.24902899  -0.00133452  0.75007887  1
  V  V12  1  0.25992247  0.25415919  -0.00194159  1
  V  V13  1  0.12267790  -0.00289206  0.62564331  1
  V  V14  1  0.50111483  0.62418209  0.62563764  1
  V  V15  1  0.49503837  0.38080820  0.38129411  1
  V  V16  1  0.12660593  0.24787278  0.37539546  1
  V  V17  1  0.00277814  0.37702825  0.87442238  1
  V  V18  1  0.49797834  0.74375411  0.25138334  1
  V  V19  1  0.50227632  0.87574273  0.87759629  1
  V  V20  1  0.12652318  0.63273513  0.49992488  1
  V  V21  1  0.00146828  0.50040965  0.00115733  1
  V  V22  1  0.50612438  0.01393964  0.00064557  1
  V  V23  1  -0.00002008  0.62651013  0.61980213  1
  V  V24  1  0.37389146  0.00238720  0.37029713  1
  V  V25  1  0.49835283  0.37385310  0.87616518  1
  V  V26  1  0.75134233  0.50243369  0.75031731  1
  V  V27  1  0.87694364  0.62884738  0.25235615  1
  V  V28  1  0.12362099  0.49354711  0.61881763  1
  V  V29  1  0.25283648  0.75129272  -0.00110117  1
  V  V30  1  0.37664125  0.74418178  0.13063080  1
  V  V31  1  0.87342694  0.25283120  0.12468252  1
  V  V32  1  0.37099379  0.87265360  0.50133448  1
  V  V33  1  0.74732805  0.12648708  0.38399492  1
  V  V34  1  0.00057392  0.63039586  0.13068052  1
  V  V35  1  0.25117633  0.12565630  0.87336047  1
  V  V36  1  0.00075608  0.25306222  0.25072871  1
  V  V37  1  0.26043350  0.37653870  0.12077099  1
  V  V38  1  0.37815912  0.00108225  0.87402099  1
  V  V39  1  0.24757755  0.49543787  0.74600190  1
  V  V40  1  0.87126887  0.75326374  0.12497470  1
  V  V41  1  0.87550429  0.25027562  0.62463503  1
  V  V42  1  0.24880436  0.25474388  0.50457227  1
  V  V43  1  0.50136904  0.75088941  0.74988429  1
  V  V44  1  0.37300395  0.49572688  0.88112273  1
  V  V45  1  0.12610227  0.50215183  0.12564506  1
  V  V46  1  0.74839015  0.49937002  0.25336333  1
  V  V47  1  0.37260901  0.74980456  0.62478649  1
  V  V48  1  0.26353600  0.62851150  0.37721814  1
  V  V49  1  0.25349559  0.12438686  0.36912375  1
  V  V50  1  0.62950839  0.87748447  0.73824320  1
  V  V51  1  0.75277922  0.37521631  0.62430198  1
  V  V52  1  0.62748759  0.24287835  0.88012839  1
  V  V53  1  0.50922999  0.50615576  -0.00015418  1
  V  V54  1  0.12678884  0.37804356  0.25133798  1
  V  V55  1  0.74487664  0.75691736  0.49802610  1
  V  V56  1  0.87765823  0.50168547  0.87556378  1
  V  V57  1  0.75155138  0.75680870  0.00156378  1
  V  V58  1  0.74715886  0.00427202  0.25203980  1
  V  V59  1  0.38224878  0.12500138  0.74238233  1
  V  V60  1  0.87275512  0.75781356  0.62683975  1
  V  V61  1  0.26544680  0.50494237  0.25577520  1
  V  V62  1  0.00311925  0.12632503  0.11957111  1
  V  V63  1  0.62336356  0.49872418  0.62313735  1
  V  V64  1  0.12792308  0.00329162  0.12464437  1
  V  V65  1  0.74707697  0.23938001  -0.00043904  1
  V  V66  1  0.87053777  0.12558648  0.76425815  1
  V  V67  1  0.11868795  0.74971254  0.36681197  1
  V  V68  1  0.62496033  0.86884295  0.25005487  1
  V  V69  1  0.61907250  0.36894582  0.24835699  1
  V  V70  1  0.62098804  0.01387100  0.12228440  1
  V  V71  1  0.12735751  0.25066823  0.87479068  1
  V  V72  1  0.37751127  0.25591896  0.62594908  1
  V  V73  1  0.51024664  0.00664683  0.50598535  1
  V  V74  1  0.37489714  0.62493359  0.74923730  1
  V  V75  1  0.62123739  0.37216646  0.75219581  1
  V  V76  1  0.38256596  0.23847289  0.13469894  1
  V  V77  1  0.50366371  0.87160807  0.37572251  1
  V  V78  1  0.62525379  0.74699991  0.88043187  1
  V  V79  1  0.00145917  0.24990969  0.75225363  1
  V  V80  1  0.87246722  -0.01924346  0.88484068  1
  V  V81  1  0.11108466  0.87119944  0.75458563  1
  V  V82  1  -0.00118427  -0.00342800  0.49622350  1
  V  V83  1  0.62636202  0.62543770  0.49362635  1
  V  V84  1  0.74690474  0.62549681  0.88080065  1
  Zn  Zn85  1  0.36861892  0.38080619  0.50038630  1
  Zn  Zn86  1  0.12910714  0.37220397  0.74485715  1
  Zn  Zn87  1  0.12640238  0.12369013  -0.00355260  1
  Zn  Zn88  1  0.88138106  0.38100371  0.50525606  1
  Zn  Zn89  1  0.25632213  0.00583926  0.24614750  1
  Zn  Zn90  1  0.37882360  0.87760755  0.00223922  1
  Zn  Zn91  1  0.87498047  0.37680554  -0.00150670  1
  Zn  Zn92  1  -0.01238979  0.86275080  0.36347559  1
  Zn  Zn93  1  0.00431378  0.37857561  0.38526659  1
  Zn  Zn94  1  0.86868011  0.87816731  0.50285837  1
  Zn  Zn95  1  0.87411962  0.12601052  0.24965005  1
  Zn  Zn96  1  0.48986114  0.50568917  0.49482109  1
  Zn  Zn97  1  0.12130978  0.87350126  0.24934607  1
  Zn  Zn98  1  0.74757116  0.24501101  0.50348073  1
  Zn  Zn99  1  0.12567190  0.12301888  0.49952478  1
  Zn  Zn100  1  0.00235568  -0.02437334  -0.01256233  1
  Zn  Zn101  1  0.74745558  0.62915502  0.37363188  1
  Zn  Zn102  1  0.74971697  0.88185037  0.11884637  1
  Zn  Zn103  1  0.12348743  0.62771873  -0.00011210  1
  Zn  Zn104  1  0.50549275  0.62965883  0.11857240  1
  Zn  Zn105  1  0.63072813  0.50640965  0.12046586  1
  Zn  Zn106  1  0.51946100  0.11992219  0.62837121  1
  Zn  Zn107  1  0.19170636  0.18951685  0.18554111  1
  Zn  Zn108  1  0.18923416  0.18471609  0.68667909  1
  Zn  Zn109  1  0.19068098  0.68567194  0.19033427  1
  Zn  Zn110  1  0.18449747  0.68731113  0.69226953  1
  Zn  Zn111  1  0.55030497  0.18990634  0.19316881  1
  Zn  Zn112  1  0.69131316  0.18418552  0.69757025  1
  Zn  Zn113  1  0.68409640  0.68367444  0.18658184  1
  Zn  Zn114  1  0.68929404  0.68874049  0.68717774  1
  Zn  Zn115  1  0.31280698  0.31010548  0.31125554  1
  Zn  Zn116  1  0.31451715  0.31253311  0.80756152  1
  Zn  Zn117  1  0.31177609  0.81143874  0.31422930  1
  Zn  Zn118  1  0.31065330  0.81455096  0.81077478  1
  Zn  Zn119  1  0.80893365  0.31233452  0.31185569  1
  Zn  Zn120  1  0.81154849  0.31378964  0.81390629  1
  Zn  Zn121  1  0.80951788  0.81497527  0.31249029  1
  Zn  Zn122  1  0.81151595  0.81342219  0.81110730  1
  Zn  Zn123  1  0.18964410  0.44098340  0.43771211  1
  Zn  Zn124  1  0.18673746  0.43698957  0.93792510  1
  Zn  Zn125  1  0.18794830  0.93656862  0.43847669  1
  Zn  Zn126  1  0.18802765  0.93621049  0.93856661  1
  Zn  Zn127  1  0.68489233  0.43501251  0.43799050  1
  Zn  Zn128  1  0.68868744  0.43553642  0.93660402  1
  Zn  Zn129  1  0.68721551  0.93645774  0.43834497  1
  Zn  Zn130  1  0.68970289  0.94229482  0.93358686  1
  Zn  Zn131  1  0.31627169  0.06411649  0.05712631  1
  Zn  Zn132  1  0.31177781  0.06233425  0.55820619  1
  Zn  Zn133  1  0.31431633  0.56433594  0.06354549  1
  Zn  Zn134  1  0.30996962  0.56133233  0.56093391  1
  Zn  Zn135  1  0.81275420  0.06345890  0.06412299  1
  Zn  Zn136  1  0.81374277  0.06335361  0.56469332  1
  Zn  Zn137  1  0.81394409  0.56454919  0.06288847  1
  Zn  Zn138  1  0.80883021  0.56768722  0.56353762  1
  Zn  Zn139  1  0.44046045  0.43241251  0.18527970  1
  Zn  Zn140  1  0.43713540  0.43817378  0.68774345  1
  Zn  Zn141  1  0.44043377  0.93742928  0.18696643  1
  Zn  Zn142  1  0.43950299  0.93808207  0.68757135  1
  Zn  Zn143  1  0.93742959  0.44077649  0.19001487  1
  Zn  Zn144  1  0.94212523  0.44002222  0.68980872  1
  Zn  Zn145  1  0.95914209  0.91490625  0.16151711  1
  Zn  Zn146  1  0.93365353  0.94131106  0.69139235  1
  Zn  Zn147  1  0.06412754  0.06246402  0.30732152  1
  Zn  Zn148  1  0.05895269  0.05998428  0.81446591  1
  Zn  Zn149  1  0.06460112  0.56410582  0.31321274  1
  Zn  Zn150  1  0.06511340  0.56638248  0.81099306  1
  Zn  Zn151  1  0.56028936  0.05859511  0.31516030  1
  Zn  Zn152  1  0.56558835  0.06200794  0.81178550  1
  Zn  Zn153  1  0.56238344  0.55998525  0.31007187  1
  Zn  Zn154  1  0.56258123  0.56088376  0.81114564  1
  Zn  Zn155  1  0.43546595  0.18784673  0.43834524  1
  Zn  Zn156  1  0.43805555  0.19083786  0.93458458  1
  Zn  Zn157  1  0.44089354  0.69028780  0.44032987  1
  Zn  Zn158  1  0.43434870  0.68681136  0.93718948  1
  Zn  Zn159  1  0.93751537  0.18531084  0.43816021  1
  Zn  Zn160  1  0.93822635  0.19141452  0.94110322  1
  Zn  Zn161  1  0.93610197  0.68347565  0.44191195  1
  Zn  Zn162  1  0.93432057  0.68669969  0.94515526  1
  Zn  Zn163  1  0.06878562  0.31434661  0.05981124  1
  Zn  Zn164  1  0.05950408  0.31145138  0.55830607  1
  Zn  Zn165  1  0.06514942  0.81120077  0.05971827  1
  Zn  Zn166  1  0.05949171  0.81155558  0.55952951  1
  Zn  Zn167  1  0.56023473  0.31947732  0.05565261  1
  Zn  Zn168  1  0.58260561  0.27634076  0.58183359  1
  Zn  Zn169  1  0.56551598  0.81662869  0.06517820  1
  Zn  Zn170  1  0.55959231  0.81230620  0.55904065  1
  O  O171  1  0.12229807  0.12130380  0.12198911  1
  O  O172  1  0.11685214  0.11465304  0.62633828  1
  O  O173  1  0.11682142  0.62114684  0.12678566  1
  O  O174  1  0.11793991  0.62519720  0.61898907  1
  O  O175  1  0.62049614  0.11137331  0.13017791  1
  O  O176  1  0.61867313  0.17075505  0.61733362  1
  O  O177  1  0.61657892  0.61680788  0.12987441  1
  O  O178  1  0.62099526  0.61925085  0.62008072  1
  O  O179  1  0.39320412  0.36403224  0.37219975  1
  O  O180  1  0.38637573  0.38486446  0.86268037  1
  O  O181  1  0.37809753  0.88016677  0.38437525  1
  O  O182  1  0.38768892  0.88106368  0.87239363  1
  O  O183  1  0.87285947  0.38910830  0.37369179  1
  O  O184  1  0.88331871  0.38393782  0.87441247  1
  O  O185  1  0.87272569  0.88658602  0.37981716  1
  O  O186  1  0.87732525  0.88133645  0.87479508  1
  O  O187  1  0.25622456  0.00655191  0.37540910  1
  O  O188  1  0.25763884  0.00444146  0.87132651  1
  O  O189  1  0.24729726  0.50975864  0.36250009  1
  O  O190  1  0.25488472  0.50533708  0.86917844  1
  O  O191  1  0.75528909  0.00562214  0.37370625  1
  O  O192  1  0.76500994  -0.00332847  0.86577521  1
  O  O193  1  0.75757283  0.49873642  0.36526507  1
  O  O194  1  0.75570392  0.50804020  0.87117351  1
  O  O195  1  0.24852163  0.49633260  0.13450306  1
  O  O196  1  0.23369769  0.51115128  0.63497474  1
  O  O197  1  0.24784667  0.99352996  0.12236520  1
  O  O198  1  0.24267743  0.99032978  0.62941508  1
  O  O199  1  0.75476061  0.49132635  0.13400461  1
  O  O200  1  0.74551956  0.49330737  0.63064922  1
  O  O201  1  0.74020574  1.00141217  0.13305518  1
  O  O202  1  0.76227607  0.99751871  0.64317846  1
  O  O203  1  0.01041719  0.36791130  0.24941095  1
  O  O204  1  0.00356061  0.36793792  0.75660603  1
  O  O205  1  0.01004175  0.88790085  0.25683451  1
  O  O206  1  0.01257204  0.87774685  0.74509469  1
  O  O207  1  0.51275054  0.38228584  0.25745628  1
  O  O208  1  0.51307304  0.38187585  0.75892221  1
  O  O209  1  0.50682816  0.86926556  0.25723078  1
  O  O210  1  0.50770032  0.87220245  0.75916483  1
  O  O211  1  0.49323907  0.12043300  0.25612843  1
  O  O212  1  0.48697413  0.11495118  0.74619629  1
  O  O213  1  0.50377956  0.64192839  0.25608519  1
  O  O214  1  0.49535270  0.63100903  0.74579775  1
  O  O215  1  1.00103441  0.14048819  0.24047173  1
  O  O216  1  0.99062615  0.12984317  0.74578560  1
  O  O217  1  0.98897827  0.61655636  0.24072850  1
  O  O218  1  0.98843502  0.62545041  0.74256318  1
  O  O219  1  0.36432434  0.24956669  0.00427188  1
  O  O220  1  0.36567377  0.25209268  0.50907951  1
  O  O221  1  0.36768912  0.75391104  0.00741271  1
  O  O222  1  0.38132874  0.76495769  0.50844769  1
  O  O223  1  0.86767290  0.25557876  0.00907325  1
  O  O224  1  0.87266437  0.24829538  0.51609225  1
  O  O225  1  0.86387546  0.74516509  0.01327196  1
  O  O226  1  0.86511088  0.74962393  0.51035845  1
  O  O227  1  0.13153303  0.24667368  0.49400716  1
  O  O228  1  0.13871775  0.24867015  0.99323426  1
  O  O229  1  0.12552466  0.73868482  0.49279851  1
  O  O230  1  0.13719510  0.75094910  0.99369227  1
  O  O231  1  0.63333573  0.26117429  0.47869229  1
  O  O232  1  0.63284626  0.25831653  0.98880706  1
  O  O233  1  0.63760390  0.74187347  0.50937547  1
  O  O234  1  0.63040218  0.75277376  0.98644673  1
  O  O235  1  0.48838447  0.25556397  0.11874248  1
  O  O236  1  0.47748363  0.24020126  0.61480715  1
  O  O237  1  0.49278816  0.75367694  0.13249131  1
  O  O238  1  0.49360619  0.74479617  0.63158380  1
  O  O239  1  0.99484052  0.24931533  0.13082812  1
  O  O240  1  0.99317230  0.24459375  0.63237592  1
  O  O241  1  0.98954242  0.73566230  0.12183799  1
  O  O242  1  0.98407110  0.73968302  0.61722636  1
  O  O243  1  0.00498846  0.24983092  0.36384237  1
  O  O244  1  0.00688781  0.25612061  0.87141951  1
  O  O245  1  0.01355350  0.74772958  0.38156610  1
  O  O246  1  0.01273963  0.74724992  0.88763417  1
  O  O247  1  0.51305058  0.25471920  0.37844839  1
  O  O248  1  0.51437447  0.26260497  0.88354149  1
  O  O249  1  0.49134632  0.76448957  0.36724211  1
  O  O250  1  0.50635163  0.75566498  0.87076449  1
  O  O251  1  0.24660341  0.13304538  0.48960814  1
  O  O252  1  0.25056422  0.13505107  0.99018901  1
  O  O253  1  0.24088900  0.61856322  0.48404467  1
  O  O254  1  0.24932440  0.63639952  0.99624504  1
  O  O255  1  0.75309559  0.12417090  0.48865293  1
  O  O256  1  0.75063740  0.14084318  1.00604885  1
  O  O257  1  0.74094059  0.63378052  0.49903315  1
  O  O258  1  0.75436275  0.63210413  0.98609853  1
  O  O259  1  0.24549555  0.36801929  0.01057895  1
  O  O260  1  0.25058018  0.35985605  0.48991759  1
  O  O261  1  0.25368805  0.86585360  0.00883380  1
  O  O262  1  0.25860298  0.88034332  0.51332475  1
  O  O263  1  0.75229190  0.37443615  0.01143840  1
  O  O264  1  0.75472569  0.37557818  0.51579686  1
  O  O265  1  0.74516494  0.86071951  -0.00011348  1
  O  O266  1  0.74712496  0.86110377  0.50141042  1
  O  O267  1  0.13108608  0.49230861  0.24538498  1
  O  O268  1  0.13190915  0.50181738  0.74051577  1
  O  O269  1  0.13414560  1.00255350  0.23495782  1
  O  O270  1  0.12898881  0.99114904  0.74649151  1
  O  O271  1  0.63662995  0.49056931  0.25100705  1
  O  O272  1  0.63189093  0.49246118  0.74442075  1
  O  O273  1  0.62822801  0.99211150  0.23997765  1
  O  O274  1  0.64043021  0.99457385  0.75557621  1
  O  O275  1  0.37387548  -0.01074546  0.26606331  1
  O  O276  1  0.36928335  0.00493156  0.75440376  1
  O  O277  1  0.36326909  0.49596192  0.24689378  1
  O  O278  1  0.36733863  0.50614371  0.75595029  1
  O  O279  1  0.86459134  0.00064521  0.26188034  1
  O  O280  1  0.86786398  0.00553282  0.76209773  1
  O  O281  1  0.86636276  0.50696856  0.25762737  1
  O  O282  1  0.87157749  0.51074438  0.75517299  1
  O  O283  1  0.12650834  0.37075687  0.36405310  1
  O  O284  1  0.12001609  0.36879342  0.87151358  1
  O  O285  1  0.13380494  0.85471716  0.37745084  1
  O  O286  1  0.12995099  0.86769518  0.86691588  1
  O  O287  1  0.61991114  0.36620094  0.36618357  1
  O  O288  1  0.61751217  0.37526298  0.86789591  1
  O  O289  1  0.61213622  0.88270267  0.36499218  1
  O  O290  1  0.61774833  0.86742109  0.86700498  1
  O  O291  1  0.37139539  0.13954064  0.12214453  1
  O  O292  1  0.37121839  0.12837218  0.63269508  1
  O  O293  1  0.38115687  0.63987711  0.12051285  1
  O  O294  1  0.37929219  0.63104696  0.63001656  1
  O  O295  1  0.88311021  0.13688403  0.12781592  1
  O  O296  1  0.87904260  0.13359526  0.63603050  1
  O  O297  1  0.88035626  0.62988361  0.13417620  1
  O  O298  1  0.88204071  0.62839688  0.63177726  1
  O  O299  1  0.25904482  0.25743182  0.11771093  1
  O  O300  1  0.25761501  0.24260788  0.61331645  1
  O  O301  1  0.25627752  0.75512204  0.12012772  1
  O  O302  1  0.25565948  0.76094504  0.63304474  1
  O  O303  1  0.76043305  0.26295015  0.11773646  1
  O  O304  1  0.76130058  0.26016918  0.62991301  1
  O  O305  1  0.75426080  0.74422787  0.11496522  1
  O  O306  1  0.76411947  0.74257825  0.61437794  1
  O  O307  1  0.24658681  0.24228093  0.38067005  1
  O  O308  1  0.24883007  0.24784191  0.87970415  1
  O  O309  1  0.24092108  0.73274202  0.36703841  1
  O  O310  1  0.24992335  0.74674975  0.88464851  1
  O  O311  1  0.74408594  0.24099450  0.37379133  1
  O  O312  1  0.73841759  0.26103464  0.88638796  1
  O  O313  1  0.75720348  0.74687032  0.39332492  1
  O  O314  1  0.74479056  0.74437819  0.88096790  1
  O  O315  1  0.00393199  0.13086028  0.01291510  1
  O  O316  1  0.00021162  0.11452942  0.50766987  1
  O  O317  1  0.00113288  0.61752512  0.01268517  1
  O  O318  1  0.00959838  0.62294385  0.51054862  1
  O  O319  1  0.50122365  0.11258836  -0.00835291  1
  O  O320  1  0.49573081  0.10796202  0.49756034  1
  O  O321  1  0.49645268  0.60981340  -0.00559443  1
  O  O322  1  0.50967011  0.62758566  0.50723263  1
  O  O323  1  0.50175475  0.37546264  0.48364446  1
  O  O324  1  0.50057257  0.39065307  0.98477490  1
  O  O325  1  0.49262564  0.88121007  0.49382648  1
  O  O326  1  0.50245301  0.88039269  0.98758915  1
  O  O327  1  0.99355436  0.37495676  0.49696805  1
  O  O328  1  1.00057659  0.38249562  0.99400084  1
  O  O329  1  0.99719391  0.88711837  0.49328902  1
  O  O330  1  0.98628251  0.88648067  1.05067173  1
  O  O331  1  0.50460085  0.48557216  0.37550914  1
  O  O332  1  0.49302503  0.49622320  0.88044233  1
  O  O333  1  0.49137412  0.98901662  0.38535924  1
  O  O334  1  0.50083630  0.99259390  0.88112184  1
  O  O335  1  0.98471138  0.49885373  0.36807111  1
  O  O336  1  0.99770705  0.49845778  0.87973677  1
  O  O337  1  0.99036258  1.00824742  0.38220126  1
  O  O338  1  0.98135238  1.00503263  0.87825562  1
  O  O339  1  0.01135147  0.01937204  0.13172709  1
  O  O340  1  0.00119213  0.00276284  0.61673706  1
  O  O341  1  0.00531082  0.50698527  0.12154510  1
  O  O342  1  0.01505436  0.51257730  0.63290720  1
  O  O343  1  0.51303555  -0.00773417  0.11538905  1
  O  O344  1  0.49665219  0.00139793  0.61126205  1
  O  O345  1  0.49375009  0.49723436  0.10523949  1
  O  O346  1  0.50804655  0.50728145  0.62657109  1
  O  O347  1  0.24424665  0.38578572  0.24490100  1
  O  O348  1  0.24857231  0.39101135  0.75283814  1
  O  O349  1  0.24648592  0.87489989  0.23879902  1
  O  O350  1  0.24439955  0.88108111  0.74080941  1
  O  O351  1  0.74318773  0.38057104  0.24157682  1
  O  O352  1  0.74467004  0.38294077  0.74310609  1
  O  O353  1  0.73799128  0.88702199  0.25713008  1
  O  O354  1  0.74266515  0.88600619  0.75382666  1
  O  O355  1  0.24833268  0.12666599  0.26429090  1
  O  O356  1  0.25770979  0.11670400  0.75484897  1
  O  O357  1  0.24975661  0.61190268  0.25868572  1
  O  O358  1  0.25524742  0.61738317  0.75614470  1
  O  O359  1  0.75050911  0.10886341  0.26425075  1
  O  O360  1  0.75894056  0.11114662  0.75080658  1
  O  O361  1  0.75640620  0.61479134  0.25263322  1
  O  O362  1  0.75998655  0.62166839  0.75840774  1
  O  O363  1  0.36514783  0.11281195  0.38402949  1
  O  O364  1  0.37173664  0.12155199  0.86406580  1
  O  O365  1  0.36213469  0.63099593  0.38115306  1
  O  O366  1  0.36908481  0.61668037  0.86811218  1
  O  O367  1  0.86661986  0.11854787  0.37179607  1
  O  O368  1  0.87658039  0.13023072  0.86528024  1
  O  O369  1  0.87409037  0.61440152  0.36835423  1
  O  O370  1  0.86882568  0.62370204  0.86766444  1
  O  O371  1  0.13615710  0.37969660  0.13463060  1
  O  O372  1  0.11977752  0.39116063  0.62431707  1
  O  O373  1  0.13888536  0.88358062  0.12504311  1
  O  O374  1  0.13043533  0.87544824  0.63123369  1
  O  O375  1  0.63310251  0.37928498  0.13094719  1
  O  O376  1  0.63360569  0.37406413  0.63391534  1
  O  O377  1  0.63013195  0.88142931  0.13602617  1
  O  O378  1  0.61841790  0.86973508  0.63974870  1
  O  O379  1  0.12065388  0.25998890  0.25260837  1
  O  O380  1  0.12076069  0.25090702  0.75509409  1
  O  O381  1  0.12402700  0.74587562  0.26335844  1
  O  O382  1  0.12952884  0.75915720  0.76272796  1
  O  O383  1  0.62352414  0.26110097  0.25938601  1
  O  O384  1  0.63713953  0.26531471  0.76818349  1
  O  O385  1  0.61699487  0.76185127  0.24611331  1
  O  O386  1  0.62262648  0.75750542  0.75876262  1
  O  O387  1  0.37189256  0.25137149  0.23327473  1
  O  O388  1  0.36610337  0.23885937  0.73550463  1
  O  O389  1  0.38460163  0.75815675  0.24049312  1
  O  O390  1  0.38128274  0.74521602  0.74605555  1
  O  O391  1  0.88352629  0.25215865  0.24136846  1
  O  O392  1  0.87861747  0.24438498  0.74449267  1
  O  O393  1  0.86393895  0.73406039  0.24646264  1
  O  O394  1  0.86602052  0.74178756  0.73620123  1
  O  O395  1  0.37828777  0.49200969  0.50932264  1
  O  O396  1  0.37748723  0.50272069  0.98488657  1
  O  O397  1  0.38090921  0.98783050  0.49343494  1
  O  O398  1  0.38756611  0.99776684  0.99242791  1
  O  O399  1  0.86706094  0.50471732  0.48425419  1
  O  O400  1  0.88270080  0.50041370  0.99318787  1
  O  O401  1  0.88117948  0.99933180  0.49219159  1
  O  O402  1  0.86947048  1.00132431  0.98707238  1
  O  O403  1  0.12277263  0.00192685  0.01088600  1
  O  O404  1  0.11491476  -0.00093920  0.50552091  1
  O  O405  1  0.12087446  0.50374078  0.00808911  1
  O  O406  1  0.13127905  0.50974229  0.51401397  1
  O  O407  1  0.62293862  -0.00423304  0.01374439  1
  O  O408  1  0.60891963  -0.00515974  0.49603722  1
  O  O409  1  0.61261536  0.49966842  -0.00239377  1
  O  O410  1  0.62440880  0.50839222  0.50739533  1
  O  O411  1  0.36361020  0.36706787  0.12716293  1
  O  O412  1  0.37721685  0.35877502  0.62923283  1
  O  O413  1  0.36705699  0.86783830  0.12322918  1
  O  O414  1  0.36735834  0.87106233  0.62139992  1
  O  O415  1  0.86899293  0.36844859  0.12659939  1
  O  O416  1  0.86899938  0.36901505  0.63098393  1
  O  O417  1  0.85976297  0.85433796  0.14755558  1
  O  O418  1  0.87965946  0.86042645  0.62565889  1
  O  O419  1  0.13290605  0.13074163  0.37563160  1
  O  O420  1  0.13262041  0.13136252  0.87343325  1
  O  O421  1  0.12777211  0.63250098  0.38164112  1
  O  O422  1  0.13213123  0.63632671  0.87602852  1
  O  O423  1  0.63182558  0.13751551  0.37079632  1
  O  O424  1  0.62162568  0.14489944  0.86847592  1
  O  O425  1  0.62515998  0.62002600  0.38965966  1
  O  O426  1  0.63608927  0.63546088  0.86412876  1
