# generated using pymatgen
data_V85Zn86O256
_symmetry_space_group_name_H-M   'P 1'
_cell_length_a   16.98969342
_cell_length_b   16.98056440
_cell_length_c   16.98291094
_cell_angle_alpha   89.89127373
_cell_angle_beta   90.04055433
_cell_angle_gamma   90.16044503
_symmetry_Int_Tables_number   1
_chemical_formula_structural   V85Zn86O256
_chemical_formula_sum   'V85 Zn86 O256'
_cell_volume   4899.44857337
_cell_formula_units_Z   1
loop_
 _symmetry_equiv_pos_site_id
 _symmetry_equiv_pos_as_xyz
  1  'x, y, z'
loop_
 _atom_site_type_symbol
 _atom_site_label
 _atom_site_symmetry_multiplicity
 _atom_site_fract_x
 _atom_site_fract_y
 _atom_site_fract_z
 _atom_site_occupancy
  V  V0  1  0.87627468  0.24967114  0.12435470  1
  V  V1  1  0.87557001  0.87562821  0.50342046  1
  V  V2  1  0.24968329  0.49895337  0.25625700  1
  V  V3  1  0.87436134  0.00336405  0.87224614  1
  V  V4  1  0.24861264  0.62555369  0.87288827  1
  V  V5  1  0.75545540  0.00455279  0.74935708  1
  V  V6  1  -0.00398177  0.74639606  0.25353499  1
  V  V7  1  0.50146671  0.87460975  0.37887157  1
  V  V8  1  0.25103089  -0.00240161  0.24926528  1
  V  V9  1  0.24484808  0.00137704  0.74317553  1
  V  V10  1  0.87477273  0.23903307  0.62590411  1
  V  V11  1  -0.00528952  0.24403653  0.75004458  1
  V  V12  1  -0.00060446  0.00120783  -0.00095939  1
  V  V13  1  0.75616436  0.25438801  0.50021248  1
  V  V14  1  0.62084670  -0.00011445  0.62341696  1
  V  V15  1  -0.00485866  0.62344194  0.13022845  1
  V  V16  1  0.39099260  0.49608431  0.38262128  1
  V  V17  1  -0.00013327  0.12521525  0.12528041  1
  V  V18  1  0.74985446  0.25066067  -0.00127976  1
  V  V19  1  0.12635157  0.37598990  0.74830136  1
  V  V20  1  0.12732470  0.63047855  0.00152369  1
  V  V21  1  0.51135093  0.61851022  0.62215287  1
  V  V22  1  0.12218773  0.88015940  0.74143847  1
  V  V23  1  0.36931649  0.75008132  0.11737825  1
  V  V24  1  0.24924660  0.86937047  0.11053543  1
  V  V25  1  0.25384582  0.37064383  0.62026702  1
  V  V26  1  0.49639121  0.38076242  0.88618301  1
  V  V27  1  0.38111135  0.74666051  0.63570243  1
  V  V28  1  0.37563922  0.13105120  0.74540198  1
  V  V29  1  -0.00056480  0.24836483  0.25016642  1
  V  V30  1  0.75124764  0.87557426  0.62632195  1
  V  V31  1  0.76041046  0.50739477  0.24685239  1
  V  V32  1  0.76512772  0.62754125  0.86992865  1
  V  V33  1  0.37798698  0.62383844  0.24935106  1
  V  V34  1  0.12629172  0.24535669  0.38366997  1
  V  V35  1  -0.01394926  0.50228437  0.50507503  1
  V  V36  1  0.25115783  0.12785770  0.87532703  1
  V  V37  1  0.60740763  0.74927583  0.87168521  1
  V  V38  1  0.87268999  0.74720471  0.12649775  1
  V  V39  1  0.62515259  0.87853990  0.24787818  1
  V  V40  1  0.62269066  0.37666014  0.25574484  1
  V  V41  1  0.38981530  0.37093059  0.50219005  1
  V  V42  1  0.75058188  0.12667600  0.87101338  1
  V  V43  1  0.12435005  0.87310317  0.25013721  1
  V  V44  1  0.12600065  0.37360446  0.25096539  1
  V  V45  1  0.25920930  0.37463952  0.12427608  1
  V  V46  1  0.62106333  0.11918903  0.01250770  1
  V  V47  1  0.62164756  0.12157494  0.49907662  1
  V  V48  1  0.75227583  0.62803574  0.37173372  1
  V  V49  1  0.12488822  -0.00150599  0.12476610  1
  V  V50  1  0.38123600  0.12494791  0.24215546  1
  V  V51  1  -0.00420429  0.50130096  -0.00285698  1
  V  V52  1  0.00056356  0.87495485  0.37642631  1
  V  V53  1  0.50202109  0.24973758  0.25068664  1
  V  V54  1  0.74901939  0.12519009  0.37542072  1
  V  V55  1  0.62609019  0.38239525  0.75015716  1
  V  V56  1  -0.00870144  0.37363817  0.38057115  1
  V  V57  1  0.12571178  0.12614747  0.00042075  1
  V  V58  1  0.87400295  0.00055486  0.37610910  1
  V  V59  1  0.74794120  0.88081957  0.12625272  1
  V  V60  1  0.75057418  0.37692410  0.12338277  1
  V  V61  1  0.87409105  0.87514274  -0.00004281  1
  V  V62  1  0.12590697  0.75301043  0.87712293  1
  V  V63  1  0.38026267  0.00043977  0.37839771  1
  V  V64  1  -0.00377171  0.37928390  0.87334626  1
  V  V65  1  0.24874455  0.74641836  0.50142591  1
  V  V66  1  -0.00198976  0.87730246  0.87273970  1
  V  V67  1  0.49859725  0.74604769  0.24786597  1
  V  V68  1  0.76806451  0.50156109  0.75583957  1
  V  V69  1  0.12385438  0.50694627  0.62064079  1
  V  V70  1  0.87572530  0.37715139  -0.00253620  1
  V  V71  1  0.37830642  0.87529084  0.50236406  1
  V  V72  1  0.25626775  0.25536145  0.00178682  1
  V  V73  1  0.01586136  0.12298172  0.62135352  1
  V  V74  1  0.61953694  0.50846903  0.12153614  1
  V  V75  1  0.01663913  0.00400855  0.50332102  1
  V  V76  1  0.87515665  0.73129902  0.62793455  1
  V  V77  1  0.24751887  0.12501626  0.37975591  1
  V  V78  1  -0.00475782  0.73794838  0.74565498  1
  V  V79  1  0.61423659  0.87492251  0.75797953  1
  V  V80  1  0.74331624  0.74848444  0.50071922  1
  V  V81  1  0.49847396  0.12701045  0.62240597  1
  V  V82  1  0.50021469  0.25445214  0.74639571  1
  V  V83  1  0.75616621  0.37496708  0.62576535  1
  V  V84  1  0.38104652  -0.00974033  0.87799594  1
  Zn  Zn85  1  0.25343742  0.50186030  0.74773535  1
  Zn  Zn86  1  0.74346449  0.00367314  0.24686368  1
  Zn  Zn87  1  0.11821080  0.62722254  0.50076573  1
  Zn  Zn88  1  0.87269365  0.12362994  0.24843750  1
  Zn  Zn89  1  0.12432105  0.25243687  0.87624950  1
  Zn  Zn90  1  0.62086003  0.25811782  0.37956666  1
  Zn  Zn91  1  0.62432939  0.25043275  0.87730535  1
  Zn  Zn92  1  0.49939669  0.00943324  -0.00741366  1
  Zn  Zn93  1  0.24723668  0.87800360  0.62287213  1
  Zn  Zn94  1  0.12537066  0.74703580  0.37718891  1
  Zn  Zn95  1  0.87659562  0.50408911  0.37070465  1
  Zn  Zn96  1  0.47834146  0.51261558  0.01812586  1
  Zn  Zn97  1  0.38462579  0.24804852  0.11894835  1
  Zn  Zn98  1  0.12562193  0.50163383  0.12716340  1
  Zn  Zn99  1  0.62075270  0.62687640  -0.00373114  1
  Zn  Zn100  1  0.25371241  0.24572289  0.50540609  1
  Zn  Zn101  1  0.24753454  0.62305069  0.37885629  1
  Zn  Zn102  1  0.38175709  0.62365525  0.75777739  1
  Zn  Zn103  1  0.62016989  0.74298208  0.38211434  1
  Zn  Zn104  1  0.36559516  0.49232134  0.88195252  1
  Zn  Zn105  1  0.62156423  0.49836354  0.60942863  1
  Zn  Zn106  1  0.74593216  0.75008647  -0.00395364  1
  Zn  Zn107  1  0.19085049  0.18764201  0.19015460  1
  Zn  Zn108  1  0.18707215  0.19185697  0.68933663  1
  Zn  Zn109  1  0.18660240  0.68651859  0.18949039  1
  Zn  Zn110  1  0.18805332  0.69251277  0.68886803  1
  Zn  Zn111  1  0.68651442  0.19040855  0.18781764  1
  Zn  Zn112  1  0.68416786  0.18998158  0.68831981  1
  Zn  Zn113  1  0.68687489  0.69007944  0.19175802  1
  Zn  Zn114  1  0.68937640  0.68907822  0.69312619  1
  Zn  Zn115  1  0.31732495  0.31119167  0.31598733  1
  Zn  Zn116  1  0.31436385  0.31321891  0.81111540  1
  Zn  Zn117  1  0.31100843  0.81177755  0.31208208  1
  Zn  Zn118  1  0.30727481  0.81391787  0.81557976  1
  Zn  Zn119  1  0.80961922  0.31300474  0.30891563  1
  Zn  Zn120  1  0.81429216  0.31231871  0.81142589  1
  Zn  Zn121  1  0.81259382  0.81266690  0.31339785  1
  Zn  Zn122  1  0.81088398  0.81320622  0.80871702  1
  Zn  Zn123  1  0.18581087  0.43495695  0.44118300  1
  Zn  Zn124  1  0.18375521  0.44089674  0.94010181  1
  Zn  Zn125  1  0.19205941  0.93252569  0.43438942  1
  Zn  Zn126  1  0.18720245  0.94114292  0.93151560  1
  Zn  Zn127  1  0.68677073  0.44351952  0.43506560  1
  Zn  Zn128  1  0.68641752  0.44064830  0.93438827  1
  Zn  Zn129  1  0.68665695  0.93507196  0.43763602  1
  Zn  Zn130  1  0.68754191  0.93754345  0.93950303  1
  Zn  Zn131  1  0.31106449  0.05940386  0.06098750  1
  Zn  Zn132  1  0.31407582  0.06128840  0.56100051  1
  Zn  Zn133  1  0.31032337  0.56355443  0.06341870  1
  Zn  Zn134  1  0.31419767  0.56075541  0.56429948  1
  Zn  Zn135  1  0.81105191  0.06424547  0.05861498  1
  Zn  Zn136  1  0.81426306  0.06281422  0.56206811  1
  Zn  Zn137  1  0.80752721  0.56510358  0.05579198  1
  Zn  Zn138  1  0.78549994  0.55234112  0.55172867  1
  Zn  Zn139  1  0.44018642  0.43509253  0.19442231  1
  Zn  Zn140  1  0.43562556  0.44567851  0.69044091  1
  Zn  Zn141  1  0.43314096  0.93082055  0.18913350  1
  Zn  Zn142  1  0.43405103  0.94138623  0.68965341  1
  Zn  Zn143  1  0.93999065  0.43476832  0.18581279  1
  Zn  Zn144  1  0.93729622  0.43376450  0.68357856  1
  Zn  Zn145  1  0.93536091  0.93603990  0.18884329  1
  Zn  Zn146  1  0.93908231  0.93864264  0.68452204  1
  Zn  Zn147  1  0.06251326  0.06177298  0.31289377  1
  Zn  Zn148  1  0.06282797  0.06495904  0.81117002  1
  Zn  Zn149  1  0.06292917  0.56243322  0.31936317  1
  Zn  Zn150  1  0.06467407  0.56052684  0.81250171  1
  Zn  Zn151  1  0.56071737  0.06253357  0.31003150  1
  Zn  Zn152  1  0.56521731  0.06423892  0.81335837  1
  Zn  Zn153  1  0.56968005  0.56325140  0.31231136  1
  Zn  Zn154  1  0.55970871  0.56575578  0.80562918  1
  Zn  Zn155  1  0.43818850  0.19063404  0.43327391  1
  Zn  Zn156  1  0.43946210  0.18975792  0.93329628  1
  Zn  Zn157  1  0.43542961  0.68462095  0.44041744  1
  Zn  Zn158  1  0.43823377  0.68281523  0.94045183  1
  Zn  Zn159  1  0.93902804  0.18547917  0.44013272  1
  Zn  Zn160  1  0.93598369  0.18912532  0.93590267  1
  Zn  Zn161  1  0.93059493  0.68529720  0.44095150  1
  Zn  Zn162  1  0.94149359  0.69155601  0.93916772  1
  Zn  Zn163  1  0.06692995  0.31247213  0.06240605  1
  Zn  Zn164  1  0.06078871  0.31572305  0.56323476  1
  Zn  Zn165  1  0.05996041  0.81304012  0.06366090  1
  Zn  Zn166  1  0.05776785  0.81063172  0.56360050  1
  Zn  Zn167  1  0.56710832  0.31053858  0.06764511  1
  Zn  Zn168  1  0.56953882  0.30926652  0.56443501  1
  Zn  Zn169  1  0.56157791  0.81185780  0.06329719  1
  Zn  Zn170  1  0.56083623  0.81113053  0.56819207  1
  O  O171  1  0.12109354  0.11841566  0.12138380  1
  O  O172  1  0.11535129  0.13141903  0.62376625  1
  O  O173  1  0.11358628  0.62757127  0.11782669  1
  O  O174  1  0.13037553  0.61036862  0.62660196  1
  O  O175  1  0.63320608  0.12338423  0.11172797  1
  O  O176  1  0.61960337  0.11871537  0.61877809  1
  O  O177  1  0.63124237  0.61116523  0.12536029  1
  O  O178  1  0.61377504  0.62893125  0.63220872  1
  O  O179  1  0.37415589  0.38762724  0.38523398  1
  O  O180  1  0.39301632  0.37208012  0.87033561  1
  O  O181  1  0.38161656  0.88095839  0.38048944  1
  O  O182  1  0.36858219  0.89152472  0.87098507  1
  O  O183  1  0.88862227  0.37374354  0.36878770  1
  O  O184  1  0.88898874  0.36961654  0.88087565  1
  O  O185  1  0.88018402  0.88252860  0.38199709  1
  O  O186  1  0.87844661  0.88201712  0.87991583  1
  O  O187  1  0.25922702  0.00483353  0.36925138  1
  O  O188  1  0.25787789  0.01093559  0.86593758  1
  O  O189  1  0.25479080  0.49639006  0.36437874  1
  O  O190  1  0.24305894  0.51257587  0.87290159  1
  O  O191  1  0.75757926  0.00802160  0.37705005  1
  O  O192  1  0.75385160  0.00695753  0.86735579  1
  O  O193  1  0.75528936  0.50769266  0.36190642  1
  O  O194  1  0.74315022  0.51673421  0.86829589  1
  O  O195  1  0.24738183  0.49278768  0.13877365  1
  O  O196  1  0.24138706  0.48950140  0.62604724  1
  O  O197  1  0.24452838  0.99036392  0.12952199  1
  O  O198  1  0.25605013  0.99981932  0.63922439  1
  O  O199  1  0.74415097  0.49684064  0.12950494  1
  O  O200  1  0.75466214  0.48618838  0.64230077  1
  O  O201  1  0.76136764  0.98540767  0.12922339  1
  O  O202  1  0.74157642  0.99862553  0.63154467  1
  O  O203  1  0.00887984  0.36957955  0.25664672  1
  O  O204  1  0.00612293  0.36799538  0.75509005  1
  O  O205  1  0.00436020  0.86725659  0.25517773  1
  O  O206  1  0.00687464  0.87475388  0.75553058  1
  O  O207  1  0.51399529  0.36818788  0.25038694  1
  O  O208  1  0.50778415  0.36915954  0.74907390  1
  O  O209  1  0.50440699  0.86627690  0.26056578  1
  O  O210  1  0.51619009  0.88441170  0.74854638  1
  O  O211  1  0.49063959  0.13029682  0.25163667  1
  O  O212  1  0.49551281  0.13373096  0.74424564  1
  O  O213  1  0.48986408  0.63382702  0.25791513  1
  O  O214  1  0.49398202  0.62585598  0.73363432  1
  O  O215  1  0.99814598  0.13034053  0.24318847  1
  O  O216  1  1.00671561  0.13731005  0.74187191  1
  O  O217  1  1.00494824  0.63188902  0.24005075  1
  O  O218  1  1.00477240  0.63938600  0.75610933  1
  O  O219  1  0.36072835  0.24253905  0.00144564  1
  O  O220  1  0.37256279  0.26741857  0.49005764  1
  O  O221  1  0.37940660  0.74473350  0.01985858  1
  O  O222  1  0.36734367  0.75886954  0.50895132  1
  O  O223  1  0.87030725  0.25666161  0.00521537  1
  O  O224  1  0.86439591  0.24378309  0.50913323  1
  O  O225  1  0.87653969  0.75782665  0.01060667  1
  O  O226  1  0.87018848  0.75875104  0.51049922  1
  O  O227  1  0.12686867  0.25601077  0.48582507  1
  O  O228  1  0.13545660  0.24342196  0.99820697  1
  O  O229  1  0.13462959  0.74947081  0.50327266  1
  O  O230  1  0.11085603  0.74198885  0.98808360  1
  O  O231  1  0.63568995  0.23835307  0.49887216  1
  O  O232  1  0.63350814  0.24037463  0.99955063  1
  O  O233  1  0.63869945  0.76092776  0.50124059  1
  O  O234  1  0.62490263  0.75630758  0.98316152  1
  O  O235  1  0.49859635  0.25530192  0.14110039  1
  O  O236  1  0.50727911  0.23820901  0.63529694  1
  O  O237  1  0.48414449  0.75774328  0.14015047  1
  O  O238  1  0.48483475  0.74875573  0.62774412  1
  O  O239  1  0.99680248  0.24523720  0.12914237  1
  O  O240  1  0.99344936  0.24430201  0.62858657  1
  O  O241  1  0.99238413  0.74380199  0.13256504  1
  O  O242  1  0.98812245  0.75277083  0.63347357  1
  O  O243  1  0.00651699  0.25370131  0.37147855  1
  O  O244  1  0.00181976  0.25706862  0.86682179  1
  O  O245  1  -0.00452874  0.75526400  0.36765192  1
  O  O246  1  0.00551496  0.75795812  0.86609111  1
  O  O247  1  0.50612912  0.24545675  0.35937548  1
  O  O248  1  0.50296083  0.25977739  0.86232813  1
  O  O249  1  0.49753283  0.75753853  0.36811869  1
  O  O250  1  0.50918049  0.75203007  0.87375766  1
  O  O251  1  0.26022108  0.12714538  0.48465633  1
  O  O252  1  0.24504502  0.13184128  0.99261194  1
  O  O253  1  0.25146715  0.63655230  0.50134246  1
  O  O254  1  0.23212784  0.62244102  0.99465446  1
  O  O255  1  0.74195703  0.13146633  0.49451876  1
  O  O256  1  0.74107038  0.12979879  0.99182048  1
  O  O257  1  0.75721271  0.64513116  0.48972767  1
  O  O258  1  0.74035531  0.62743375  0.98425557  1
  O  O259  1  0.23905584  0.36665437  0.01154562  1
  O  O260  1  0.25679521  0.37254717  0.50752811  1
  O  O261  1  0.24253601  0.87867200  0.01134209  1
  O  O262  1  0.26046023  0.86800879  0.50241671  1
  O  O263  1  0.75591517  0.37160009  0.00190075  1
  O  O264  1  0.74331769  0.35956836  0.51027409  1
  O  O265  1  0.75566333  0.87306486  0.00904186  1
  O  O266  1  0.75625832  0.86980469  0.50577010  1
  O  O267  1  0.13186094  0.49004761  0.25267896  1
  O  O268  1  0.12111917  0.48819420  0.74025747  1
  O  O269  1  0.12949165  0.99377937  0.24379032  1
  O  O270  1  0.13393746  0.99229183  0.75788585  1
  O  O271  1  0.63398141  0.49440434  0.24003633  1
  O  O272  1  0.63194068  0.48849836  0.74618489  1
  O  O273  1  0.62346433  0.98364483  0.25349862  1
  O  O274  1  0.63362164  0.99277873  0.74430608  1
  O  O275  1  0.37196818  0.00434870  0.25780178  1
  O  O276  1  0.36675423  0.01022798  0.75884372  1
  O  O277  1  0.37014129  0.50436152  0.26004264  1
  O  O278  1  0.36911630  0.50457663  0.76250871  1
  O  O279  1  0.87435540  0.00039564  0.26563507  1
  O  O280  1  0.86230554  -0.00496105  0.75496438  1
  O  O281  1  0.86407987  0.49479595  0.24618047  1
  O  O282  1  0.86734657  0.49176381  0.75333144  1
  O  O283  1  0.11914651  0.36651607  0.36580435  1
  O  O284  1  0.11505334  0.37481321  0.86614263  1
  O  O285  1  0.11759909  0.87122760  0.36778698  1
  O  O286  1  0.11859799  0.86980997  0.86803882  1
  O  O287  1  0.63685053  0.37561085  0.36140746  1
  O  O288  1  0.61738895  0.37254004  0.86569632  1
  O  O289  1  0.61543812  0.87229900  0.36984079  1
  O  O290  1  0.62920112  0.86890980  0.86445868  1
  O  O291  1  0.36694202  0.12411013  0.13877863  1
  O  O292  1  0.38651581  0.11618524  0.63420523  1
  O  O293  1  0.36678045  0.63655403  0.13905706  1
  O  O294  1  0.37621556  0.63859062  0.62836190  1
  O  O295  1  0.88125966  0.13094802  0.12458575  1
  O  O296  1  0.88068825  0.13505912  0.62564949  1
  O  O297  1  0.88521989  0.63486545  0.11545104  1
  O  O298  1  0.86269881  0.63444821  0.61928712  1
  O  O299  1  0.25156132  0.25743093  0.11871221  1
  O  O300  1  0.24628381  0.26406671  0.62328243  1
  O  O301  1  0.25817881  0.75499504  0.12931457  1
  O  O302  1  0.25969643  0.75489371  0.61776976  1
  O  O303  1  0.75645065  0.25666772  0.11897614  1
  O  O304  1  0.75637445  0.25205330  0.62116655  1
  O  O305  1  0.76053973  0.75536273  0.12422521  1
  O  O306  1  0.75632015  0.75637535  0.62117876  1
  O  O307  1  0.24236815  0.24140065  0.37318777  1
  O  O308  1  0.24926595  0.24324918  0.88130789  1
  O  O309  1  0.25052105  0.75004782  0.38849012  1
  O  O310  1  0.23185367  0.74502132  0.87063450  1
  O  O311  1  0.75079582  0.24049575  0.38267379  1
  O  O312  1  0.75147308  0.24237000  0.87921084  1
  O  O313  1  0.74963589  0.74722716  0.38254705  1
  O  O314  1  0.74694565  0.73882681  0.87256511  1
  O  O315  1  0.00529850  0.12120262  0.00452705  1
  O  O316  1  -0.00161591  0.11557052  0.50801299  1
  O  O317  1  0.00592902  0.61886372  0.00663945  1
  O  O318  1  -0.00076975  0.60657316  0.49431577  1
  O  O319  1  0.51678381  0.12960650  -0.00499659  1
  O  O320  1  0.51068539  0.13368499  0.50840939  1
  O  O321  1  0.51029312  0.61702330  -0.00845536  1
  O  O322  1  0.49470471  0.63509066  0.52218590  1
  O  O323  1  0.48929952  0.37123509  0.50946818  1
  O  O324  1  0.50759365  0.37173529  0.98669994  1
  O  O325  1  0.49057835  0.86707559  0.49002082  1
  O  O326  1  0.49179560  0.90050078  1.04023711  1
  O  O327  1  1.00575803  0.38573764  0.48882334  1
  O  O328  1  0.99882954  0.38140347  0.99342484  1
  O  O329  1  0.99453605  0.88382348  0.49633906  1
  O  O330  1  0.99482371  0.88222426  0.99392476  1
  O  O331  1  0.48925362  0.50273703  0.37133129  1
  O  O332  1  0.50526452  0.48358884  0.87294443  1
  O  O333  1  0.48913701  0.98900711  0.37047465  1
  O  O334  1  0.48494656  1.00462778  0.87075006  1
  O  O335  1  0.99656977  0.49132576  0.38425262  1
  O  O336  1  1.00547339  0.49065069  0.88448391  1
  O  O337  1  0.99302860  0.99711633  0.38313906  1
  O  O338  1  0.99451418  0.99839318  0.87909761  1
  O  O339  1  0.00444098  0.00373133  0.11936949  1
  O  O340  1  -0.00467255  0.01152668  0.61565799  1
  O  O341  1  0.00242023  0.50830061  0.11907681  1
  O  O342  1  0.00699650  0.48876297  0.61077862  1
  O  O343  1  0.50379321  -0.03935583  0.10484784  1
  O  O344  1  0.51198892  0.01262643  0.63313262  1
  O  O345  1  0.51526296  0.49494864  0.12940660  1
  O  O346  1  0.50486005  0.51186301  0.62420108  1
  O  O347  1  0.24409820  0.37910181  0.24624510  1
  O  O348  1  0.24038595  0.37366351  0.74381578  1
  O  O349  1  0.24236054  0.87956944  0.24544769  1
  O  O350  1  0.23938830  0.88551388  0.75026537  1
  O  O351  1  0.74439057  0.38335794  0.24215409  1
  O  O352  1  0.74445007  0.37974652  0.74773560  1
  O  O353  1  0.74216276  0.87524190  0.24511543  1
  O  O354  1  0.74130919  0.88676979  0.74503047  1
  O  O355  1  0.25879475  0.11852539  0.25952780  1
  O  O356  1  0.25527719  0.12295641  0.75494358  1
  O  O357  1  0.25711100  0.61450876  0.25232303  1
  O  O358  1  0.24569864  0.62461387  0.76259123  1
  O  O359  1  0.74923477  0.12331718  0.26193534  1
  O  O360  1  0.74141494  0.11534859  0.75729916  1
  O  O361  1  0.74997609  0.61662389  0.25402174  1
  O  O362  1  0.75049099  0.61717374  0.76127761  1
  O  O363  1  0.37040526  0.11582221  0.36776164  1
  O  O364  1  0.36618038  0.12291328  0.86302271  1
  O  O365  1  0.37081286  0.61171308  0.36926055  1
  O  O366  1  0.35548658  0.63694749  0.87602632  1
  O  O367  1  0.86514702  0.11759055  0.37619790  1
  O  O368  1  0.86050154  0.11892589  0.88154894  1
  O  O369  1  0.86025666  0.62321757  0.37533387  1
  O  O370  1  0.86359584  0.62909156  0.88048643  1
  O  O371  1  0.13221870  0.37500305  0.13876089  1
  O  O372  1  0.13145353  0.38183302  0.63120056  1
  O  O373  1  0.12983134  0.87844352  0.12983934  1
  O  O374  1  0.12502564  0.87215196  0.63846307  1
  O  O375  1  0.63341119  0.38338567  0.13446484  1
  O  O376  1  0.63840278  0.37326711  0.63363519  1
  O  O377  1  0.63960497  0.86268196  0.13552668  1
  O  O378  1  0.62888672  0.88306211  0.63449555  1
  O  O379  1  0.12027492  0.25664523  0.25800928  1
  O  O380  1  0.11449102  0.26192204  0.75039115  1
  O  O381  1  0.11150756  0.75484194  0.24997202  1
  O  O382  1  0.11544265  0.76028291  0.75660197  1
  O  O383  1  0.62112491  0.25905076  0.25161680  1
  O  O384  1  0.61719319  0.26083716  0.75116748  1
  O  O385  1  0.61398330  0.75809062  0.25321784  1
  O  O386  1  0.62885284  0.76725030  0.75808306  1
  O  O387  1  0.38290148  0.24119490  0.25107787  1
  O  O388  1  0.38421391  0.23965676  0.75066490  1
  O  O389  1  0.37958756  0.74011060  0.25048164  1
  O  O390  1  0.36594133  0.75415407  0.73653269  1
  O  O391  1  0.88129037  0.24829190  0.24206648  1
  O  O392  1  0.88705841  0.25401986  0.74159784  1
  O  O393  1  0.88626180  0.75630580  0.23948410  1
  O  O394  1  0.88391688  0.75709956  0.73972323  1
  O  O395  1  0.37379996  0.49325110  0.48739776  1
  O  O396  1  0.37037259  0.49957684  0.99526006  1
  O  O397  1  0.37053838  0.98818286  0.48951989  1
  O  O398  1  0.37470208  1.01143372  0.98069996  1
  O  O399  1  0.88462002  0.49840140  0.50278910  1
  O  O400  1  0.88833055  0.49421780  1.00614682  1
  O  O401  1  0.87877838  0.99541783  0.49034347  1
  O  O402  1  0.88055627  0.99495633  0.99315173  1
  O  O403  1  0.11926564  0.00638836  0.00402085  1
  O  O404  1  0.11530301  -0.00638899  0.49538353  1
  O  O405  1  0.11227306  0.51002844  0.00486750  1
  O  O406  1  0.11782686  0.50103447  0.50779469  1
  O  O407  1  0.62423013  0.01587853  -0.00736048  1
  O  O408  1  0.63132176  0.00888843  0.51218237  1
  O  O409  1  0.62808863  0.49544907  0.01821546  1
  O  O410  1  0.67609594  0.51562300  0.51443730  1
  O  O411  1  0.36186855  0.37296390  0.13448919  1
  O  O412  1  0.36731184  0.38618028  0.61061514  1
  O  O413  1  0.35996325  0.85849278  0.13514939  1
  O  O414  1  0.37703372  0.86882812  0.61760073  1
  O  O415  1  0.87152674  0.36886255  0.11710542  1
  O  O416  1  0.86242491  0.36025198  0.62905372  1
  O  O417  1  0.86953997  0.86622324  0.12099812  1
  O  O418  1  0.86681413  0.87529448  0.61877744  1
  O  O419  1  0.13610463  0.13292587  0.36737117  1
  O  O420  1  0.13709516  0.12638044  0.87936219  1
  O  O421  1  0.13000541  0.62977428  0.38101629  1
  O  O422  1  0.12757188  0.63338378  0.88211480  1
  O  O423  1  0.63340828  0.12009598  0.38408132  1
  O  O424  1  0.63772650  0.12851873  0.87983457  1
  O  O425  1  0.64272972  0.62844830  0.36976144  1
  O  O426  1  0.62698986  0.64380349  0.86561652  1
