# generated using pymatgen
data_V85Zn86O256
_symmetry_space_group_name_H-M   'P 1'
_cell_length_a   16.96136510
_cell_length_b   16.95259410
_cell_length_c   16.96429017
_cell_angle_alpha   90.06893671
_cell_angle_beta   90.14541946
_cell_angle_gamma   90.19353756
_symmetry_Int_Tables_number   1
_chemical_formula_structural   V85Zn86O256
_chemical_formula_sum   'V85 Zn86 O256'
_cell_volume   4877.85025048
_cell_formula_units_Z   1
loop_
 _symmetry_equiv_pos_site_id
 _symmetry_equiv_pos_as_xyz
  1  'x, y, z'
loop_
 _atom_site_type_symbol
 _atom_site_label
 _atom_site_symmetry_multiplicity
 _atom_site_fract_x
 _atom_site_fract_y
 _atom_site_fract_z
 _atom_site_occupancy
  V  V0  1  0.49891530  0.37636271  0.37663138  1
  V  V1  1  0.50339142  0.50713994  -0.00127930  1
  V  V2  1  0.49235581  0.24991668  0.24482824  1
  V  V3  1  0.50079489  0.12253954  0.62357755  1
  V  V4  1  0.36897134  0.75331992  0.12143505  1
  V  V5  1  0.00204146  0.76331773  0.25662180  1
  V  V6  1  0.37677523  0.62497263  0.24635980  1
  V  V7  1  0.24726568  -0.00997007  0.25099149  1
  V  V8  1  0.36862195  0.36763936  0.01111584  1
  V  V9  1  0.75203298  0.74676548  0.50341419  1
  V  V10  1  0.74418441  0.74557174  0.00378937  1
  V  V11  1  0.24665812  0.49308117  0.74917374  1
  V  V12  1  0.62224773  -0.00188132  0.62190214  1
  V  V13  1  0.87627106  0.62336880  0.25321964  1
  V  V14  1  0.37516394  0.24908402  0.62485037  1
  V  V15  1  0.37471510  0.62447699  0.74894411  1
  V  V16  1  0.87327599  0.87615586  0.00064035  1
  V  V17  1  0.87722665  0.13082702  0.24886728  1
  V  V18  1  -0.00268936  0.63866499  0.62667796  1
  V  V19  1  0.00597232  0.00225589  0.00205689  1
  V  V20  1  0.11558643  0.25557594  0.86722849  1
  V  V21  1  0.12467082  0.37343815  0.23647030  1
  V  V22  1  0.49955806  0.75355540  0.75546718  1
  V  V23  1  0.62371850  0.74913619  0.37590060  1
  V  V24  1  0.49613242  -0.00570799  -0.01381901  1
  V  V25  1  0.37564135  0.12063858  0.75804341  1
  V  V26  1  0.62440306  0.24925464  0.37398617  1
  V  V27  1  0.00103528  0.38431584  0.86035236  1
  V  V28  1  0.24591844  0.49509667  0.23515489  1
  V  V29  1  0.62533163  0.50816060  0.12119711  1
  V  V30  1  0.50148569  0.62048035  0.61883781  1
  V  V31  1  0.24930703  0.37347774  0.62604330  1
  V  V32  1  0.37556173  0.49885423  0.37805842  1
  V  V33  1  0.62917875  -0.00045611  0.12886583  1
  V  V34  1  0.38100319  0.88181001  0.50157262  1
  V  V35  1  0.12239178  0.24947351  0.37164411  1
  V  V36  1  0.74966465  0.11943636  0.36832415  1
  V  V37  1  0.24223166  0.13073627  0.88269890  1
  V  V38  1  0.62691645  0.13110867  -0.00043751  1
  V  V39  1  0.12229424  0.86618656  0.75253330  1
  V  V40  1  0.37002354  0.12376982  0.24842659  1
  V  V41  1  0.00705627  0.13136215  0.12648099  1
  V  V42  1  0.75841475  0.62195794  0.87402394  1
  V  V43  1  0.62086944  0.12031542  0.49928179  1
  V  V44  1  0.25211867  0.00004104  0.75602743  1
  V  V45  1  0.75539353  0.86989139  0.62811435  1
  V  V46  1  0.00642082  0.61929724  0.12809146  1
  V  V47  1  0.87441958  0.49315719  0.37840259  1
  V  V48  1  0.62182723  0.74364557  0.88086651  1
  V  V49  1  0.25072513  0.75146817  0.49849274  1
  V  V50  1  0.88055857  0.24953484  0.62969517  1
  V  V51  1  0.75579150  0.25201869  0.49906312  1
  V  V52  1  0.75088376  0.13261769  0.87884451  1
  V  V53  1  0.12703166  0.62382171  0.49478037  1
  V  V54  1  0.00355428  0.50136881  0.00370199  1
  V  V55  1  -0.00155128  0.49563754  0.49864266  1
  V  V56  1  0.24919588  0.24765303  0.49776103  1
  V  V57  1  0.12298301  0.00178132  0.62750726  1
  V  V58  1  0.37000036  0.87632284  -0.01146878  1
  V  V59  1  0.75039837  0.49855670  0.24902068  1
  V  V60  1  0.37460032  0.49863512  0.87361610  1
  V  V61  1  0.50059376  0.37436500  0.87425509  1
  V  V62  1  0.63091115  0.88039727  0.25155207  1
  V  V63  1  0.12106951  0.76525979  0.37355338  1
  V  V64  1  0.62275594  0.87518047  0.75900670  1
  V  V65  1  0.49481029  0.12459724  0.12426416  1
  V  V66  1  0.62398387  0.37414282  0.24798810  1
  V  V67  1  0.87750135  0.87278930  0.49821639  1
  V  V68  1  0.75068409  0.36668287  0.12053702  1
  V  V69  1  0.50488461  0.24981768  0.75112757  1
  V  V70  1  0.24332312  0.62834252  0.87862995  1
  V  V71  1  0.62254498  0.49822879  0.61899050  1
  V  V72  1  0.12473367  0.49370880  0.62598867  1
  V  V73  1  0.00018204  0.37136723  0.37168730  1
  V  V74  1  0.87431957  0.75024924  0.12877794  1
  V  V75  1  -0.00046611  0.86658939  0.87374663  1
  V  V76  1  0.37947744  0.37636509  0.49880243  1
  V  V77  1  0.75442306  0.00204635  0.75339096  1
  V  V78  1  -0.00032289  -0.00023582  0.49817830  1
  V  V79  1  0.87572876  -0.00156533  0.37067034  1
  V  V80  1  0.37578298  0.74938457  0.62397085  1
  V  V81  1  0.50105899  0.88367969  0.37955309  1
  V  V82  1  0.87308124  0.37416129  -0.00737519  1
  V  V83  1  0.12406060  -0.01002828  0.13083424  1
  V  V84  1  0.75347342  0.37637200  0.62171569  1
  Zn  Zn85  1  0.24398796  0.86771098  0.12118681  1
  Zn  Zn86  1  0.62844879  0.37864572  0.75060154  1
  Zn  Zn87  1  0.75590551  0.50035382  0.75323840  1
  Zn  Zn88  1  0.12941421  0.75306719  0.89043217  1
  Zn  Zn89  1  0.25130547  0.87485121  0.62832466  1
  Zn  Zn90  1  0.00214389  0.12971795  0.63375901  1
  Zn  Zn91  1  0.13546260  0.62567423  0.01521171  1
  Zn  Zn92  1  0.25062061  0.62375386  0.37189051  1
  Zn  Zn93  1  0.63155247  0.25503608  0.88056706  1
  Zn  Zn94  1  0.50394169  0.63116590  0.11853423  1
  Zn  Zn95  1  0.87740888  0.24982257  0.12458455  1
  Zn  Zn96  1  0.24160410  0.25290080  0.01779429  1
  Zn  Zn97  1  0.87958684  0.63746720  0.74623914  1
  Zn  Zn98  1  0.75103509  0.87892340  0.12998844  1
  Zn  Zn99  1  0.49945897  0.75294721  0.24713489  1
  Zn  Zn100  1  0.37557690  0.00261644  0.37932399  1
  Zn  Zn101  1  0.74798330  0.62154131  0.37832889  1
  Zn  Zn102  1  0.87805584  0.00303880  0.87655812  1
  Zn  Zn103  1  0.62107772  0.61970908  0.49639765  1
  Zn  Zn104  1  0.12257968  0.12504679  0.50005247  1
  Zn  Zn105  1  0.24855505  0.12218477  0.37502688  1
  Zn  Zn106  1  0.88460769  0.13258044  0.75930327  1
  Zn  Zn107  1  0.18746566  0.18625876  0.18525598  1
  Zn  Zn108  1  0.18616096  0.18796899  0.69165181  1
  Zn  Zn109  1  0.18770772  0.69028434  0.19355593  1
  Zn  Zn110  1  0.18644889  0.68314574  0.68588109  1
  Zn  Zn111  1  0.68462671  0.18594406  0.18760396  1
  Zn  Zn112  1  0.69203435  0.18673337  0.68785082  1
  Zn  Zn113  1  0.68939185  0.68995316  0.19217524  1
  Zn  Zn114  1  0.68500846  0.68706030  0.68968313  1
  Zn  Zn115  1  0.30899480  0.31332504  0.30722443  1
  Zn  Zn116  1  0.31437715  0.30946961  0.81521652  1
  Zn  Zn117  1  0.31369809  0.81115157  0.31458100  1
  Zn  Zn118  1  0.31146273  0.81222119  0.81190031  1
  Zn  Zn119  1  0.81137736  0.31023487  0.31012828  1
  Zn  Zn120  1  0.81482359  0.31594580  0.80866291  1
  Zn  Zn121  1  0.81228255  0.81135313  0.31640328  1
  Zn  Zn122  1  0.81462766  0.80637642  0.81418115  1
  Zn  Zn123  1  0.19059912  0.43534324  0.43304924  1
  Zn  Zn124  1  0.18305829  0.43798390  0.93936802  1
  Zn  Zn125  1  0.19135224  0.94016556  0.43944050  1
  Zn  Zn126  1  0.18587360  0.94099310  0.93838417  1
  Zn  Zn127  1  0.68568412  0.43621793  0.43896429  1
  Zn  Zn128  1  0.68687882  0.43945645  0.93936812  1
  Zn  Zn129  1  0.69111834  0.93587126  0.43850644  1
  Zn  Zn130  1  0.68711090  0.94025951  0.94049351  1
  Zn  Zn131  1  0.31073192  0.05891301  0.06429915  1
  Zn  Zn132  1  0.31021482  0.06339264  0.56810142  1
  Zn  Zn133  1  0.31901356  0.55874671  0.05985586  1
  Zn  Zn134  1  0.31335532  0.56222521  0.56171002  1
  Zn  Zn135  1  0.81365279  0.06467064  0.06193818  1
  Zn  Zn136  1  0.81123619  0.06351596  0.56187649  1
  Zn  Zn137  1  0.81703233  0.55890749  0.06032733  1
  Zn  Zn138  1  0.81463995  0.56213571  0.56582010  1
  Zn  Zn139  1  0.43847122  0.44057121  0.18748406  1
  Zn  Zn140  1  0.43699972  0.43720466  0.68699623  1
  Zn  Zn141  1  0.43875250  0.93690899  0.18668853  1
  Zn  Zn142  1  0.43748026  0.93702935  0.68876932  1
  Zn  Zn143  1  0.93791852  0.43539118  0.18658344  1
  Zn  Zn144  1  0.92760182  0.44791210  0.68399640  1
  Zn  Zn145  1  0.93433233  0.94217721  0.18738310  1
  Zn  Zn146  1  0.93956015  0.93410054  0.68816185  1
  Zn  Zn147  1  0.06109433  0.06049730  0.31077528  1
  Zn  Zn148  1  0.06282919  0.05991687  0.81428958  1
  Zn  Zn149  1  0.06364804  0.56081676  0.31006554  1
  Zn  Zn150  1  0.05978670  0.56091232  0.80954471  1
  Zn  Zn151  1  0.56037676  0.06196249  0.31112382  1
  Zn  Zn152  1  0.56705060  0.06386526  0.81166668  1
  Zn  Zn153  1  0.56064049  0.56151553  0.31010540  1
  Zn  Zn154  1  0.56746566  0.56301511  0.80734918  1
  Zn  Zn155  1  0.43743005  0.18863377  0.43461298  1
  Zn  Zn156  1  0.43749578  0.18714909  0.93919258  1
  Zn  Zn157  1  0.43716681  0.68962898  0.43414561  1
  Zn  Zn158  1  0.42992894  0.69029985  0.93633117  1
  Zn  Zn159  1  0.93868241  0.18420479  0.44118749  1
  Zn  Zn160  1  0.93832268  0.19092740  0.94031446  1
  Zn  Zn161  1  0.93898504  0.68627658  0.43872018  1
  Zn  Zn162  1  0.93693997  0.68789986  0.94260068  1
  Zn  Zn163  1  0.06308231  0.31012495  0.04951306  1
  Zn  Zn164  1  0.06193626  0.31424717  0.55822202  1
  Zn  Zn165  1  0.06120948  0.80564310  0.06342180  1
  Zn  Zn166  1  0.06628138  0.81876442  0.55903491  1
  Zn  Zn167  1  0.55836305  0.31629022  0.06340886  1
  Zn  Zn168  1  0.56518849  0.31055466  0.56158049  1
  Zn  Zn169  1  0.55713318  0.81516148  0.06412306  1
  Zn  Zn170  1  0.56377815  0.81061215  0.56499918  1
  O  O171  1  0.11006569  0.11413071  0.13095295  1
  O  O172  1  0.12543086  0.11357324  0.62487709  1
  O  O173  1  0.11029843  0.62693948  0.13321168  1
  O  O174  1  0.12071962  0.61445497  0.61284827  1
  O  O175  1  0.61715822  0.11852295  0.11947888  1
  O  O176  1  0.62332141  0.11772761  0.61804288  1
  O  O177  1  0.62536404  0.61219517  0.13270766  1
  O  O178  1  0.61781200  0.61786779  0.62363856  1
  O  O179  1  0.37844197  0.38007646  0.37780690  1
  O  O180  1  0.38653623  0.37970597  0.87751743  1
  O  O181  1  0.38497069  0.87432424  0.38397570  1
  O  O182  1  0.37316450  0.87122258  0.88890223  1
  O  O183  1  0.88487847  0.38426344  0.36406727  1
  O  O184  1  0.88563727  0.36967501  0.88502734  1
  O  O185  1  0.86481893  0.88746665  0.38645518  1
  O  O186  1  0.88074096  0.87692762  0.88584947  1
  O  O187  1  0.25239577  0.00260046  0.36632469  1
  O  O188  1  0.23965932  0.01557130  0.86392942  1
  O  O189  1  0.26171098  0.49973705  0.36557757  1
  O  O190  1  0.25224671  0.50449595  0.86411694  1
  O  O191  1  0.76002665  0.01177317  0.38335009  1
  O  O192  1  0.74926184  0.00913953  0.86801011  1
  O  O193  1  0.75807037  0.49769914  0.37010188  1
  O  O194  1  0.74163699  0.51919821  0.87850789  1
  O  O195  1  0.25168864  0.50242293  0.13641010  1
  O  O196  1  0.24436013  0.49534333  0.62980765  1
  O  O197  1  0.23897446  1.00084271  0.13325947  1
  O  O198  1  0.24065248  0.99915907  0.63653000  1
  O  O199  1  0.74376930  0.49168080  0.12829557  1
  O  O200  1  0.74243919  0.48904372  0.61755199  1
  O  O201  1  0.73345499  0.99886566  0.11657271  1
  O  O202  1  0.74114447  0.99328702  0.63278444  1
  O  O203  1  0.01500687  0.38433891  0.25992867  1
  O  O204  1  -0.01106159  0.38546865  0.76247514  1
  O  O205  1  -0.00854906  0.86181290  0.24830410  1
  O  O206  1  0.01041162  0.88390201  0.76272490  1
  O  O207  1  0.50308757  0.36694114  0.25324414  1
  O  O208  1  0.49951375  0.36654876  0.75758526  1
  O  O209  1  0.50996529  0.87389494  0.26107564  1
  O  O210  1  0.51033560  0.86506808  0.74406356  1
  O  O211  1  0.49296211  0.13054567  0.24353437  1
  O  O212  1  0.49434437  0.13020911  0.74653107  1
  O  O213  1  0.48596994  0.62399638  0.24567810  1
  O  O214  1  0.49483089  0.63357965  0.74217618  1
  O  O215  1  0.99095524  0.11959091  0.23577309  1
  O  O216  1  0.99426896  0.11328545  0.74547410  1
  O  O217  1  0.99020647  0.62599979  0.24629034  1
  O  O218  1  1.00551520  0.62125442  0.72932049  1
  O  O219  1  0.37687302  0.26580131  -0.00524186  1
  O  O220  1  0.36719066  0.25368670  0.50413287  1
  O  O221  1  0.38128485  0.76613985  0.00713528  1
  O  O222  1  0.36726552  0.75631910  0.50290784  1
  O  O223  1  0.88288378  0.26889955  0.00611662  1
  O  O224  1  0.86119865  0.24309357  0.50655029  1
  O  O225  1  0.86716049  0.75911340  0.00817259  1
  O  O226  1  0.86412501  0.76044722  0.48948498  1
  O  O227  1  0.13414590  0.25021442  0.49213141  1
  O  O228  1  0.13348141  0.25902826  0.97817155  1
  O  O229  1  0.13217776  0.74350453  0.49344989  1
  O  O230  1  0.12569944  0.73866319  1.00271591  1
  O  O231  1  0.63352027  0.23929000  0.49437212  1
  O  O232  1  0.61424970  0.23512035  1.00042556  1
  O  O233  1  0.63380002  0.75106410  0.49134859  1
  O  O234  1  0.63209274  0.76046494  0.99301810  1
  O  O235  1  0.50629559  0.23880184  0.13555395  1
  O  O236  1  0.49567226  0.24371942  0.63258888  1
  O  O237  1  0.48901330  0.74737184  0.12755096  1
  O  O238  1  0.49746976  0.74216617  0.63619962  1
  O  O239  1  1.00335596  0.23329066  0.11734331  1
  O  O240  1  0.98332390  0.25248317  0.61267066  1
  O  O241  1  0.99224260  0.74059234  0.13722820  1
  O  O242  1  1.01369050  0.73644878  0.61644844  1
  O  O243  1  0.00808867  0.26054673  0.38505086  1
  O  O244  1  0.00898524  0.26089207  0.87633502  1
  O  O245  1  0.00897374  0.74371293  0.36841769  1
  O  O246  1  0.00181621  0.76362772  0.88307093  1
  O  O247  1  0.50554584  0.25455181  0.36409315  1
  O  O248  1  0.50097479  0.25725752  0.86649855  1
  O  O249  1  0.51069778  0.75936555  0.37450870  1
  O  O250  1  0.50520497  0.74292649  0.86332221  1
  O  O251  1  0.24953585  0.13672450  0.49862705  1
  O  O252  1  0.26004216  0.12241730  0.98253987  1
  O  O253  1  0.24368546  0.63412545  0.49940370  1
  O  O254  1  0.25123486  0.61106842  0.98176364  1
  O  O255  1  0.74011643  0.13155845  0.49123747  1
  O  O256  1  0.73857433  0.11872498  0.99147019  1
  O  O257  1  0.74862726  0.63567186  0.50041916  1
  O  O258  1  0.75629545  0.63783762  0.99377730  1
  O  O259  1  0.26626388  0.37792536  -0.00842118  1
  O  O260  1  0.25688820  0.36487888  0.50462451  1
  O  O261  1  0.26623346  0.88853687  0.00336433  1
  O  O262  1  0.25850082  0.86414173  0.50231196  1
  O  O263  1  0.76436261  0.38210540  0.00475937  1
  O  O264  1  0.74248398  0.36150565  0.50714614  1
  O  O265  1  0.75807916  0.86661641  0.00039185  1
  O  O266  1  0.75613904  0.86803408  0.50898641  1
  O  O267  1  0.13784846  0.48990034  0.25434655  1
  O  O268  1  0.13513776  0.50439701  0.73632197  1
  O  O269  1  0.13468579  1.00325899  0.24379982  1
  O  O270  1  0.13332112  0.99166853  0.74419364  1
  O  O271  1  0.62957890  0.49329752  0.24252844  1
  O  O272  1  0.63330226  0.49962747  0.73577013  1
  O  O273  1  0.62026889  0.99296108  0.24134427  1
  O  O274  1  0.63317645  0.99342184  0.74424451  1
  O  O275  1  0.36801662  0.00834024  0.25032692  1
  O  O276  1  0.36552533  0.00872692  0.74396122  1
  O  O277  1  0.36390626  0.50381277  0.25371248  1
  O  O278  1  0.36714636  0.50480329  0.75315581  1
  O  O279  1  0.87801523  0.01021124  0.26228479  1
  O  O280  1  0.86058533  -0.00437098  0.75161866  1
  O  O281  1  0.87121629  0.50570033  0.25773653  1
  O  O282  1  0.86437353  0.52370369  0.73387744  1
  O  O283  1  0.11812435  0.36777688  0.36950005  1
  O  O284  1  0.11063898  0.37084123  0.87183694  1
  O  O285  1  0.12451887  0.86411989  0.38378278  1
  O  O286  1  0.11881146  0.87372938  0.86999915  1
  O  O287  1  0.61977878  0.36980334  0.36788415  1
  O  O288  1  0.61495918  0.37350072  0.87389453  1
  O  O289  1  0.62062628  0.87070101  0.37194805  1
  O  O290  1  0.63129988  0.86651292  0.86445971  1
  O  O291  1  0.38723520  0.11697193  0.13363291  1
  O  O292  1  0.38070190  0.12955636  0.63429622  1
  O  O293  1  0.37560473  0.63240713  0.13050508  1
  O  O294  1  0.38158446  0.62875043  0.62927540  1
  O  O295  1  0.88087701  0.12554858  0.13299961  1
  O  O296  1  0.87026876  0.14000566  0.62654258  1
  O  O297  1  0.87980160  0.62896245  0.13706912  1
  O  O298  1  0.89656920  0.62907815  0.61017458  1
  O  O299  1  0.26013077  0.23873163  0.12449377  1
  O  O300  1  0.25404011  0.25324317  0.61793478  1
  O  O301  1  0.26254111  0.75018719  0.13001057  1
  O  O302  1  0.25559317  0.74910824  0.61497341  1
  O  O303  1  0.74681022  0.26367255  0.12733886  1
  O  O304  1  0.75522372  0.25601452  0.61779067  1
  O  O305  1  0.75444081  0.75197751  0.11909753  1
  O  O306  1  0.73944841  0.76035274  0.61608389  1
  O  O307  1  0.24172304  0.25130317  0.38296433  1
  O  O308  1  0.24483437  0.23966345  0.87475348  1
  O  O309  1  0.24146606  0.74701856  0.38258657  1
  O  O310  1  0.25219477  0.73098048  0.86964849  1
  O  O311  1  0.74501368  0.24245008  0.38044650  1
  O  O312  1  0.74863643  0.23791455  0.86636614  1
  O  O313  1  0.73939290  0.74862402  0.38441603  1
  O  O314  1  0.74124462  0.74308964  0.88582651  1
  O  O315  1  -0.01109072  0.11243614  0.01480544  1
  O  O316  1  0.00107033  0.11269220  0.50910389  1
  O  O317  1  -0.00695176  0.61674588  0.01297813  1
  O  O318  1  0.01068264  0.61534099  0.50391439  1
  O  O319  1  0.50288593  0.11519783  0.00615843  1
  O  O320  1  0.51320567  0.13193992  0.50501507  1
  O  O321  1  0.49055181  0.61069844  -0.00234345  1
  O  O322  1  0.49951237  0.63406077  0.51510529  1
  O  O323  1  0.49191510  0.36363157  0.48990348  1
  O  O324  1  0.49306776  0.38248086  0.99062213  1
  O  O325  1  0.49129429  0.86781460  0.49428004  1
  O  O326  1  0.49354046  0.88907963  1.00030039  1
  O  O327  1  1.00581757  0.38831627  0.48708260  1
  O  O328  1  0.99148066  0.38434060  0.99473933  1
  O  O329  1  0.98727263  0.88465073  0.50560314  1
  O  O330  1  0.99114065  0.88093683  0.99646660  1
  O  O331  1  0.48530340  0.49131941  0.36474354  1
  O  O332  1  0.49814786  0.49343072  0.87770754  1
  O  O333  1  0.49955030  0.98810167  0.37624523  1
  O  O334  1  0.50263856  1.00477681  0.88728213  1
  O  O335  1  0.99445662  0.49336652  0.37989367  1
  O  O336  1  1.00304627  0.48947110  0.88165978  1
  O  O337  1  0.98949868  1.00678330  0.38667876  1
  O  O338  1  1.00007636  0.99101229  0.88791342  1
  O  O339  1  0.00605182  0.00439927  0.12078594  1
  O  O340  1  0.00908129  -0.00296161  0.61650323  1
  O  O341  1  -0.00531949  0.50968460  0.11981940  1
  O  O342  1  0.00851257  0.50171544  0.61333469  1
  O  O343  1  0.50963990  0.00921295  0.11986351  1
  O  O344  1  0.51478891  0.00537009  0.63316515  1
  O  O345  1  0.50884464  0.50172067  0.11662968  1
  O  O346  1  0.50757711  0.50990108  0.63241901  1
  O  O347  1  0.23959657  0.38563843  0.24931114  1
  O  O348  1  0.25878591  0.38591090  0.74397387  1
  O  O349  1  0.25871392  0.88695756  0.24637613  1
  O  O350  1  0.24430314  0.88484172  0.75218801  1
  O  O351  1  0.74459248  0.37914740  0.24130533  1
  O  O352  1  0.74779925  0.37764331  0.73814363  1
  O  O353  1  0.73593749  0.87131225  0.25130654  1
  O  O354  1  0.74126187  0.88087332  0.74502091  1
  O  O355  1  0.25893731  0.11581496  0.25192022  1
  O  O356  1  0.25778948  0.11956659  0.75743281  1
  O  O357  1  0.25770716  0.61238694  0.25115071  1
  O  O358  1  0.25492183  0.61359313  0.75461977  1
  O  O359  1  0.75545539  0.12874761  0.26154391  1
  O  O360  1  0.75070775  0.11586127  0.75874947  1
  O  O361  1  0.76156906  0.61887022  0.25293248  1
  O  O362  1  0.74643947  0.63136842  0.76823010  1
  O  O363  1  0.37537779  0.12184393  0.36359482  1
  O  O364  1  0.36544987  0.13199149  0.86289187  1
  O  O365  1  0.37487263  0.61751818  0.36603797  1
  O  O366  1  0.36487376  0.61828340  0.86829806  1
  O  O367  1  0.86882192  0.11997554  0.36941343  1
  O  O368  1  0.86591545  0.12319799  0.87824664  1
  O  O369  1  0.87564824  0.61335798  0.36751743  1
  O  O370  1  0.86096834  0.63123049  0.87615300  1
  O  O371  1  0.11506376  0.36835386  0.13867321  1
  O  O372  1  0.13198580  0.38656937  0.61628870  1
  O  O373  1  0.12439120  0.88529590  0.12354868  1
  O  O374  1  0.12769292  0.88468761  0.63356688  1
  O  O375  1  0.63110047  0.38351518  0.12795767  1
  O  O376  1  0.63161555  0.38048964  0.62600199  1
  O  O377  1  0.62297659  0.88242355  0.13498611  1
  O  O378  1  0.63302768  0.88129110  0.63312695  1
  O  O379  1  0.13273063  0.26444861  0.26025482  1
  O  O380  1  0.13114501  0.25293715  0.76643016  1
  O  O381  1  0.11512781  0.74515722  0.26274265  1
  O  O382  1  0.13504087  0.76440373  0.75085582  1
  O  O383  1  0.61500484  0.25356502  0.25486270  1
  O  O384  1  0.61218904  0.24893558  0.74920935  1
  O  O385  1  0.62345858  0.75777088  0.26054529  1
  O  O386  1  0.61794670  0.75722925  0.75869094  1
  O  O387  1  0.38495702  0.24111244  0.25545488  1
  O  O388  1  0.38479313  0.24197240  0.74471726  1
  O  O389  1  0.37517872  0.74010260  0.24458353  1
  O  O390  1  0.38189861  0.74672932  0.74484009  1
  O  O391  1  0.87472363  0.23627886  0.24828425  1
  O  O392  1  0.87311693  0.25031173  0.73338505  1
  O  O393  1  0.88037763  0.74103960  0.25168998  1
  O  O394  1  0.87260068  0.74855872  0.74279085  1
  O  O395  1  0.36767788  0.49223254  0.48833479  1
  O  O396  1  0.38493314  0.48863394  0.99253980  1
  O  O397  1  0.36662483  0.98576251  0.50231304  1
  O  O398  1  0.38876730  0.99113623  1.00524180  1
  O  O399  1  0.88520842  0.50502516  0.48790642  1
  O  O400  1  0.88673322  0.48621741  1.00325326  1
  O  O401  1  0.88024799  0.99486009  0.49427127  1
  O  O402  1  0.88217820  0.98892625  1.00316909  1
  O  O403  1  0.11322086  -0.00274481  0.01118329  1
  O  O404  1  0.11839755  -0.00104827  0.50863540  1
  O  O405  1  0.11024187  0.50640794  -0.00217316  1
  O  O406  1  0.12174976  0.50583925  0.50362740  1
  O  O407  1  0.61226685  0.00646446  0.00621933  1
  O  O408  1  0.63305307  0.00817425  0.51070469  1
  O  O409  1  0.61483087  0.49470001  0.00992476  1
  O  O410  1  0.62460993  0.50122491  0.51169383  1
  O  O411  1  0.38113187  0.37897463  0.10987269  1
  O  O412  1  0.37048181  0.36885534  0.61904987  1
  O  O413  1  0.37478903  0.86708525  0.11848396  1
  O  O414  1  0.37514205  0.86759091  0.61827214  1
  O  O415  1  0.86706817  0.37281486  0.11960194  1
  O  O416  1  0.86360792  0.36407979  0.62419162  1
  O  O417  1  0.87213884  0.87051333  0.11811941  1
  O  O418  1  0.86237810  0.88285312  0.61470881  1
  O  O419  1  0.12390533  0.13784099  0.37516606  1
  O  O420  1  0.13505664  0.13638693  0.87293020  1
  O  O421  1  0.12702707  0.62591515  0.38625648  1
  O  O422  1  0.13831874  0.62466320  0.86882140  1
  O  O423  1  0.63048868  0.12692020  0.37974999  1
  O  O424  1  0.63221878  0.12756928  0.88337308  1
  O  O425  1  0.62445642  0.63359936  0.37589076  1
  O  O426  1  0.63093091  0.63871008  0.87413764  1
