# generated using pymatgen
data_V85Zn86O256
_symmetry_space_group_name_H-M   'P 1'
_cell_length_a   16.96049029
_cell_length_b   16.96892634
_cell_length_c   16.96636049
_cell_angle_alpha   89.89255152
_cell_angle_beta   89.83691168
_cell_angle_gamma   89.99480157
_symmetry_Int_Tables_number   1
_chemical_formula_structural   V85Zn86O256
_chemical_formula_sum   'V85 Zn86 O256'
_cell_volume   4882.91239843
_cell_formula_units_Z   1
loop_
 _symmetry_equiv_pos_site_id
 _symmetry_equiv_pos_as_xyz
  1  'x, y, z'
loop_
 _atom_site_type_symbol
 _atom_site_label
 _atom_site_symmetry_multiplicity
 _atom_site_fract_x
 _atom_site_fract_y
 _atom_site_fract_z
 _atom_site_occupancy
  V  V0  1  0.39308541  0.50257787  0.37595038  1
  V  V1  1  0.74943200  0.75265980  0.50259004  1
  V  V2  1  0.38145209  0.75802868  0.62360365  1
  V  V3  1  0.25218341  0.74528084  0.00258894  1
  V  V4  1  0.24401721  -0.00913040  0.75074616  1
  V  V5  1  0.62408574  0.62754591  0.00076124  1
  V  V6  1  0.62254300  0.25635356  0.37724149  1
  V  V7  1  0.50710587  0.12072958  0.12404331  1
  V  V8  1  0.37108491  0.24979661  0.62445013  1
  V  V9  1  0.62491629  0.50020286  0.12452719  1
  V  V10  1  0.75140059  0.62427196  0.37257979  1
  V  V11  1  0.50209874  0.25546799  0.25488535  1
  V  V12  1  0.87311248  0.87627839  0.00008417  1
  V  V13  1  0.12072514  0.12526289  0.00367423  1
  V  V14  1  0.87847945  0.00016349  0.37847997  1
  V  V15  1  -0.00892362  0.12032608  0.62985502  1
  V  V16  1  0.75233856  -0.00478310  0.74606765  1
  V  V17  1  0.12503561  0.50281883  0.12190430  1
  V  V18  1  0.74322510  -0.01082927  0.24615025  1
  V  V19  1  -0.00696720  0.25128020  0.75506007  1
  V  V20  1  0.87276010  0.00835921  0.87158100  1
  V  V21  1  0.12418575  0.37064285  0.25900241  1
  V  V22  1  0.87769505  0.50195148  0.87767884  1
  V  V23  1  0.62767736  -0.01638419  0.62976862  1
  V  V24  1  0.62121673  0.75179643  0.86307290  1
  V  V25  1  0.24930048  0.24877484  0.00055925  1
  V  V26  1  0.87623072  0.62520353  0.25101468  1
  V  V27  1  0.74844491  0.37523665  0.12838343  1
  V  V28  1  0.24339122  0.62117822  0.87666265  1
  V  V29  1  0.87370298  0.87678467  0.50290638  1
  V  V30  1  0.88275549  0.37862374  -0.00176190  1
  V  V31  1  0.13076166  0.74146410  0.37390314  1
  V  V32  1  0.37714301  -0.00386951  0.87780401  1
  V  V33  1  0.49946583  0.49949015  -0.00251073  1
  V  V34  1  0.23938428  0.25206654  0.50067927  1
  V  V35  1  0.50131338  0.61588077  0.62436700  1
  V  V36  1  0.12240209  -0.00622435  0.62844192  1
  V  V37  1  0.88064724  0.24738575  0.12643923  1
  V  V38  1  0.37528321  -0.00478007  0.38481063  1
  V  V39  1  0.50452360  0.25271002  0.74761524  1
  V  V40  1  0.37581373  0.62586110  0.74789288  1
  V  V41  1  0.50290476  0.37465807  0.86990298  1
  V  V42  1  0.50297182  0.86826480  0.86210166  1
  V  V43  1  0.74527229  0.49140246  0.74229286  1
  V  V44  1  0.25852965  0.87103275  0.12403608  1
  V  V45  1  0.25410445  0.75266753  0.49840706  1
  V  V46  1  0.11864337  0.12018840  0.50102764  1
  V  V47  1  0.87637471  0.49489896  0.37521026  1
  V  V48  1  0.49590388  0.75679739  0.24574602  1
  V  V49  1  0.62439881  0.12234619  0.50079804  1
  V  V50  1  0.12482976  0.75891334  0.87183736  1
  V  V51  1  0.87410902  0.37477344  0.51626062  1
  V  V52  1  0.25022936  0.37441592  0.12772916  1
  V  V53  1  0.24961609  0.12386525  0.87467018  1
  V  V54  1  0.24301234  0.13126510  0.37621716  1
  V  V55  1  0.74571305  0.75690815  0.00173814  1
  V  V56  1  0.37485023  0.37339108  -0.00092472  1
  V  V57  1  0.37342839  0.12478890  0.74988207  1
  V  V58  1  0.12232108  0.25690779  0.87159789  1
  V  V59  1  0.36957957  0.49836406  0.86622749  1
  V  V60  1  0.24903025  0.00040108  0.25012524  1
  V  V61  1  0.74910861  0.24721668  0.00019568  1
  V  V62  1  0.00309323  0.87646713  0.37840331  1
  V  V63  1  0.48931644  0.62609166  0.12691649  1
  V  V64  1  0.75071301  0.25450015  0.50853518  1
  V  V65  1  0.87827955  0.12327320  0.24743516  1
  V  V66  1  0.24080999  0.38938121  0.62859290  1
  V  V67  1  0.37418100  0.12628386  0.25156475  1
  V  V68  1  0.87359323  0.75247528  0.62652422  1
  V  V69  1  0.12288037  -0.00091559  0.12475407  1
  V  V70  1  -0.00087460  0.00155880  0.00248259  1
  V  V71  1  0.24963574  0.50479121  0.26080859  1
  V  V72  1  0.00160433  0.75056193  0.24879974  1
  V  V73  1  0.12883516  0.62310341  0.50729454  1
  V  V74  1  0.37616167  0.24884694  0.12572102  1
  V  V75  1  0.62101894  0.61708538  0.50200618  1
  V  V76  1  0.38316121  0.37699625  0.49406314  1
  V  V77  1  0.00150722  0.24875416  0.25707353  1
  V  V78  1  0.00337339  0.62459933  0.11743732  1
  V  V79  1  0.62445349  0.75622573  0.37031617  1
  V  V80  1  0.00309264  0.50262245  0.50447333  1
  V  V81  1  0.49923347  0.12378332  0.62416204  1
  V  V82  1  0.87088853  0.75365695  0.12432232  1
  V  V83  1  0.87410507  0.63140286  0.75089359  1
  V  V84  1  0.62473976  0.25029463  0.87364832  1
  Zn  Zn85  1  0.00488488  0.88171172  0.86690656  1
  Zn  Zn86  1  0.49666901  0.87129901  0.37896483  1
  Zn  Zn87  1  0.62675137  0.12082475  -0.00077173  1
  Zn  Zn88  1  0.36878853  0.63078539  0.25742066  1
  Zn  Zn89  1  0.00390035  0.36837929  0.38167805  1
  Zn  Zn90  1  0.75054014  0.12490425  0.37541499  1
  Zn  Zn91  1  0.50669072  -0.00420907  -0.00096028  1
  Zn  Zn92  1  0.12573723  0.87355236  0.24944795  1
  Zn  Zn93  1  0.37936912  0.86660806  0.00357495  1
  Zn  Zn94  1  0.00712556  0.49958989  -0.00407281  1
  Zn  Zn95  1  0.24602720  0.87205391  0.62491635  1
  Zn  Zn96  1  0.86800217  0.24853649  0.63711584  1
  Zn  Zn97  1  0.61998174  0.38131939  0.25989090  1
  Zn  Zn98  1  0.74635200  0.62680044  0.87355870  1
  Zn  Zn99  1  0.12740186  0.39566945  0.75399216  1
  Zn  Zn100  1  0.01664806  0.76084030  0.73814928  1
  Zn  Zn101  1  0.00521163  0.62438224  0.62990257  1
  Zn  Zn102  1  0.49493828  -0.01171647  0.50701976  1
  Zn  Zn103  1  0.75387008  0.13192524  0.86208030  1
  Zn  Zn104  1  0.74954618  0.50055840  0.24990227  1
  Zn  Zn105  1  0.62599019  0.47856902  0.62308161  1
  Zn  Zn106  1  0.63132287  -0.01750696  0.11718473  1
  Zn  Zn107  1  0.18529580  0.18665781  0.18784036  1
  Zn  Zn108  1  0.18405964  0.18536813  0.68683279  1
  Zn  Zn109  1  0.18844630  0.68637348  0.18673321  1
  Zn  Zn110  1  0.19576502  0.68330679  0.68873064  1
  Zn  Zn111  1  0.68967420  0.18380940  0.19191424  1
  Zn  Zn112  1  0.68652233  0.18170065  0.68781369  1
  Zn  Zn113  1  0.68275813  0.80682140  0.18950549  1
  Zn  Zn114  1  0.69130113  0.68079881  0.68385232  1
  Zn  Zn115  1  0.31271465  0.31426630  0.31405261  1
  Zn  Zn116  1  0.30949691  0.31312048  0.80928299  1
  Zn  Zn117  1  0.31079327  0.81355466  0.31067933  1
  Zn  Zn118  1  0.31397087  0.80792624  0.81176979  1
  Zn  Zn119  1  0.80992923  0.31081076  0.31681516  1
  Zn  Zn120  1  0.81522277  0.31715734  0.81501649  1
  Zn  Zn121  1  0.81530619  0.81271517  0.31601866  1
  Zn  Zn122  1  0.80792648  0.81803879  0.81417875  1
  Zn  Zn123  1  0.18979322  0.43896390  0.44108245  1
  Zn  Zn124  1  0.18893181  0.43587833  0.93855585  1
  Zn  Zn125  1  0.18788128  0.93688296  0.44076578  1
  Zn  Zn126  1  0.19124533  0.93446970  0.94053144  1
  Zn  Zn127  1  0.69130396  0.43555222  0.44233871  1
  Zn  Zn128  1  0.69197049  0.43715866  0.93390469  1
  Zn  Zn129  1  0.68991553  0.93866933  0.43671988  1
  Zn  Zn130  1  0.68647325  0.93770496  0.93241295  1
  Zn  Zn131  1  0.31283752  0.06220516  0.06360009  1
  Zn  Zn132  1  0.30563500  0.06370471  0.56482643  1
  Zn  Zn133  1  0.30880086  0.55876533  0.05936465  1
  Zn  Zn134  1  0.31401048  0.56580340  0.55640158  1
  Zn  Zn135  1  0.81217237  0.06272987  0.06485278  1
  Zn  Zn136  1  0.80741937  0.06196549  0.56247049  1
  Zn  Zn137  1  0.81125135  0.56693235  0.06299979  1
  Zn  Zn138  1  0.81442982  0.56373961  0.56333148  1
  Zn  Zn139  1  0.43594188  0.43871304  0.18883898  1
  Zn  Zn140  1  0.43604302  0.43487663  0.68164583  1
  Zn  Zn141  1  0.43916775  0.94054760  0.19257285  1
  Zn  Zn142  1  0.43819042  0.93882599  0.68982975  1
  Zn  Zn143  1  0.93966182  0.43591492  0.18867741  1
  Zn  Zn144  1  0.96731037  0.45648354  0.71038578  1
  Zn  Zn145  1  0.93738044  0.93654825  0.18927487  1
  Zn  Zn146  1  0.93692861  0.93622262  0.68899082  1
  Zn  Zn147  1  0.06088711  0.06334824  0.31162492  1
  Zn  Zn148  1  0.06109976  0.06652967  0.81279687  1
  Zn  Zn149  1  0.06191614  0.56170231  0.31188200  1
  Zn  Zn150  1  0.06105820  0.57235642  0.81373856  1
  Zn  Zn151  1  0.56060719  0.06645508  0.31382946  1
  Zn  Zn152  1  0.56439921  0.06282279  0.81056849  1
  Zn  Zn153  1  0.56494096  0.57065553  0.30882321  1
  Zn  Zn154  1  0.56073111  0.56483852  0.80890435  1
  Zn  Zn155  1  0.43484949  0.18594308  0.43891455  1
  Zn  Zn156  1  0.43790987  0.18431166  0.93816522  1
  Zn  Zn157  1  0.43938876  0.68619895  0.43904895  1
  Zn  Zn158  1  0.43551718  0.68610266  0.93619803  1
  Zn  Zn159  1  0.93552246  0.18659880  0.44107054  1
  Zn  Zn160  1  0.93839080  0.18824401  0.94016546  1
  Zn  Zn161  1  0.94110525  0.68762554  0.43852084  1
  Zn  Zn162  1  0.93798455  0.68724620  0.93527586  1
  Zn  Zn163  1  0.06425538  0.31381034  0.06814088  1
  Zn  Zn164  1  0.05721044  0.31204141  0.56781826  1
  Zn  Zn165  1  0.06577681  0.81235754  0.05572441  1
  Zn  Zn166  1  0.06106632  0.81085173  0.55767328  1
  Zn  Zn167  1  0.56137077  0.31085092  0.06203151  1
  Zn  Zn168  1  0.56483077  0.31246793  0.56313282  1
  Zn  Zn169  1  0.55421663  0.81535091  0.05709430  1
  Zn  Zn170  1  0.55835437  0.80801300  0.55629404  1
  O  O171  1  0.13250624  0.11316286  0.11328985  1
  O  O172  1  0.11697167  0.11616485  0.61876683  1
  O  O173  1  0.11531281  0.61401059  0.13197232  1
  O  O174  1  0.12269649  0.63316996  0.61302368  1
  O  O175  1  0.61557529  0.12521403  0.12543127  1
  O  O176  1  0.61744891  0.12063225  0.61464770  1
  O  O177  1  0.61221299  0.61252817  0.11167095  1
  O  O178  1  0.61542160  0.62821000  0.61677715  1
  O  O179  1  0.37075381  0.38115559  0.38776810  1
  O  O180  1  0.38030175  0.37943233  0.87855609  1
  O  O181  1  0.36937144  0.89365240  0.37202527  1
  O  O182  1  0.38436059  0.88084088  0.87224074  1
  O  O183  1  0.87500971  0.38555025  0.37974359  1
  O  O184  1  0.87091760  0.38684091  0.88858023  1
  O  O185  1  0.88333989  0.88013360  0.38145688  1
  O  O186  1  0.87369215  0.88676358  0.88801226  1
  O  O187  1  0.25652890  0.00880476  0.37196288  1
  O  O188  1  0.25591346  0.00323977  0.86917394  1
  O  O189  1  0.25490208  0.49550985  0.36393123  1
  O  O190  1  0.26044992  0.50566537  0.88173935  1
  O  O191  1  0.76194064  -0.00057408  0.36398364  1
  O  O192  1  0.75506256  0.00485982  0.86565483  1
  O  O193  1  0.75902563  0.50673312  0.37519867  1
  O  O194  1  0.75971385  0.50531534  0.86776406  1
  O  O195  1  0.24377121  0.49294917  0.13266034  1
  O  O196  1  0.25305738  0.48764960  0.61822902  1
  O  O197  1  0.24227813  0.99324839  0.12849897  1
  O  O198  1  0.24167288  0.99745702  0.63377917  1
  O  O199  1  0.74195602  0.49346416  0.12436117  1
  O  O200  1  0.74994167  0.50590806  0.63847585  1
  O  O201  1  0.75001791  1.00425312  0.14217349  1
  O  O202  1  0.73918158  1.00033241  0.63369313  1
  O  O203  1  0.00733526  0.36755829  0.25390886  1
  O  O204  1  0.00685630  0.35109378  0.74265256  1
  O  O205  1  0.00155133  0.86854430  0.25955164  1
  O  O206  1  -0.01047377  0.86715492  0.75742180  1
  O  O207  1  0.50294677  0.35962376  0.24221369  1
  O  O208  1  0.48970508  0.36419150  0.76018829  1
  O  O209  1  0.49481432  0.86045427  0.25570175  1
  O  O210  1  0.49845373  0.87404269  0.76290322  1
  O  O211  1  0.49499120  0.13424681  0.24255690  1
  O  O212  1  0.49377420  0.13349768  0.74515948  1
  O  O213  1  0.49510464  0.63239419  0.24139546  1
  O  O214  1  0.48685634  0.62354247  0.74193606  1
  O  O215  1  0.98784343  0.13211448  0.25241785  1
  O  O216  1  1.00163553  0.13304813  0.73749780  1
  O  O217  1  0.99425113  0.63103673  0.24149635  1
  O  O218  1  0.98421142  0.64083633  0.74983911  1
  O  O219  1  0.36932208  0.25334495  0.00459675  1
  O  O220  1  0.36325509  0.25833117  0.50286065  1
  O  O221  1  0.35917532  0.74999352  -0.00707632  1
  O  O222  1  0.36623649  0.73982530  0.51221299  1
  O  O223  1  0.87018042  0.25722697  0.00686966  1
  O  O224  1  0.86698760  0.25833481  0.50086867  1
  O  O225  1  0.86732052  0.75660343  0.00389561  1
  O  O226  1  0.86869243  0.75537512  0.50450871  1
  O  O227  1  0.13336610  0.24088251  0.50601383  1
  O  O228  1  0.12699982  0.24373755  0.99640567  1
  O  O229  1  0.13075571  0.74236063  0.49228200  1
  O  O230  1  0.13992001  0.75211828  0.98757722  1
  O  O231  1  0.62974921  0.24220785  0.49485588  1
  O  O232  1  0.63383785  0.24997100  0.99302873  1
  O  O233  1  0.63361233  0.73960304  0.49288115  1
  O  O234  1  0.62954002  0.74349969  0.99552625  1
  O  O235  1  0.49566839  0.24191124  0.13200080  1
  O  O236  1  0.49141153  0.24351376  0.63205288  1
  O  O237  1  0.50269001  0.74091638  0.13831996  1
  O  O238  1  0.48570723  0.73844507  0.61899123  1
  O  O239  1  0.98648142  0.25660256  0.13605930  1
  O  O240  1  0.99825420  0.23720104  0.63675957  1
  O  O241  1  0.99495208  0.74432180  0.12688979  1
  O  O242  1  0.98627637  0.74838413  0.62215534  1
  O  O243  1  -0.00697670  0.25059255  0.36184531  1
  O  O244  1  0.00776409  0.24035632  0.86414637  1
  O  O245  1  0.00735251  0.75739254  0.36934037  1
  O  O246  1  0.02003996  0.74801623  0.88207998  1
  O  O247  1  0.50829364  0.24125098  0.36563489  1
  O  O248  1  0.50398836  0.25602109  0.86880050  1
  O  O249  1  0.50830886  0.74522005  0.36535617  1
  O  O250  1  0.50466277  0.76039790  0.87767335  1
  O  O251  1  0.24074041  0.13367617  0.49531126  1
  O  O252  1  0.24175846  0.12961622  0.99517317  1
  O  O253  1  0.23960032  0.63640368  0.50245694  1
  O  O254  1  0.25565332  0.63067405  0.98843589  1
  O  O255  1  0.74047403  0.13280640  0.49818627  1
  O  O256  1  0.75192948  0.14067584  1.00062037  1
  O  O257  1  0.74700304  0.63303206  0.49015853  1
  O  O258  1  0.73959167  0.63724879  1.00145188  1
  O  O259  1  0.25554119  0.36741350  0.00715153  1
  O  O260  1  0.25337643  0.36746910  0.50864490  1
  O  O261  1  0.25536315  0.86753411  0.00816289  1
  O  O262  1  0.24472946  0.85880349  0.50434663  1
  O  O263  1  0.75739383  0.36598192  0.00898023  1
  O  O264  1  0.76047857  0.36480101  0.49957998  1
  O  O265  1  0.75848883  0.86629844  -0.00318519  1
  O  O266  1  0.76107027  0.86199381  0.49003211  1
  O  O267  1  0.13073509  0.49229834  0.24424455  1
  O  O268  1  0.07553194  0.49342922  0.73876677  1
  O  O269  1  0.12884337  1.00104089  0.23960548  1
  O  O270  1  0.13454083  1.00786053  0.74306453  1
  O  O271  1  0.62655396  0.49927207  0.23798995  1
  O  O272  1  0.64252701  0.50780603  0.75259856  1
  O  O273  1  0.64301693  1.00554843  0.25803513  1
  O  O274  1  0.63085896  1.00178663  0.73611781  1
  O  O275  1  0.36745317  0.00845637  0.25957117  1
  O  O276  1  0.36693485  0.00537414  0.75795185  1
  O  O277  1  0.36897508  0.49476869  0.26428499  1
  O  O278  1  0.37935194  0.50398383  0.76107866  1
  O  O279  1  0.86909155  0.00489070  0.25539847  1
  O  O280  1  0.86314420  -0.00158582  0.75793507  1
  O  O281  1  0.87438390  0.50507587  0.25874146  1
  O  O282  1  0.87259820  0.51056041  0.75837052  1
  O  O283  1  0.12535793  0.37773647  0.36255815  1
  O  O284  1  0.13062183  0.36167037  0.87314361  1
  O  O285  1  0.11623683  0.86866948  0.37555358  1
  O  O286  1  0.12796991  0.86304489  0.87576483  1
  O  O287  1  0.62881254  0.36195739  0.37792418  1
  O  O288  1  0.61322802  0.36471932  0.88087439  1
  O  O289  1  0.62714664  0.85915640  0.37939103  1
  O  O290  1  0.61096017  0.86684667  0.87773205  1
  O  O291  1  0.38132207  0.12947574  0.13144297  1
  O  O292  1  0.37870189  0.12843830  0.62950029  1
  O  O293  1  0.38747174  0.61330830  0.12534203  1
  O  O294  1  0.38139962  0.62607094  0.63029860  1
  O  O295  1  0.87030226  0.13735351  0.13369840  1
  O  O296  1  0.88893752  0.12384577  0.61672880  1
  O  O297  1  0.88128571  0.63469184  0.13010614  1
  O  O298  1  0.87599178  0.63649850  0.63203271  1
  O  O299  1  0.25573442  0.25362370  0.12105952  1
  O  O300  1  0.25367517  0.25266815  0.61704694  1
  O  O301  1  0.24184900  0.75993675  0.11677518  1
  O  O302  1  0.26123427  0.75116752  0.61817397  1
  O  O303  1  0.75661656  0.25712475  0.11983908  1
  O  O304  1  0.75255984  0.24125839  0.61344258  1
  O  O305  1  0.76270249  0.75184570  0.11759176  1
  O  O306  1  0.75780934  0.74437529  0.61059376  1
  O  O307  1  0.25342000  0.23964423  0.38415202  1
  O  O308  1  0.24297603  0.24419161  0.88010846  1
  O  O309  1  0.23938250  0.75532363  0.38116400  1
  O  O310  1  0.24335168  0.74203011  0.87972890  1
  O  O311  1  0.74094095  0.24613189  0.38553367  1
  O  O312  1  0.74231875  0.25316373  0.88207674  1
  O  O313  1  0.74597669  0.74194806  0.38061186  1
  O  O314  1  0.74015010  0.75094329  0.88670678  1
  O  O315  1  0.00997083  0.11541062  -0.00128436  1
  O  O316  1  0.01024219  0.13394820  0.51328267  1
  O  O317  1  -0.00615487  0.62297847  0.01484474  1
  O  O318  1  0.00939580  0.61952870  0.50023827  1
  O  O319  1  0.50053510  0.12262440  0.01194925  1
  O  O320  1  0.50784063  0.12111872  0.50571840  1
  O  O321  1  0.50457638  0.62065671  0.00553229  1
  O  O322  1  0.51178882  0.62705328  0.50820154  1
  O  O323  1  0.48064857  0.36612499  0.50306716  1
  O  O324  1  0.49394149  0.37756864  0.99010578  1
  O  O325  1  0.49981675  0.87720683  0.49144480  1
  O  O326  1  0.49231541  0.87907776  0.98637053  1
  O  O327  1  0.99384494  0.38183059  0.49789445  1
  O  O328  1  0.98651557  0.37807940  1.00953355  1
  O  O329  1  0.98853713  0.87009426  0.48676749  1
  O  O330  1  0.99292346  0.88508424  0.99283826  1
  O  O331  1  0.49196936  0.49665166  0.36705182  1
  O  O332  1  0.49344599  0.49163393  0.87713716  1
  O  O333  1  0.48262836  1.00317413  0.37323818  1
  O  O334  1  0.49300126  0.99044501  0.87116119  1
  O  O335  1  0.98936940  0.50051194  0.38325860  1
  O  O336  1  0.98217642  0.51385590  0.88267199  1
  O  O337  1  0.98937060  0.98977513  0.36795994  1
  O  O338  1  0.99248382  1.00253789  0.88432030  1
  O  O339  1  0.00952241  -0.00685935  0.11404610  1
  O  O340  1  0.00601624  0.01366541  0.63291184  1
  O  O341  1  0.00728300  0.50769242  0.12663805  1
  O  O342  1  -0.01314316  0.50643469  0.60554594  1
  O  O343  1  0.50313285  0.01068180  0.12766263  1
  O  O344  1  0.51198662  0.00452673  0.62701519  1
  O  O345  1  0.50685839  0.50270645  0.11867068  1
  O  O346  1  0.50404392  0.51134529  0.62898504  1
  O  O347  1  0.24313462  0.37983871  0.24617543  1
  O  O348  1  0.24671160  0.37322800  0.73452280  1
  O  O349  1  0.24609360  0.88123285  0.24109681  1
  O  O350  1  0.25565164  0.88764935  0.74804037  1
  O  O351  1  0.74650196  0.37464224  0.23803803  1
  O  O352  1  0.75845040  0.39274394  0.75290718  1
  O  O353  1  0.75297104  0.88360246  0.25000332  1
  O  O354  1  0.74650347  0.89443636  0.75553037  1
  O  O355  1  0.25194068  0.12232911  0.25832355  1
  O  O356  1  0.25492253  0.11687791  0.75563381  1
  O  O357  1  0.25472480  0.61082142  0.24197143  1
  O  O358  1  0.26414921  0.62339697  0.76195787  1
  O  O359  1  0.76390363  0.11766020  0.25481333  1
  O  O360  1  0.74608936  0.10890257  0.74994929  1
  O  O361  1  0.75821606  0.62397737  0.26655854  1
  O  O362  1  0.76179955  0.61678263  0.75238660  1
  O  O363  1  0.36284652  0.11886513  0.37159988  1
  O  O364  1  0.37065730  0.11687065  0.86999316  1
  O  O365  1  0.37952861  0.60588513  0.37870167  1
  O  O366  1  0.37141981  0.61622973  0.86712798  1
  O  O367  1  0.87633636  0.11462524  0.36939169  1
  O  O368  1  0.87211233  0.11217710  0.88422997  1
  O  O369  1  0.87036657  0.61775016  0.37349661  1
  O  O370  1  0.86914013  0.62381986  0.86848053  1
  O  O371  1  0.13000995  0.38224233  0.13711916  1
  O  O372  1  0.13889203  0.37253553  0.62304671  1
  O  O373  1  0.13337926  0.88612648  0.12294152  1
  O  O374  1  0.12010932  0.88990059  0.61817924  1
  O  O375  1  0.63232946  0.38545375  0.12019379  1
  O  O376  1  0.61773803  0.36999861  0.63658927  1
  O  O377  1  0.61892764  0.87163221  0.12674427  1
  O  O378  1  0.62153394  0.88579338  0.62051403  1
  O  O379  1  0.11336001  0.25771259  0.24130194  1
  O  O380  1  0.11721095  0.24315208  0.76175011  1
  O  O381  1  0.12076107  0.75066425  0.25813763  1
  O  O382  1  0.13094453  0.74410707  0.76582040  1
  O  O383  1  0.61978160  0.24947156  0.26048625  1
  O  O384  1  0.61232571  0.24365247  0.75834782  1
  O  O385  1  0.61232520  0.74554159  0.25993966  1
  O  O386  1  0.63414711  0.73916395  0.76546846  1
  O  O387  1  0.38189549  0.24629269  0.24684434  1
  O  O388  1  0.38208330  0.24415794  0.74598919  1
  O  O389  1  0.38958474  0.74576541  0.26092988  1
  O  O390  1  0.36884310  0.73921085  0.73371480  1
  O  O391  1  0.87885602  0.24386059  0.24524300  1
  O  O392  1  0.88706019  0.24952983  0.75527501  1
  O  O393  1  0.88021504  0.74669083  0.24211493  1
  O  O394  1  0.86048034  0.74623029  0.73877096  1
  O  O395  1  0.37138533  0.48769456  0.48781706  1
  O  O396  1  0.38054422  0.49284039  0.98929350  1
  O  O397  1  0.37216718  1.00778558  0.48803202  1
  O  O398  1  0.37346748  1.00042425  0.98447169  1
  O  O399  1  0.87866993  0.49375323  0.49225381  1
  O  O400  1  0.87070887  0.49392828  0.99577411  1
  O  O401  1  0.86444020  0.99011905  0.48891914  1
  O  O402  1  0.88013666  0.99503529  0.99795998  1
  O  O403  1  0.11911125  0.00572136  0.00389108  1
  O  O404  1  0.13184139  0.01201778  0.51126944  1
  O  O405  1  0.12449233  0.49006017  0.01702492  1
  O  O406  1  0.11584863  0.51168661  0.49065238  1
  O  O407  1  0.62556259  0.00509666  0.00144254  1
  O  O408  1  0.63002765  0.00750643  0.51132623  1
  O  O409  1  0.62106618  0.50649544  0.00312994  1
  O  O410  1  0.63671342  0.51372203  0.50533649  1
  O  O411  1  0.37064621  0.36942047  0.11912253  1
  O  O412  1  0.36363830  0.37107923  0.61386937  1
  O  O413  1  0.36212441  0.88360709  0.12528656  1
  O  O414  1  0.37774704  0.86016744  0.62889924  1
  O  O415  1  0.86583636  0.36903248  0.12060952  1
  O  O416  1  0.88273971  0.37158399  0.61560526  1
  O  O417  1  0.88442613  0.86472464  0.11244212  1
  O  O418  1  0.87862512  0.86864583  0.61115369  1
  O  O419  1  0.13423889  0.11635098  0.38443769  1
  O  O420  1  0.12994757  0.13181608  0.88668503  1
  O  O421  1  0.11896909  0.63687895  0.38184072  1
  O  O422  1  0.13803032  0.62971204  0.87406068  1
  O  O423  1  0.62548873  0.13173617  0.38706490  1
  O  O424  1  0.62384999  0.13994960  0.87798471  1
  O  O425  1  0.63314757  0.63054023  0.38244715  1
  O  O426  1  0.62006305  0.63194988  0.88816059  1
