# generated using pymatgen
data_V85Zn86O256
_symmetry_space_group_name_H-M   'P 1'
_cell_length_a   16.98323788
_cell_length_b   16.98170794
_cell_length_c   16.99990925
_cell_angle_alpha   89.88369603
_cell_angle_beta   89.95149469
_cell_angle_gamma   89.98989801
_symmetry_Int_Tables_number   1
_chemical_formula_structural   V85Zn86O256
_chemical_formula_sum   'V85 Zn86 O256'
_cell_volume   4902.83644772
_cell_formula_units_Z   1
loop_
 _symmetry_equiv_pos_site_id
 _symmetry_equiv_pos_as_xyz
  1  'x, y, z'
loop_
 _atom_site_type_symbol
 _atom_site_label
 _atom_site_symmetry_multiplicity
 _atom_site_fract_x
 _atom_site_fract_y
 _atom_site_fract_z
 _atom_site_occupancy
  V  V0  1  0.87220116  0.87609372  0.00940701  1
  V  V1  1  0.61932572  0.37064596  0.74925030  1
  V  V2  1  0.87535820  -0.00096681  0.37662358  1
  V  V3  1  0.12213503  0.01116414  0.62106162  1
  V  V4  1  0.87379993  0.12187542  0.24812032  1
  V  V5  1  0.75042127  0.74993557  0.50267077  1
  V  V6  1  0.57192353  0.55746695  0.05792585  1
  V  V7  1  0.75007866  0.12523056  0.87314062  1
  V  V8  1  0.37163916  0.37640776  -0.00075823  1
  V  V9  1  0.62617404  0.87042488  0.75482463  1
  V  V10  1  0.37950047  0.13664544  0.74991671  1
  V  V11  1  0.75233608  0.37236036  0.62457236  1
  V  V12  1  -0.00183130  0.62430479  0.63122158  1
  V  V13  1  0.25079256  0.12226165  0.37484158  1
  V  V14  1  0.87546235  0.37392821  -0.01186575  1
  V  V15  1  0.25206737  0.00033914  0.74822298  1
  V  V16  1  0.25479413  0.62185816  0.37685235  1
  V  V17  1  0.25254585  0.87574196  0.62212536  1
  V  V18  1  0.01132858  0.25297586  0.75658756  1
  V  V19  1  0.50010867  0.12970605  0.62968869  1
  V  V20  1  0.62804451  0.37953670  0.25103562  1
  V  V21  1  0.49860942  0.00069429  0.00181819  1
  V  V22  1  0.88461639  0.24452366  0.62437818  1
  V  V23  1  0.10978959  0.49961326  0.12426617  1
  V  V24  1  0.74860543  -0.00417586  0.24680296  1
  V  V25  1  0.62615096  0.62302194  0.50166632  1
  V  V26  1  0.50283923  0.74720009  0.75645025  1
  V  V27  1  0.88214272  0.12296005  0.74589046  1
  V  V28  1  0.49509659  0.37549528  0.87566532  1
  V  V29  1  0.14974293  0.00046946  0.12657639  1
  V  V30  1  0.49363310  0.73742424  0.24696523  1
  V  V31  1  0.76021740  0.62577721  0.37232809  1
  V  V32  1  0.62529119  0.74961028  0.37692027  1
  V  V33  1  0.87507459  0.24892705  0.12261495  1
  V  V34  1  0.00104475  0.24833194  0.24898311  1
  V  V35  1  0.12337897  0.12534244  -0.00435297  1
  V  V36  1  0.73424020  0.75444705  0.01118519  1
  V  V37  1  0.24740915  0.50254585  0.25053688  1
  V  V38  1  0.24403268  0.25208564  -0.00689608  1
  V  V39  1  0.74839162  0.64128119  0.87863667  1
  V  V40  1  0.00436519  0.01266581  0.50358149  1
  V  V41  1  0.37257295  0.00056620  0.87525955  1
  V  V42  1  -0.00122134  0.11066195  0.12006953  1
  V  V43  1  0.49524504  0.49644727  0.50125536  1
  V  V44  1  0.37570562  0.49684778  0.37100509  1
  V  V45  1  0.50157104  0.87012407  0.87789805  1
  V  V46  1  0.24558952  0.63102521  0.87658872  1
  V  V47  1  -0.00270374  0.88193323  0.88021343  1
  V  V48  1  0.62489019  0.49794318  0.62615031  1
  V  V49  1  0.00483085  0.87575749  0.37101904  1
  V  V50  1  0.12514285  0.87503664  0.75128730  1
  V  V51  1  0.50098595  0.13229437  0.12442622  1
  V  V52  1  0.49290313  0.87466919  0.38147538  1
  V  V53  1  0.15112328  0.88821449  0.25497908  1
  V  V54  1  0.74779750  0.37997038  0.12343774  1
  V  V55  1  0.37642586  0.75287726  0.62320365  1
  V  V56  1  0.49101520  -0.00376948  0.50150835  1
  V  V57  1  0.26277219  0.25177938  0.49884877  1
  V  V58  1  0.24692131  0.49253327  0.75135171  1
  V  V59  1  0.37289595  0.11998170  0.25097408  1
  V  V60  1  0.75142083  -0.00168714  0.74964195  1
  V  V61  1  0.75019553  0.87225491  0.62664043  1
  V  V62  1  0.62419480  0.12548069  -0.00269509  1
  V  V63  1  0.25817417  0.37587358  0.61943067  1
  V  V64  1  0.37771178  0.50015860  0.88209316  1
  V  V65  1  -0.00006533  0.74881135  0.75525700  1
  V  V66  1  0.61559533  0.24688513  0.87151129  1
  V  V67  1  0.87547932  0.74627478  0.63107977  1
  V  V68  1  0.36448142  0.86348901  0.01265975  1
  V  V69  1  0.12649008  0.49270110  0.62979897  1
  V  V70  1  0.62497905  0.00048403  0.12633605  1
  V  V71  1  0.12347150  0.37227216  0.24939403  1
  V  V72  1  0.87908344  0.37568317  0.49816770  1
  V  V73  1  0.11396534  0.63373024  0.00008777  1
  V  V74  1  -0.01041371  0.50252656  -0.01212990  1
  V  V75  1  0.62354522  0.87521122  0.24743943  1
  V  V76  1  0.49985094  0.37391459  0.37744813  1
  V  V77  1  0.50020268  0.25384056  0.24893603  1
  V  V78  1  0.25192914  0.75207273  0.49998661  1
  V  V79  1  0.37468253  0.62518456  0.75315668  1
  V  V80  1  0.75760129  0.50342871  0.24990265  1
  V  V81  1  0.76602121  0.50353653  0.75798795  1
  V  V82  1  0.12794645  0.62674279  0.50615714  1
  V  V83  1  0.62635945  0.12329502  0.49931784  1
  V  V84  1  0.12600153  0.24507333  0.38301944  1
  Zn  Zn85  1  0.01618867  0.37255504  0.87311828  1
  Zn  Zn86  1  0.74866694  0.25004536  -0.00127243  1
  Zn  Zn87  1  0.12818454  0.75559243  0.88168244  1
  Zn  Zn88  1  0.50043016  0.62383379  0.62694640  1
  Zn  Zn89  1  0.24538685  0.12907855  0.87131606  1
  Zn  Zn90  1  -0.01781947  0.72997229  0.24696404  1
  Zn  Zn91  1  0.87955447  0.87578938  0.50281925  1
  Zn  Zn92  1  0.36553035  0.72277587  0.13645538  1
  Zn  Zn93  1  0.87619753  0.73425986  0.12819820  1
  Zn  Zn94  1  0.38300103  0.25880886  0.62612433  1
  Zn  Zn95  1  0.62463265  -0.00175385  0.62495207  1
  Zn  Zn96  1  0.37161969  0.25478101  0.12531450  1
  Zn  Zn97  1  0.87948074  0.00293658  0.88057027  1
  Zn  Zn98  1  0.00037667  0.37634930  0.37560462  1
  Zn  Zn99  1  0.11631643  0.73036995  0.35090324  1
  Zn  Zn100  1  0.00165548  0.50052178  0.49972557  1
  Zn  Zn101  1  0.88000681  0.50274805  0.37457310  1
  Zn  Zn102  1  0.75285013  0.24592082  0.49756197  1
  Zn  Zn103  1  0.62986611  0.24902828  0.37616882  1
  Zn  Zn104  1  0.36765401  -0.00680473  0.37436834  1
  Zn  Zn105  1  0.74783406  0.12436671  0.37528539  1
  Zn  Zn106  1  0.24986129  0.37867325  0.12246217  1
  Zn  Zn107  1  0.19062199  0.18832876  0.18383302  1
  Zn  Zn108  1  0.19499849  0.18633091  0.68264652  1
  Zn  Zn109  1  0.16082476  0.68591121  0.19066706  1
  Zn  Zn110  1  0.18702921  0.68694412  0.69106019  1
  Zn  Zn111  1  0.68740999  0.18846057  0.18889819  1
  Zn  Zn112  1  0.68951823  0.18625377  0.68549324  1
  Zn  Zn113  1  0.68417746  0.68475126  0.18723126  1
  Zn  Zn114  1  0.68755555  0.68191118  0.69139621  1
  Zn  Zn115  1  0.31310827  0.31314355  0.31185812  1
  Zn  Zn116  1  0.18846969  0.31393016  0.81194644  1
  Zn  Zn117  1  0.31249423  0.80810113  0.31394835  1
  Zn  Zn118  1  0.31563064  0.81434799  0.81320334  1
  Zn  Zn119  1  0.81233418  0.30972149  0.31341825  1
  Zn  Zn120  1  0.81104503  0.30791483  0.80576225  1
  Zn  Zn121  1  0.81408400  0.81304066  0.31104765  1
  Zn  Zn122  1  0.81618984  0.81172315  0.81664971  1
  Zn  Zn123  1  0.18544199  0.43467247  0.44019080  1
  Zn  Zn124  1  0.18699519  0.44595459  0.94181903  1
  Zn  Zn125  1  0.18674539  0.94044632  0.44160088  1
  Zn  Zn126  1  0.18601088  0.93925267  0.94095374  1
  Zn  Zn127  1  0.68914048  0.43896109  0.43702089  1
  Zn  Zn128  1  0.68891722  0.43362232  0.93372923  1
  Zn  Zn129  1  0.68438203  0.93716510  0.43831671  1
  Zn  Zn130  1  0.68892747  0.93703434  0.93887336  1
  Zn  Zn131  1  0.31717085  0.06937132  0.05924014  1
  Zn  Zn132  1  0.31119112  0.06832375  0.56129734  1
  Zn  Zn133  1  0.27855980  0.60192633  0.08360164  1
  Zn  Zn134  1  0.31699849  0.56292058  0.56402969  1
  Zn  Zn135  1  0.81059717  0.05839743  0.06132005  1
  Zn  Zn136  1  0.81339906  0.05871785  0.56318377  1
  Zn  Zn137  1  0.80535223  0.56754089  0.05808141  1
  Zn  Zn138  1  0.81256092  0.56046804  0.56419674  1
  Zn  Zn139  1  0.41511821  0.51147698  0.15393743  1
  Zn  Zn140  1  0.43651825  0.43817864  0.69317760  1
  Zn  Zn141  1  0.43943120  0.93608948  0.18916555  1
  Zn  Zn142  1  0.43897896  0.93941396  0.68778799  1
  Zn  Zn143  1  0.93375664  0.43619616  0.18462922  1
  Zn  Zn144  1  0.94271713  0.43234725  0.68585434  1
  Zn  Zn145  1  0.93847956  0.92600814  0.18808680  1
  Zn  Zn146  1  0.93893527  0.93615704  0.68774890  1
  Zn  Zn147  1  0.06305036  0.06242809  0.31028534  1
  Zn  Zn148  1  0.06367037  0.06167743  0.80897772  1
  Zn  Zn149  1  0.05900765  0.56060398  0.31474263  1
  Zn  Zn150  1  0.06153623  0.56042217  0.81395312  1
  Zn  Zn151  1  0.55817791  0.06220533  0.31524386  1
  Zn  Zn152  1  0.56152601  0.05664788  0.81087243  1
  Zn  Zn153  1  0.57082551  0.56056028  0.31424772  1
  Zn  Zn154  1  0.56719797  0.55970804  0.81811222  1
  Zn  Zn155  1  0.43903991  0.18463270  0.43808911  1
  Zn  Zn156  1  0.43407469  0.19200521  0.93650558  1
  Zn  Zn157  1  0.43861815  0.68467417  0.43680768  1
  Zn  Zn158  1  0.43749462  0.67931850  0.95014457  1
  Zn  Zn159  1  0.93802035  0.18812958  0.43534281  1
  Zn  Zn160  1  0.93977046  0.18653461  0.93640120  1
  Zn  Zn161  1  0.94102311  0.69330749  0.44332829  1
  Zn  Zn162  1  0.92247538  0.68791190  0.93837753  1
  Zn  Zn163  1  0.06038659  0.31247753  0.06015837  1
  Zn  Zn164  1  0.06445174  0.30897942  0.56437606  1
  Zn  Zn165  1  0.05979096  0.82154915  0.07285991  1
  Zn  Zn166  1  0.06345904  0.81801330  0.56149916  1
  Zn  Zn167  1  0.53583417  0.36771614  0.08780810  1
  Zn  Zn168  1  0.56472494  0.30987757  0.56017124  1
  Zn  Zn169  1  0.55323088  0.81187422  0.06769185  1
  Zn  Zn170  1  0.56404909  0.81228653  0.56542841  1
  O  O171  1  0.11875788  0.11450083  0.12200244  1
  O  O172  1  0.13052277  0.10999151  0.62818215  1
  O  O173  1  0.11844967  0.61294841  0.10451304  1
  O  O174  1  0.12095150  0.61748994  0.62104698  1
  O  O175  1  0.61971390  0.12248933  0.11832616  1
  O  O176  1  0.61791221  0.12230673  0.61969068  1
  O  O177  1  0.62236607  0.61490027  0.12354488  1
  O  O178  1  0.62274152  0.61662557  0.61984664  1
  O  O179  1  0.38659848  0.38652342  0.36889349  1
  O  O180  1  0.38266124  0.38319481  0.87998822  1
  O  O181  1  0.38839625  0.87484281  0.37374225  1
  O  O182  1  0.38307252  0.88245996  0.88151911  1
  O  O183  1  0.87627218  0.37226874  0.38819533  1
  O  O184  1  0.87242802  0.36124289  0.88785559  1
  O  O185  1  0.88339569  0.88642933  0.37658385  1
  O  O186  1  0.88334697  0.87828683  0.87995320  1
  O  O187  1  0.25232094  0.01707191  0.38594481  1
  O  O188  1  0.25972039  0.00001044  0.86873250  1
  O  O189  1  0.25706172  0.50139273  0.37330344  1
  O  O190  1  0.25580500  0.50911012  0.86539592  1
  O  O191  1  0.75934972  0.00012492  0.36860029  1
  O  O192  1  0.74759038  0.01200931  0.86740050  1
  O  O193  1  0.75431858  0.50871564  0.36962025  1
  O  O194  1  0.75413651  0.48914183  0.85764649  1
  O  O195  1  0.23182986  0.50238407  0.13675023  1
  O  O196  1  0.24681605  0.49553396  0.63082017  1
  O  O197  1  0.24776097  1.00888556  0.12998962  1
  O  O198  1  0.24570538  0.99214132  0.62607214  1
  O  O199  1  0.75763104  0.48612212  0.13270554  1
  O  O200  1  0.74525735  0.49016619  0.63254232  1
  O  O201  1  0.74135684  1.00429659  0.13848473  1
  O  O202  1  0.74977051  0.99007704  0.63296924  1
  O  O203  1  0.00827200  0.36766191  0.24913462  1
  O  O204  1  -0.00343103  0.35697780  0.75238046  1
  O  O205  1  0.00628326  0.88352429  0.26705397  1
  O  O206  1  0.00535948  0.86679157  0.75739947  1
  O  O207  1  0.51299550  0.36853060  0.26092012  1
  O  O208  1  0.51091010  0.37573010  0.75713991  1
  O  O209  1  0.50731206  0.86924861  0.26187983  1
  O  O210  1  0.50560975  0.86814302  0.75761602  1
  O  O211  1  0.49611965  0.13678039  0.24623322  1
  O  O212  1  0.49354215  0.11500358  0.73924174  1
  O  O213  1  0.50628179  0.63864593  0.26163600  1
  O  O214  1  0.49584989  0.63293231  0.75304041  1
  O  O215  1  0.99345728  0.12905492  0.23943093  1
  O  O216  1  0.98963090  0.13389000  0.75468114  1
  O  O217  1  1.06551642  0.65569235  0.25947802  1
  O  O218  1  1.00750249  0.63418833  0.73932978  1
  O  O219  1  0.36467220  0.25958185  0.00025424  1
  O  O220  1  0.36692975  0.25111693  0.50136731  1
  O  O221  1  0.38122964  0.76096718  0.00877264  1
  O  O222  1  0.36484298  0.74188674  0.51162472  1
  O  O223  1  0.87463217  0.25410326  0.00884384  1
  O  O224  1  0.87625245  0.25466203  0.50903856  1
  O  O225  1  0.86312087  0.76312740  0.00284132  1
  O  O226  1  0.86977427  0.75407473  0.51375039  1
  O  O227  1  0.13257127  0.25481619  0.48723818  1
  O  O228  1  0.13199904  0.23802541  1.00940406  1
  O  O229  1  0.13792014  0.73970121  0.50885085  1
  O  O230  1  0.10983605  0.73606224  1.00129311  1
  O  O231  1  0.62855328  0.23678658  0.49903106  1
  O  O232  1  0.62991470  0.24066293  0.98071903  1
  O  O233  1  0.63021910  0.74328495  0.49786989  1
  O  O234  1  0.63519292  0.76616870  1.00385103  1
  O  O235  1  0.49796422  0.25526802  0.13671718  1
  O  O236  1  0.49843358  0.23570528  0.61864081  1
  O  O237  1  0.49680762  0.75039182  0.14489553  1
  O  O238  1  0.49117538  0.75040512  0.63476613  1
  O  O239  1  0.98962112  0.24332542  0.12933009  1
  O  O240  1  0.99164143  0.25194966  0.63604801  1
  O  O241  1  0.98939534  0.76979060  0.13920911  1
  O  O242  1  0.99538513  0.74525681  0.63264260  1
  O  O243  1  0.01001019  0.24889737  0.36715508  1
  O  O244  1  -0.00013826  0.24929437  0.86013981  1
  O  O245  1  0.00639209  0.76283214  0.37858935  1
  O  O246  1  -0.00370016  0.75554403  0.86452962  1
  O  O247  1  0.49971445  0.25941914  0.36861676  1
  O  O248  1  0.50787142  0.25698021  0.87285756  1
  O  O249  1  0.50510670  0.75608475  0.37224511  1
  O  O250  1  0.48941330  0.75933991  0.86582707  1
  O  O251  1  0.25414772  0.13937252  0.48901135  1
  O  O252  1  0.24310520  0.13462719  0.99830819  1
  O  O253  1  0.24663219  0.63125599  0.49854874  1
  O  O254  1  0.22306535  0.61259275  0.98456770  1
  O  O255  1  0.73869832  0.12135275  0.50093980  1
  O  O256  1  0.74386132  0.12392999  0.98885738  1
  O  O257  1  0.74526188  0.62927815  0.49517333  1
  O  O258  1  0.74610242  0.64413283  0.99019488  1
  O  O259  1  0.25490579  0.36988352  -0.00060132  1
  O  O260  1  0.24797032  0.36698290  0.50909035  1
  O  O261  1  0.26646646  0.87539811  -0.00561142  1
  O  O262  1  0.24467764  0.86351627  0.50969293  1
  O  O263  1  0.75776056  0.37149851  0.00775178  1
  O  O264  1  0.75732423  0.37452422  0.51128836  1
  O  O265  1  0.75961496  0.86302478  -0.01035661  1
  O  O266  1  0.74875419  0.86736981  0.50824278  1
  O  O267  1  0.12555907  0.48872475  0.24496399  1
  O  O268  1  0.13542265  0.50870991  0.73937787  1
  O  O269  1  0.12650590  0.99892633  0.23685773  1
  O  O270  1  0.13166644  0.99416316  0.74171459  1
  O  O271  1  0.63866124  0.48661343  0.25652977  1
  O  O272  1  0.63252254  0.48538226  0.74415504  1
  O  O273  1  0.62919424  0.99543471  0.24798119  1
  O  O274  1  0.63106055  0.98672728  0.74815820  1
  O  O275  1  0.38623267  0.01641564  0.25411415  1
  O  O276  1  0.37085553  0.00140859  0.75965062  1
  O  O277  1  0.35874607  0.49951212  0.25762551  1
  O  O278  1  0.36544880  0.50566885  0.75790092  1
  O  O279  1  0.86672923  0.00036767  0.25608222  1
  O  O280  1  0.87083557  0.00855767  0.75049351  1
  O  O281  1  0.86234612  0.49187088  0.25502748  1
  O  O282  1  0.86384478  0.49221227  0.74173894  1
  O  O283  1  0.12463071  0.36582944  0.36512067  1
  O  O284  1  0.12762619  0.38373331  0.87218125  1
  O  O285  1  0.12209872  0.88794781  0.36266159  1
  O  O286  1  0.11726659  0.87330667  0.87255480  1
  O  O287  1  0.61888593  0.37323066  0.36902661  1
  O  O288  1  0.61674445  0.36681950  0.86805172  1
  O  O289  1  0.61596384  0.86953441  0.36811385  1
  O  O290  1  0.61208477  0.88075135  0.86651709  1
  O  O291  1  0.38420440  0.13038914  0.13310891  1
  O  O292  1  0.38342490  0.12460387  0.63387338  1
  O  O293  1  0.38667489  0.61022482  0.10944148  1
  O  O294  1  0.37705231  0.63502524  0.63398177  1
  O  O295  1  0.87937137  0.13040152  0.12616958  1
  O  O296  1  0.86849068  0.13342713  0.63494610  1
  O  O297  1  0.88242241  0.62336442  0.11155457  1
  O  O298  1  0.88718437  0.63376953  0.61868800  1
  O  O299  1  0.25333017  0.25711908  0.11405167  1
  O  O300  1  0.25305597  0.25894307  0.61596525  1
  O  O301  1  0.25250724  0.70739834  0.12920028  1
  O  O302  1  0.25720627  0.75575025  0.62161600  1
  O  O303  1  0.76128536  0.25580578  0.12512946  1
  O  O304  1  0.76157365  0.25904023  0.62595600  1
  O  O305  1  0.74832792  0.74780405  0.11281451  1
  O  O306  1  0.75778733  0.75049791  0.62443185  1
  O  O307  1  0.24557607  0.24726564  0.38169384  1
  O  O308  1  0.24608482  0.24714379  0.88747175  1
  O  O309  1  0.24756895  0.73943056  0.38440258  1
  O  O310  1  0.24848340  0.73586438  0.86679691  1
  O  O311  1  0.74898380  0.24224396  0.37916795  1
  O  O312  1  0.74301619  0.23625798  0.87176705  1
  O  O313  1  0.74496037  0.74444736  0.38226769  1
  O  O314  1  0.74479596  0.74494806  0.87627564  1
  O  O315  1  0.00960177  0.13092024  0.01024463  1
  O  O316  1  -0.00267549  0.11215135  0.49770633  1
  O  O317  1  0.00436388  0.61213027  -0.01391138  1
  O  O318  1  0.01167140  0.62739860  0.51332506  1
  O  O319  1  0.50368446  0.12169930  0.00397877  1
  O  O320  1  0.50658596  0.11650344  0.50802430  1
  O  O321  1  0.51628227  0.61398244  -0.00556121  1
  O  O322  1  0.50733663  0.61354422  0.50030256  1
  O  O323  1  0.50896335  0.38449567  0.48869058  1
  O  O324  1  0.48817391  0.36938267  0.98434091  1
  O  O325  1  0.50863958  0.88330649  0.49310791  1
  O  O326  1  0.49116903  0.88005077  0.99317211  1
  O  O327  1  0.99094909  0.37514283  0.50147634  1
  O  O328  1  0.99201858  0.38256811  0.99614374  1
  O  O329  1  1.00178331  0.88396878  0.48827044  1
  O  O330  1  0.98515822  0.86773340  0.99018972  1
  O  O331  1  0.49495215  0.49407197  0.37948200  1
  O  O332  1  0.48910378  0.48887136  0.86608140  1
  O  O333  1  0.49815254  0.99092784  0.38428387  1
  O  O334  1  0.49169942  0.99011326  0.88015779  1
  O  O335  1  0.99675869  0.49639237  0.38087992  1
  O  O336  1  0.99802908  0.49441244  0.88486792  1
  O  O337  1  0.99406473  0.99747849  0.38202787  1
  O  O338  1  0.99920399  0.98594624  0.86858803  1
  O  O339  1  -0.00354638  0.01049995  0.12822805  1
  O  O340  1  0.01031520  -0.00930302  0.61623037  1
  O  O341  1  0.00488079  0.49446230  0.11493199  1
  O  O342  1  0.00966685  0.50773576  0.62734547  1
  O  O343  1  0.50580114  0.01032791  0.12057983  1
  O  O344  1  0.50183254  0.00626058  0.61760009  1
  O  O345  1  0.51630830  0.48341424  0.11319538  1
  O  O346  1  0.50390711  0.49834713  0.61698561  1
  O  O347  1  0.23978142  0.38379898  0.24936167  1
  O  O348  1  0.24631920  0.38691321  0.73833497  1
  O  O349  1  0.25028423  0.89238633  0.26458176  1
  O  O350  1  0.24602068  0.87981117  0.74247782  1
  O  O351  1  0.74609325  0.37965228  0.24461781  1
  O  O352  1  0.74508012  0.38017150  0.73982939  1
  O  O353  1  0.73554112  0.88573848  0.25954010  1
  O  O354  1  0.74295020  0.87637513  0.74892260  1
  O  O355  1  0.26332704  0.13677846  0.25993755  1
  O  O356  1  0.26079545  0.11766203  0.75164320  1
  O  O357  1  0.23301291  0.60987080  0.26954268  1
  O  O358  1  0.25433401  0.61643445  0.75649919  1
  O  O359  1  0.75480133  0.11353984  0.25180568  1
  O  O360  1  0.75822011  0.11977453  0.75559010  1
  O  O361  1  0.74160408  0.61443844  0.26175822  1
  O  O362  1  0.75146089  0.60938180  0.75409762  1
  O  O363  1  0.36849421  0.12627547  0.36670205  1
  O  O364  1  0.37787007  0.11318168  0.86892163  1
  O  O365  1  0.36351207  0.61319557  0.38052814  1
  O  O366  1  0.36685948  0.61925615  0.87370688  1
  O  O367  1  0.87687365  0.11251359  0.36718523  1
  O  O368  1  0.86706109  0.12411416  0.86665437  1
  O  O369  1  0.86341732  0.62663995  0.38571222  1
  O  O370  1  0.85087387  0.62298755  0.87733327  1
  O  O371  1  0.12400588  0.38171770  0.13327406  1
  O  O372  1  0.13414310  0.38706724  0.62013973  1
  O  O373  1  0.13060987  0.89455677  0.13500894  1
  O  O374  1  0.13710188  0.87956253  0.63158264  1
  O  O375  1  0.63935660  0.36531357  0.13790512  1
  O  O376  1  0.63296561  0.37530615  0.63054445  1
  O  O377  1  0.61266247  0.88454046  0.14051733  1
  O  O378  1  0.63139522  0.87390185  0.63821951  1
  O  O379  1  0.12227733  0.25790630  0.25355291  1
  O  O380  1  0.11574751  0.24426205  0.74605012  1
  O  O381  1  0.13940768  0.78584925  0.24812552  1
  O  O382  1  0.11515880  0.75667981  0.75078919  1
  O  O383  1  0.61734087  0.25684158  0.25393161  1
  O  O384  1  0.63377783  0.26029179  0.75875243  1
  O  O385  1  0.61732045  0.75797519  0.25643232  1
  O  O386  1  0.61349566  0.75763532  0.74540295  1
  O  O387  1  0.38585476  0.24640122  0.24897989  1
  O  O388  1  0.37430922  0.23486572  0.74928339  1
  O  O389  1  0.38938847  0.74997027  0.25358995  1
  O  O390  1  0.38307175  0.74605517  0.74291423  1
  O  O391  1  0.87966347  0.24349614  0.24084451  1
  O  O392  1  0.88348092  0.24126070  0.74234634  1
  O  O393  1  0.87084611  0.74641562  0.24564147  1
  O  O394  1  0.88565090  0.75370304  0.73945610  1
  O  O395  1  0.38717921  0.50338810  0.49065688  1
  O  O396  1  0.36389812  0.49207307  0.98298829  1
  O  O397  1  0.38760379  1.00533308  0.49827663  1
  O  O398  1  0.37979654  0.99528799  0.99171784  1
  O  O399  1  0.87808771  0.48721468  0.50273664  1
  O  O400  1  0.88506678  0.48898244  1.00336018  1
  O  O401  1  0.88293684  0.99757026  0.49256344  1
  O  O402  1  0.86390650  0.98338943  0.99487906  1
  O  O403  1  0.13326950  0.00904106  0.01808431  1
  O  O404  1  0.11653506  -0.00357325  0.51044804  1
  O  O405  1  0.10667390  0.50301810  0.00623822  1
  O  O406  1  0.12731697  0.50938336  0.51264207  1
  O  O407  1  0.61912659  0.00487228  0.00510931  1
  O  O408  1  0.61554384  0.00768105  0.50296966  1
  O  O409  1  0.63553778  0.49948502  0.00532741  1
  O  O410  1  0.61752251  0.50310592  0.50565186  1
  O  O411  1  0.37502531  0.38711270  0.10554647  1
  O  O412  1  0.36333044  0.37601578  0.63000151  1
  O  O413  1  0.37800334  0.87808117  0.11263998  1
  O  O414  1  0.36415224  0.86506581  0.63227254  1
  O  O415  1  0.86823038  0.36458558  0.11678425  1
  O  O416  1  0.87020759  0.36496485  0.61810317  1
  O  O417  1  0.87104911  0.87970647  0.10997552  1
  O  O418  1  0.86894386  0.86417501  0.62564651  1
  O  O419  1  0.13625743  0.13753075  0.36283759  1
  O  O420  1  0.12597449  0.11246740  0.89106225  1
  O  O421  1  0.13796091  0.61901231  0.39600862  1
  O  O422  1  0.12723786  0.62906822  0.88104060  1
  O  O423  1  0.62290321  0.12496340  0.38705909  1
  O  O424  1  0.62900029  0.12841106  0.87450294  1
  O  O425  1  0.63664235  0.62989200  0.38354750  1
  O  O426  1  0.64901563  0.61338536  0.86866924  1
