# generated using pymatgen
data_V85Zn86O256
_symmetry_space_group_name_H-M   'P 1'
_cell_length_a   16.93993268
_cell_length_b   16.96913914
_cell_length_c   16.96095108
_cell_angle_alpha   89.93421026
_cell_angle_beta   90.07467992
_cell_angle_gamma   90.13391657
_symmetry_Int_Tables_number   1
_chemical_formula_structural   V85Zn86O256
_chemical_formula_sum   'V85 Zn86 O256'
_cell_volume   4875.50776102
_cell_formula_units_Z   1
loop_
 _symmetry_equiv_pos_site_id
 _symmetry_equiv_pos_as_xyz
  1  'x, y, z'
loop_
 _atom_site_type_symbol
 _atom_site_label
 _atom_site_symmetry_multiplicity
 _atom_site_fract_x
 _atom_site_fract_y
 _atom_site_fract_z
 _atom_site_occupancy
  V  V0  1  0.12919075  0.50182803  0.13419788  1
  V  V1  1  0.12912327  0.74981327  0.87966480  1
  V  V2  1  0.37171457  0.86739660  -0.00199124  1
  V  V3  1  0.50259565  0.49787269  0.00469368  1
  V  V4  1  0.50264517  0.37737262  0.37373181  1
  V  V5  1  0.86849438  0.75342390  0.62691501  1
  V  V6  1  0.49993228  0.75170342  0.24690646  1
  V  V7  1  -0.00236489  0.38271021  0.87428509  1
  V  V8  1  0.50304293  0.00104311  0.49987889  1
  V  V9  1  0.37697045  0.12398509  0.24921527  1
  V  V10  1  0.87535259  0.87264584  0.00377789  1
  V  V11  1  0.87739966  0.49391161  0.37731782  1
  V  V12  1  0.37541549  0.24902979  0.62351534  1
  V  V13  1  0.13096575  0.88280335  0.74657192  1
  V  V14  1  0.62492934  0.25237784  0.37114063  1
  V  V15  1  0.36795175  0.12008460  0.74634751  1
  V  V16  1  0.74804397  0.74962962  0.50196593  1
  V  V17  1  0.74232217  0.38765765  0.13287494  1
  V  V18  1  -0.00423934  0.25475724  0.74573476  1
  V  V19  1  0.63404129  0.12368377  -0.00729336  1
  V  V20  1  0.87055297  0.87758624  0.50517514  1
  V  V21  1  0.62684016  0.37458908  0.74682857  1
  V  V22  1  0.50300629  0.62196513  0.12583780  1
  V  V23  1  0.50212114  0.87366738  0.87439804  1
  V  V24  1  0.62973113  0.88109330  0.24801399  1
  V  V25  1  0.12391486  0.87608963  0.24863581  1
  V  V26  1  -0.00142782  0.12854021  0.62225459  1
  V  V27  1  -0.00457930  0.00442610  -0.00405623  1
  V  V28  1  0.86824667  0.62513603  0.76207470  1
  V  V29  1  0.36907844  0.62121638  0.74951283  1
  V  V30  1  0.50026906  0.87684379  0.37333966  1
  V  V31  1  0.50079724  0.37353476  0.87153930  1
  V  V32  1  0.86843706  0.00049705  0.36995194  1
  V  V33  1  0.00411741  0.12863708  0.12028589  1
  V  V34  1  0.87250543  0.12555436  0.76345075  1
  V  V35  1  0.62836513  0.50041028  0.61781210  1
  V  V36  1  0.00688680  0.00545968  0.50043780  1
  V  V37  1  0.87424268  0.62693152  0.24163033  1
  V  V38  1  0.87026874  0.12139921  0.24824068  1
  V  V39  1  0.63472283  0.87543408  0.74564941  1
  V  V40  1  0.24978383  0.62681952  0.88379151  1
  V  V41  1  0.37508684  0.24709751  0.11894331  1
  V  V42  1  0.23817658  0.12394978  0.37547766  1
  V  V43  1  0.24517931  0.75022498  0.49981958  1
  V  V44  1  0.75265506  0.50303415  0.76230179  1
  V  V45  1  0.37510622  0.00278163  0.37399946  1
  V  V46  1  -0.00629971  0.74761702  0.23299072  1
  V  V47  1  0.24936350  0.37882496  0.63215023  1
  V  V48  1  0.50381833  0.62444067  0.62178107  1
  V  V49  1  0.00073816  0.51116913  0.00408533  1
  V  V50  1  0.24496064  0.12479420  0.88039475  1
  V  V51  1  0.75154807  0.62362932  0.37625260  1
  V  V52  1  -0.00144706  0.75002355  0.74908654  1
  V  V53  1  0.50281516  0.74838628  0.74876191  1
  V  V54  1  0.12678859  0.50321563  0.63207716  1
  V  V55  1  0.50234955  -0.00141661  -0.00176555  1
  V  V56  1  0.49768015  0.50162952  0.49757884  1
  V  V57  1  0.63778271  -0.00090162  0.62442224  1
  V  V58  1  0.76607890  0.25549781  0.49923058  1
  V  V59  1  0.36850484  0.49803756  0.87052252  1
  V  V60  1  0.75256045  0.87957820  0.12807595  1
  V  V61  1  0.76444211  0.37576450  0.61801858  1
  V  V62  1  -0.00501824  0.48770748  0.50040464  1
  V  V63  1  0.50268673  0.12318584  0.12329137  1
  V  V64  1  -0.00576399  0.88147006  0.87326366  1
  V  V65  1  0.37499425  0.87476895  0.50201200  1
  V  V66  1  0.12523969  0.00388040  0.11751817  1
  V  V67  1  -0.00184978  0.87136946  0.37509207  1
  V  V68  1  0.37341621  0.37798429  0.49479404  1
  V  V69  1  0.36797682  0.62184018  0.25745448  1
  V  V70  1  0.75457909  0.00467228  0.76533021  1
  V  V71  1  0.87310692  0.38216000  -0.00471178  1
  V  V72  1  0.37109632  -0.00206129  0.86798451  1
  V  V73  1  0.24128122  0.24538331  0.50092918  1
  V  V74  1  0.50317331  0.12577039  0.62347207  1
  V  V75  1  0.62520646  0.74756249  0.37773871  1
  V  V76  1  0.75208210  0.74825402  0.00816531  1
  V  V77  1  0.36889599  0.37135061  -0.00086376  1
  V  V78  1  0.62833696  0.62143553  -0.00246370  1
  V  V79  1  0.63318636  0.24555546  0.87059007  1
  V  V80  1  0.63324676  0.74483159  0.87431388  1
  V  V81  1  0.00471717  0.26487877  0.25162731  1
  V  V82  1  0.12359171  0.26811226  0.37050459  1
  V  V83  1  0.87225126  0.25480413  0.12511541  1
  V  V84  1  0.24930608  0.86865521  0.11868416  1
  Zn  Zn85  1  0.23668422  0.36757717  0.13222379  1
  Zn  Zn86  1  0.12497195  0.74654745  0.37181588  1
  Zn  Zn87  1  0.25697545  0.88370685  0.63239192  1
  Zn  Zn88  1  0.36917949  0.74584250  0.11916119  1
  Zn  Zn89  1  0.50593159  0.25653738  0.24571402  1
  Zn  Zn90  1  0.74866909  0.12501715  0.37216408  1
  Zn  Zn91  1  0.75356367  0.24970508  -0.00464379  1
  Zn  Zn92  1  0.50293936  0.24883327  0.74748181  1
  Zn  Zn93  1  0.37419966  0.74984271  0.62658987  1
  Zn  Zn94  1  0.12697429  0.63301606  0.00885201  1
  Zn  Zn95  1  0.63263131  0.00415225  0.12806032  1
  Zn  Zn96  1  0.13062282  0.37800170  0.75581659  1
  Zn  Zn97  1  0.63199031  0.12673179  0.49878385  1
  Zn  Zn98  1  0.24927885  0.61671724  0.37745761  1
  Zn  Zn99  1  0.00019299  0.62607617  0.62349153  1
  Zn  Zn100  1  0.12038089  0.25127365  0.88202174  1
  Zn  Zn101  1  0.57267175  0.43370183  0.19393469  1
  Zn  Zn102  1  0.13411432  0.01266783  0.62334935  1
  Zn  Zn103  1  0.24997137  -0.00024952  0.24886311  1
  Zn  Zn104  1  0.23325465  0.24026876  0.00650770  1
  Zn  Zn105  1  0.22443545  0.46794780  0.28333120  1
  Zn  Zn106  1  0.11823653  0.62542562  0.49741739  1
  Zn  Zn107  1  0.18773775  0.18732923  0.19083109  1
  Zn  Zn108  1  0.18194890  0.19211193  0.69243481  1
  Zn  Zn109  1  0.18205439  0.68666601  0.18634574  1
  Zn  Zn110  1  0.18863522  0.69127612  0.68567761  1
  Zn  Zn111  1  0.68756810  0.19205948  0.18496753  1
  Zn  Zn112  1  0.69445974  0.18929999  0.68312253  1
  Zn  Zn113  1  0.69186229  0.57413478  0.18904760  1
  Zn  Zn114  1  0.68890749  0.68419063  0.68552373  1
  Zn  Zn115  1  0.31532004  0.30204645  0.31368789  1
  Zn  Zn116  1  0.31524164  0.30448736  0.81243776  1
  Zn  Zn117  1  0.31178223  0.81115590  0.31228855  1
  Zn  Zn118  1  0.31298508  0.80767935  0.81279333  1
  Zn  Zn119  1  0.81164156  0.31162829  0.31030498  1
  Zn  Zn120  1  0.81409011  0.31545483  0.80670932  1
  Zn  Zn121  1  0.81216843  0.81023159  0.31126193  1
  Zn  Zn122  1  0.81232325  0.81500936  0.81548767  1
  Zn  Zn123  1  0.18548335  0.44110009  0.45022301  1
  Zn  Zn124  1  0.18325017  0.43941310  0.94139162  1
  Zn  Zn125  1  0.18952034  0.93633820  0.43717289  1
  Zn  Zn126  1  0.18628072  0.93887748  0.93412604  1
  Zn  Zn127  1  0.68810348  0.43739675  0.43430278  1
  Zn  Zn128  1  0.68584378  0.43224810  0.93963248  1
  Zn  Zn129  1  0.68730929  0.93589473  0.43743989  1
  Zn  Zn130  1  0.68778221  0.93555599  0.93814641  1
  Zn  Zn131  1  0.31427964  0.05511943  0.05931881  1
  Zn  Zn132  1  0.31125525  0.06161582  0.55994652  1
  Zn  Zn133  1  0.31365545  0.55980236  0.06653772  1
  Zn  Zn134  1  0.31311389  0.56270713  0.56270516  1
  Zn  Zn135  1  0.81607311  0.06111343  0.06057423  1
  Zn  Zn136  1  0.82028495  0.07115675  0.56292157  1
  Zn  Zn137  1  0.81420921  0.56317142  0.05528465  1
  Zn  Zn138  1  0.81548628  0.56666848  0.56429282  1
  Zn  Zn139  1  0.39153496  0.41807855  0.21209039  1
  Zn  Zn140  1  0.43779284  0.43685415  0.68533617  1
  Zn  Zn141  1  0.43695922  0.93806370  0.18526315  1
  Zn  Zn142  1  0.44518465  0.93832909  0.68668333  1
  Zn  Zn143  1  0.93561764  0.44601377  0.18511965  1
  Zn  Zn144  1  0.93769131  0.44434515  0.68934919  1
  Zn  Zn145  1  0.93698348  0.93858642  0.18458767  1
  Zn  Zn146  1  0.93729399  0.94393499  0.68632585  1
  Zn  Zn147  1  0.05559662  0.06305078  0.30769984  1
  Zn  Zn148  1  0.06004356  0.06557391  0.80846807  1
  Zn  Zn149  1  0.05995610  0.56649363  0.31758952  1
  Zn  Zn150  1  0.06010176  0.56491357  0.81428702  1
  Zn  Zn151  1  0.56485976  0.06571677  0.31265767  1
  Zn  Zn152  1  0.56170115  0.06108167  0.80946843  1
  Zn  Zn153  1  0.55697448  0.56813147  0.31909648  1
  Zn  Zn154  1  0.56203062  0.55887950  0.81103007  1
  Zn  Zn155  1  0.43626016  0.19015058  0.43731312  1
  Zn  Zn156  1  0.44105919  0.18569733  0.93340961  1
  Zn  Zn157  1  0.43629475  0.68977033  0.43861058  1
  Zn  Zn158  1  0.44153608  0.68539793  0.93403560  1
  Zn  Zn159  1  0.94221324  0.18758481  0.43349148  1
  Zn  Zn160  1  0.93981281  0.19413847  0.93708171  1
  Zn  Zn161  1  0.93643636  0.68344304  0.43935159  1
  Zn  Zn162  1  0.93725396  0.69297726  0.93721035  1
  Zn  Zn163  1  0.06293400  0.31914733  0.05976250  1
  Zn  Zn164  1  0.06338454  0.31306677  0.56480104  1
  Zn  Zn165  1  0.06231894  0.81639469  0.06006300  1
  Zn  Zn166  1  0.05889191  0.81694479  0.56423331  1
  Zn  Zn167  1  0.56249303  0.30807033  0.05416210  1
  Zn  Zn168  1  0.56897951  0.31246818  0.55771947  1
  Zn  Zn169  1  0.56539810  0.81062840  0.06378583  1
  Zn  Zn170  1  0.56324862  0.81441330  0.56352527  1
  O  O171  1  0.11577017  0.11528004  0.13208292  1
  O  O172  1  0.10716478  0.12494726  0.63685242  1
  O  O173  1  0.12745498  0.61156774  0.12183981  1
  O  O174  1  0.12545828  0.61721254  0.62282431  1
  O  O175  1  0.61827958  0.12532285  0.11617939  1
  O  O176  1  0.61820233  0.11815221  0.62402444  1
  O  O177  1  0.61297477  0.62279474  0.11158589  1
  O  O178  1  0.61364460  0.61434992  0.62918199  1
  O  O179  1  0.38639141  0.36452948  0.38742231  1
  O  O180  1  0.37839592  0.37917596  0.87946134  1
  O  O181  1  0.38047493  0.88131890  0.38177024  1
  O  O182  1  0.37940883  0.87983744  0.87779053  1
  O  O183  1  0.86794896  0.39629160  0.36624346  1
  O  O184  1  0.88092696  0.37111627  0.88666459  1
  O  O185  1  0.88111022  0.88111060  0.38008319  1
  O  O186  1  0.88719554  0.87345493  0.88340485  1
  O  O187  1  0.25505685  0.00881634  0.37406825  1
  O  O188  1  0.26257347  0.00869588  0.87716374  1
  O  O189  1  0.25108809  0.50305715  0.38445555  1
  O  O190  1  0.26212967  0.50637711  0.87927217  1
  O  O191  1  0.76485320  0.00211817  0.38086808  1
  O  O192  1  0.74642298  0.00223119  0.86450017  1
  O  O193  1  0.76322287  0.51317592  0.38785122  1
  O  O194  1  0.74541508  0.49253709  0.86087981  1
  O  O195  1  0.23559876  0.49604214  0.12181385  1
  O  O196  1  0.24022714  0.48964612  0.61562117  1
  O  O197  1  0.24086141  0.99225555  0.12606477  1
  O  O198  1  0.24410565  0.99433916  0.61571386  1
  O  O199  1  0.74799879  0.49227937  0.12296959  1
  O  O200  1  0.74188381  0.49536353  0.62260507  1
  O  O201  1  0.75044293  0.98540213  0.12005305  1
  O  O202  1  0.74039022  1.00809477  0.62904604  1
  O  O203  1  -0.00737019  0.36230394  0.24439404  1
  O  O204  1  -0.00717300  0.37050521  0.75867254  1
  O  O205  1  0.00222192  0.86597954  0.25376946  1
  O  O206  1  0.00356629  0.86961857  0.75683171  1
  O  O207  1  0.49166257  0.37796968  0.25809513  1
  O  O208  1  0.50753058  0.37377750  0.75342702  1
  O  O209  1  0.50530300  0.86985005  0.25253608  1
  O  O210  1  0.51220387  0.86949414  0.75462438  1
  O  O211  1  0.49676244  0.12476113  0.23687711  1
  O  O212  1  0.49203132  0.12370109  0.73704600  1
  O  O213  1  0.49161069  0.63425898  0.24382311  1
  O  O214  1  0.49325881  0.62791649  0.74221028  1
  O  O215  1  0.99083180  0.13222887  0.23666895  1
  O  O216  1  0.98971185  0.13310083  0.74738116  1
  O  O217  1  0.99165691  0.64245143  0.25538178  1
  O  O218  1  0.99083441  0.63737987  0.75001169  1
  O  O219  1  0.37746984  0.25513317  0.00476808  1
  O  O220  1  0.36476490  0.25770007  0.50475018  1
  O  O221  1  0.38187197  0.76355297  -0.00291786  1
  O  O222  1  0.36838279  0.76104552  0.50113836  1
  O  O223  1  0.87625517  0.26081339  0.01019936  1
  O  O224  1  0.86491515  0.25379691  0.48853899  1
  O  O225  1  0.86623131  0.76149449  -0.00567824  1
  O  O226  1  0.86946596  0.75864912  0.50757245  1
  O  O227  1  0.13457659  0.25655747  0.48933968  1
  O  O228  1  0.12142755  0.24907389  0.99635926  1
  O  O229  1  0.13744202  0.75710738  0.50171919  1
  O  O230  1  0.11368472  0.74835969  0.98468451  1
  O  O231  1  0.63248947  0.24810499  0.48640201  1
  O  O232  1  0.62790613  0.24054274  0.98840306  1
  O  O233  1  0.63497980  0.76250044  0.48908507  1
  O  O234  1  0.63044463  0.74250911  0.99231785  1
  O  O235  1  0.49423569  0.23892471  0.12204904  1
  O  O236  1  0.49677329  0.24080437  0.62121988  1
  O  O237  1  0.50054099  0.74090214  0.13194543  1
  O  O238  1  0.50212531  0.73983212  0.62869555  1
  O  O239  1  0.99285486  0.24719151  0.13298679  1
  O  O240  1  1.00390946  0.24606296  0.63614791  1
  O  O241  1  0.99904149  0.75387503  0.13428443  1
  O  O242  1  0.99051592  0.75298511  0.63633006  1
  O  O243  1  0.00897570  0.24662452  0.35984857  1
  O  O244  1  -0.00121269  0.26336308  0.86670722  1
  O  O245  1  -0.00098895  0.76421071  0.37377350  1
  O  O246  1  0.00588798  0.76038060  0.86576878  1
  O  O247  1  0.50670579  0.25870504  0.37359698  1
  O  O248  1  0.51045379  0.25580899  0.87077387  1
  O  O249  1  0.50659326  0.75583306  0.37038343  1
  O  O250  1  0.51174642  0.75406030  0.86854854  1
  O  O251  1  0.25586453  0.13734021  0.48858970  1
  O  O252  1  0.25808067  0.12272253  0.98451232  1
  O  O253  1  0.25493152  0.64338696  0.50260088  1
  O  O254  1  0.25209146  0.62315399  0.98728985  1
  O  O255  1  0.75323233  0.14156575  0.49792796  1
  O  O256  1  0.73817896  0.12635269  1.00540115  1
  O  O257  1  0.75749389  0.64070974  0.49119808  1
  O  O258  1  0.73830976  0.63216312  1.00569247  1
  O  O259  1  0.26292721  0.37293583  0.00067680  1
  O  O260  1  0.25711828  0.36514609  0.50906909  1
  O  O261  1  0.25949116  0.88248610  0.00614511  1
  O  O262  1  0.26125004  0.86723798  0.49800150  1
  O  O263  1  0.75808471  0.37610521  0.01011939  1
  O  O264  1  0.74706604  0.36486684  0.50410792  1
  O  O265  1  0.75778810  0.87067086  0.00411964  1
  O  O266  1  0.76292583  0.86532778  0.49273477  1
  O  O267  1  0.12159574  0.50517296  0.23966728  1
  O  O268  1  0.11516626  0.49816764  0.73660430  1
  O  O269  1  0.11950071  0.98914916  0.23817793  1
  O  O270  1  0.11854978  0.98400457  0.75143753  1
  O  O271  1  0.62505584  0.51096739  0.25266001  1
  O  O272  1  0.63248383  0.49548756  0.73995288  1
  O  O273  1  0.62113377  0.98545423  0.24983657  1
  O  O274  1  0.63408254  0.99513356  0.74416555  1
  O  O275  1  0.37410275  0.00549063  0.25593831  1
  O  O276  1  0.38224738  0.00590898  0.75799098  1
  O  O277  1  0.37442843  0.52300960  0.24628322  1
  O  O278  1  0.38251826  0.50830465  0.76006987  1
  O  O279  1  0.88337652  0.00848400  0.25777618  1
  O  O280  1  0.86833271  0.01237731  0.74818332  1
  O  O281  1  0.89064669  0.51782286  0.26568691  1
  O  O282  1  0.86496436  0.51392108  0.74356104  1
  O  O283  1  0.13306168  0.36694857  0.37098672  1
  O  O284  1  0.11353362  0.37758830  0.87296297  1
  O  O285  1  0.11584300  0.87653207  0.36344806  1
  O  O286  1  0.11729505  0.86888153  0.86695505  1
  O  O287  1  0.61128992  0.36941045  0.37832894  1
  O  O288  1  0.61989364  0.36620566  0.86790100  1
  O  O289  1  0.62124956  0.86937728  0.36754705  1
  O  O290  1  0.62140829  0.86656477  0.86632350  1
  O  O291  1  0.38293340  0.12849133  0.12480208  1
  O  O292  1  0.38230174  0.12732626  0.62893671  1
  O  O293  1  0.38541735  0.62878977  0.12984891  1
  O  O294  1  0.38471540  0.62332869  0.63457096  1
  O  O295  1  0.88178946  0.13461717  0.12824972  1
  O  O296  1  0.89115554  0.12368004  0.63672923  1
  O  O297  1  0.86943978  0.61768979  0.14313910  1
  O  O298  1  0.87599728  0.64128526  0.63413996  1
  O  O299  1  0.26147253  0.24776879  0.12249520  1
  O  O300  1  0.25203917  0.25462106  0.61730797  1
  O  O301  1  0.24719209  0.76499331  0.12540498  1
  O  O302  1  0.25421600  0.75977167  0.61452876  1
  O  O303  1  0.76126635  0.25968196  0.12201072  1
  O  O304  1  0.74739246  0.26012192  0.60812575  1
  O  O305  1  0.74700981  0.76419741  0.10860903  1
  O  O306  1  0.75650714  0.74847329  0.61545582  1
  O  O307  1  0.24115019  0.24351304  0.37974301  1
  O  O308  1  0.25135142  0.23410620  0.87789033  1
  O  O309  1  0.24819850  0.75233583  0.38929983  1
  O  O310  1  0.23931105  0.74134687  0.87177413  1
  O  O311  1  0.74417737  0.25374511  0.38364266  1
  O  O312  1  0.73759422  0.25718797  0.87501197  1
  O  O313  1  0.74474855  0.74503830  0.38156842  1
  O  O314  1  0.73844394  0.75641220  0.88501325  1
  O  O315  1  -0.00828203  0.11868256  0.01075721  1
  O  O316  1  -0.00698648  0.11646028  0.50740243  1
  O  O317  1  -0.00293374  0.61331592  -0.00644709  1
  O  O318  1  0.00034806  0.61808770  0.50590915  1
  O  O319  1  0.50839904  0.11941151  0.00580460  1
  O  O320  1  0.49822189  0.11955828  0.51004463  1
  O  O321  1  0.50443444  0.61819818  0.00654946  1
  O  O322  1  0.48990692  0.61548578  0.51082002  1
  O  O323  1  0.49242121  0.38118769  0.49513105  1
  O  O324  1  0.49334149  0.38103398  0.99244479  1
  O  O325  1  0.49387656  0.87972829  0.49384586  1
  O  O326  1  0.49498118  0.87854909  0.99448969  1
  O  O327  1  0.99959017  0.38821400  0.50398414  1
  O  O328  1  0.99063616  0.38526013  0.99294595  1
  O  O329  1  0.98988666  0.88146475  0.49280916  1
  O  O330  1  0.99300508  0.88228108  0.99347098  1
  O  O331  1  0.50362198  0.49280148  0.38891342  1
  O  O332  1  0.48938912  0.49511497  0.88215818  1
  O  O333  1  0.49612346  0.99643925  0.38013764  1
  O  O334  1  0.49223624  0.99367999  0.87768859  1
  O  O335  1  0.99025695  0.50408101  0.38940226  1
  O  O336  1  1.00327011  0.49232416  0.88709698  1
  O  O337  1  0.99162016  0.99153232  0.37949491  1
  O  O338  1  1.00936047  0.99182307  0.88477932  1
  O  O339  1  0.00547186  0.00816429  0.11664015  1
  O  O340  1  0.00366765  0.00718945  0.61546436  1
  O  O341  1  0.00931220  0.49847727  0.11180716  1
  O  O342  1  0.00484308  0.50268027  0.61544076  1
  O  O343  1  0.50117653  0.00976804  0.11739316  1
  O  O344  1  0.51187261  0.00837313  0.62014897  1
  O  O345  1  0.49846218  0.50486016  0.11322445  1
  O  O346  1  0.50778518  0.50471636  0.61824206  1
  O  O347  1  0.28068469  0.38124676  0.23977754  1
  O  O348  1  0.25333723  0.36736243  0.73612671  1
  O  O349  1  0.23937233  0.87636623  0.24232242  1
  O  O350  1  0.23469075  0.86913606  0.75281189  1
  O  O351  1  0.75507453  0.37397771  0.23083393  1
  O  O352  1  0.74705909  0.38365841  0.73816256  1
  O  O353  1  0.74177819  0.86558974  0.24009964  1
  O  O354  1  0.74144818  0.88489185  0.75396385  1
  O  O355  1  0.25740124  0.12301109  0.25882893  1
  O  O356  1  0.26293157  0.12893165  0.75732646  1
  O  O357  1  0.26500259  0.63945972  0.25077558  1
  O  O358  1  0.26387462  0.63081365  0.75783523  1
  O  O359  1  0.76644670  0.13230302  0.24831589  1
  O  O360  1  0.76517186  0.12155131  0.74562053  1
  O  O361  1  0.76553948  0.62947377  0.26127838  1
  O  O362  1  0.75547053  0.61523484  0.74576141  1
  O  O363  1  0.36780056  0.12239390  0.36905842  1
  O  O364  1  0.37199255  0.11644177  0.86566307  1
  O  O365  1  0.37535752  0.63305174  0.36076550  1
  O  O366  1  0.37052500  0.61814296  0.86944147  1
  O  O367  1  0.87783795  0.11670865  0.36435601  1
  O  O368  1  0.88063996  0.12587714  0.86315362  1
  O  O369  1  0.86726573  0.62213557  0.36836899  1
  O  O370  1  0.87378095  0.63523693  0.86113981  1
  O  O371  1  0.12373918  0.39262441  0.12246826  1
  O  O372  1  0.13415287  0.38297312  0.62778408  1
  O  O373  1  0.12942162  0.88275920  0.12925303  1
  O  O374  1  0.12171703  0.87387604  0.64210970  1
  O  O375  1  0.63601748  0.37026319  0.12046588  1
  O  O376  1  0.63124760  0.38409405  0.62816903  1
  O  O377  1  0.63236057  0.87724872  0.13144730  1
  O  O378  1  0.62015979  0.88581476  0.63609638  1
  O  O379  1  0.11259696  0.25130966  0.25247257  1
  O  O380  1  0.11083121  0.25588127  0.75909915  1
  O  O381  1  0.11077043  0.76014333  0.24875468  1
  O  O382  1  0.11488567  0.75712803  0.75762538  1
  O  O383  1  0.62490603  0.24789389  0.26350974  1
  O  O384  1  0.62645161  0.25451108  0.75369210  1
  O  O385  1  0.61102715  0.76232097  0.26187774  1
  O  O386  1  0.62549079  0.75602412  0.75475148  1
  O  O387  1  0.38187043  0.24141611  0.23626955  1
  O  O388  1  0.38078588  0.23809634  0.74171025  1
  O  O389  1  0.38755578  0.74883329  0.24636564  1
  O  O390  1  0.38437840  0.74062508  0.74957470  1
  O  O391  1  0.88586580  0.24439301  0.24357028  1
  O  O392  1  0.88260866  0.23847811  0.75256824  1
  O  O393  1  0.88580427  0.74258289  0.25202752  1
  O  O394  1  0.87782952  0.74933230  0.74476805  1
  O  O395  1  0.38471863  0.48750827  0.50830929  1
  O  O396  1  0.38292862  0.49114064  0.99247351  1
  O  O397  1  0.38242847  0.99242582  0.49353323  1
  O  O398  1  0.38295838  0.98937085  0.98861246  1
  O  O399  1  0.88522404  0.50475855  0.49201916  1
  O  O400  1  0.88837619  0.49320106  1.00589906  1
  O  O401  1  0.88283523  0.99345736  0.49331028  1
  O  O402  1  0.88717633  0.99039482  1.00153515  1
  O  O403  1  0.11313673  -0.00706205  0.01022294  1
  O  O404  1  0.10910714  -0.00835567  0.49757236  1
  O  O405  1  0.11283790  0.50601686  0.00611401  1
  O  O406  1  0.11021363  0.50186241  0.51137714  1
  O  O407  1  0.61948530  0.00744172  -0.00128122  1
  O  O408  1  0.62214672  0.00053645  0.50783620  1
  O  O409  1  0.61248421  0.50800900  -0.01144342  1
  O  O410  1  0.61411175  0.49480007  0.50977416  1
  O  O411  1  0.38196072  0.36092650  0.11113789  1
  O  O412  1  0.36940307  0.36967026  0.61693683  1
  O  O413  1  0.36674197  0.87535560  0.11519935  1
  O  O414  1  0.38032705  0.87494220  0.61386733  1
  O  O415  1  0.86697685  0.37299575  0.11780258  1
  O  O416  1  0.86313027  0.38116784  0.62612854  1
  O  O417  1  0.86958770  0.87721871  0.11378809  1
  O  O418  1  0.88054666  0.86703422  0.61582762  1
  O  O419  1  0.13512705  0.12933616  0.36534732  1
  O  O420  1  0.14365134  0.11947268  0.86718037  1
  O  O421  1  0.13019972  0.63175824  0.37996420  1
  O  O422  1  0.13401658  0.63235238  0.87386913  1
  O  O423  1  0.62959127  0.13328032  0.37776929  1
  O  O424  1  0.61747074  0.13313194  0.88115324  1
  O  O425  1  0.63445991  0.64002196  0.37175725  1
  O  O426  1  0.61636617  0.63437539  0.88437188  1
