# generated using pymatgen
data_V85Zn86O256
_symmetry_space_group_name_H-M   'P 1'
_cell_length_a   17.02578753
_cell_length_b   17.01550313
_cell_length_c   17.02444970
_cell_angle_alpha   90.03649472
_cell_angle_beta   89.92846537
_cell_angle_gamma   89.90113019
_symmetry_Int_Tables_number   1
_chemical_formula_structural   V85Zn86O256
_chemical_formula_sum   'V85 Zn86 O256'
_cell_volume   4932.01073767
_cell_formula_units_Z   1
loop_
 _symmetry_equiv_pos_site_id
 _symmetry_equiv_pos_as_xyz
  1  'x, y, z'
loop_
 _atom_site_type_symbol
 _atom_site_label
 _atom_site_symmetry_multiplicity
 _atom_site_fract_x
 _atom_site_fract_y
 _atom_site_fract_z
 _atom_site_occupancy
  V  V0  1  -0.00082674  0.75971945  0.75303495  1
  V  V1  1  0.37524112  0.87669951  0.50320441  1
  V  V2  1  0.37405512  -0.00117481  0.87396947  1
  V  V3  1  0.62185858  0.74910920  0.87383606  1
  V  V4  1  0.37169612  0.38237316  0.49803239  1
  V  V5  1  0.12300365  0.49738342  0.62631167  1
  V  V6  1  0.12210352  0.01000149  0.62551372  1
  V  V7  1  0.24975218  0.75237045  0.50149425  1
  V  V8  1  -0.00019623  0.50005715  0.49583588  1
  V  V9  1  0.36987300  0.00739041  0.37860054  1
  V  V10  1  0.00407181  0.87354964  0.37137293  1
  V  V11  1  0.74959152  0.87630457  0.62554607  1
  V  V12  1  0.74874995  -0.00038088  0.75044994  1
  V  V13  1  0.13480243  0.72450717  0.86255379  1
  V  V14  1  0.88866815  0.24054779  0.62520062  1
  V  V15  1  0.87332672  0.49736942  0.37536318  1
  V  V16  1  0.00494453  0.24895081  0.25282165  1
  V  V17  1  0.49574857  -0.00233272  0.00277988  1
  V  V18  1  0.87250463  0.62621558  0.74890515  1
  V  V19  1  0.00528163  0.37051970  0.37271319  1
  V  V20  1  0.21689821  0.73100868  0.03154681  1
  V  V21  1  0.11066146  0.25469118  0.87489769  1
  V  V22  1  0.12509901  0.62628330  0.50027066  1
  V  V23  1  0.50005634  0.12179379  0.12750775  1
  V  V24  1  0.86971286  0.37323441  0.50505419  1
  V  V25  1  0.74944630  0.12288165  0.87457632  1
  V  V26  1  0.49778696  0.49249440  -0.00390054  1
  V  V27  1  0.87561669  0.75350365  0.62293943  1
  V  V28  1  0.89485297  0.37660642  0.00313188  1
  V  V29  1  0.88780835  0.87569628  -0.00509713  1
  V  V30  1  0.37668674  0.25067500  0.62595183  1
  V  V31  1  0.38054183  0.75837535  0.12188001  1
  V  V32  1  0.11317701  0.36929200  0.74816807  1
  V  V33  1  0.25463702  0.24882628  -0.00157349  1
  V  V34  1  0.38164286  0.13407321  0.74784670  1
  V  V35  1  0.49487777  0.38198603  0.37670941  1
  V  V36  1  0.31948207  0.43135588  -0.05511216  1
  V  V37  1  0.62008957  0.25008875  0.87030661  1
  V  V38  1  0.24358441  0.38101409  0.13155747  1
  V  V39  1  0.12246848  0.88046480  0.76162704  1
  V  V40  1  0.12786471  0.12434048  0.48402346  1
  V  V41  1  0.50253542  0.62148954  0.12631299  1
  V  V42  1  0.74599188  -0.00053757  0.24849562  1
  V  V43  1  0.24887613  0.24472840  0.49383056  1
  V  V44  1  0.87330639  0.12360493  0.24990860  1
  V  V45  1  0.74572497  0.87861463  0.12159806  1
  V  V46  1  0.12550505  0.74892161  0.37436905  1
  V  V47  1  0.50594797  0.12616793  0.62381259  1
  V  V48  1  0.87480753  0.87549203  0.50041547  1
  V  V49  1  0.62483277  0.62286110  -0.00084866  1
  V  V50  1  0.87499684  0.24444434  0.12683548  1
  V  V51  1  0.50026284  0.24957342  0.25232594  1
  V  V52  1  -0.00134341  0.62780406  0.62109260  1
  V  V53  1  0.62334987  0.62193427  0.50512150  1
  V  V54  1  0.24420806  0.49727067  0.25972597  1
  V  V55  1  0.62813792  0.75057133  0.37709885  1
  V  V56  1  0.62468241  0.87951723  0.24623501  1
  V  V57  1  0.36430015  0.12699912  0.25334631  1
  V  V58  1  0.62423295  0.11992016  0.00387551  1
  V  V59  1  0.74868689  0.49835217  0.24989498  1
  V  V60  1  0.74757797  0.75025865  -0.00136712  1
  V  V61  1  0.87506857  0.62334082  0.24095872  1
  V  V62  1  0.37594353  0.25423999  0.12269499  1
  V  V63  1  0.74697739  0.37147968  0.12309075  1
  V  V64  1  0.49629948  0.74605134  0.74782433  1
  V  V65  1  0.74372470  0.12444747  0.38114228  1
  V  V66  1  0.75080190  0.61921291  0.87199746  1
  V  V67  1  0.62314111  0.87506300  0.74989210  1
  V  V68  1  0.50614967  0.00489309  0.50129474  1
  V  V69  1  0.49783929  0.37162400  0.87422184  1
  V  V70  1  0.36495437  0.61496787  0.75844784  1
  V  V71  1  0.25282283  0.13778444  0.87125154  1
  V  V72  1  0.25165250  -0.02318114  0.24610666  1
  V  V73  1  0.62425359  0.49698250  0.12575778  1
  V  V74  1  0.88820711  -0.00279197  0.87729445  1
  V  V75  1  -0.00269251  0.74491988  0.25008807  1
  V  V76  1  0.88708233  0.12548077  0.74755494  1
  V  V77  1  0.74970852  0.62315122  0.37553275  1
  V  V78  1  0.87436487  -0.00129815  0.37448750  1
  V  V79  1  0.37879442  0.61699844  0.25747095  1
  V  V80  1  0.00086047  0.00567927  0.50267869  1
  V  V81  1  0.25108951  0.00210534  0.74888840  1
  V  V82  1  0.50234614  0.74971407  0.25306044  1
  V  V83  1  0.62323631  0.24765424  0.38079308  1
  V  V84  1  0.74729862  0.24950483  0.50731461  1
  Zn  Zn85  1  0.74378139  0.48520889  0.73840425  1
  Zn  Zn86  1  0.00343567  0.10769151  0.11615958  1
  Zn  Zn87  1  0.25011000  0.37427063  0.62945504  1
  Zn  Zn88  1  0.24824849  0.87638565  0.62705114  1
  Zn  Zn89  1  0.75075075  0.75018828  0.50162172  1
  Zn  Zn90  1  0.50263103  0.87905852  0.37763354  1
  Zn  Zn91  1  0.36066078  0.87137539  0.00038574  1
  Zn  Zn92  1  0.62751380  0.00496381  0.62186163  1
  Zn  Zn93  1  0.49804491  0.61649473  0.62718393  1
  Zn  Zn94  1  0.37413101  0.74715872  0.62615349  1
  Zn  Zn95  1  0.75090126  0.24790561  0.00018578  1
  Zn  Zn96  1  0.60611384  0.36942636  0.73945950  1
  Zn  Zn97  1  0.49498524  0.50206219  0.50209915  1
  Zn  Zn98  1  0.12411653  -0.01472062  0.12123932  1
  Zn  Zn99  1  0.87502690  0.74664395  0.12034325  1
  Zn  Zn100  1  0.13303693  0.24802310  0.36385701  1
  Zn  Zn101  1  0.62321064  0.37430353  0.25272378  1
  Zn  Zn102  1  0.25711493  0.61474247  0.38310030  1
  Zn  Zn103  1  0.87051760  0.47295917  0.86735902  1
  Zn  Zn104  1  0.49676836  0.87226774  0.87614735  1
  Zn  Zn105  1  0.62973582  0.48016234  0.62013842  1
  Zn  Zn106  1  0.11502432  0.10318452  -0.00641461  1
  Zn  Zn107  1  0.18464427  0.17942500  0.17762207  1
  Zn  Zn108  1  0.18847642  0.19220226  0.68623364  1
  Zn  Zn109  1  0.19184121  0.68852009  0.20175624  1
  Zn  Zn110  1  0.18840226  0.68631695  0.68616531  1
  Zn  Zn111  1  0.68467899  0.18755473  0.19085097  1
  Zn  Zn112  1  0.68965432  0.18991971  0.68931322  1
  Zn  Zn113  1  0.69042405  0.68820536  0.18589944  1
  Zn  Zn114  1  0.68897334  0.68812565  0.68756795  1
  Zn  Zn115  1  0.31440713  0.31347994  0.31275519  1
  Zn  Zn116  1  0.24680907  0.49689675  0.76746321  1
  Zn  Zn117  1  0.32025658  0.80946642  0.32025250  1
  Zn  Zn118  1  0.31211824  0.81278325  0.81253535  1
  Zn  Zn119  1  0.81221289  0.31231882  0.31477665  1
  Zn  Zn120  1  0.81790469  0.30342875  0.81703746  1
  Zn  Zn121  1  0.81330500  0.81212387  0.31207131  1
  Zn  Zn122  1  0.80992631  0.81205113  0.81416266  1
  Zn  Zn123  1  0.18836940  0.43401458  0.44002508  1
  Zn  Zn124  1  0.13633028  0.44746142  0.93583844  1
  Zn  Zn125  1  0.18779167  0.93747225  0.43418201  1
  Zn  Zn126  1  0.16146797  0.89576332  0.97468328  1
  Zn  Zn127  1  0.68545027  0.43479374  0.43834310  1
  Zn  Zn128  1  0.68507500  0.43505919  0.93737926  1
  Zn  Zn129  1  0.68813557  0.93617070  0.43693758  1
  Zn  Zn130  1  0.68613691  0.93757739  0.93542215  1
  Zn  Zn131  1  0.27715057  0.03669954  0.04204014  1
  Zn  Zn132  1  0.31195919  0.06580019  0.56288154  1
  Zn  Zn133  1  0.31009471  0.56860338  0.07227525  1
  Zn  Zn134  1  0.31100411  0.56659989  0.57260870  1
  Zn  Zn135  1  0.81289198  0.05668791  0.06070226  1
  Zn  Zn136  1  0.81260781  0.06243872  0.56285809  1
  Zn  Zn137  1  0.81289299  0.55693408  0.05880154  1
  Zn  Zn138  1  0.80841952  0.56287764  0.56403890  1
  Zn  Zn139  1  0.43568964  0.43577465  0.18911727  1
  Zn  Zn140  1  0.43828937  0.43975467  0.68454218  1
  Zn  Zn141  1  0.43643520  0.94048241  0.19101882  1
  Zn  Zn142  1  0.43998038  0.93767729  0.68609933  1
  Zn  Zn143  1  0.93639670  0.43004710  0.18143227  1
  Zn  Zn144  1  0.91287890  0.41852703  0.70383806  1
  Zn  Zn145  1  0.93485655  0.93024199  0.18285939  1
  Zn  Zn146  1  0.93711899  0.94149383  0.68752343  1
  Zn  Zn147  1  0.05123768  0.04118787  0.28237808  1
  Zn  Zn148  1  0.06623853  0.06644279  0.81536247  1
  Zn  Zn149  1  0.03824047  0.53420817  0.26699894  1
  Zn  Zn150  1  0.04833990  0.56085812  0.80237414  1
  Zn  Zn151  1  0.55867997  0.06279596  0.31535391  1
  Zn  Zn152  1  0.56158834  0.06256591  0.81222708  1
  Zn  Zn153  1  0.56481618  0.56154751  0.31529884  1
  Zn  Zn154  1  0.56335297  0.55635871  0.80791725  1
  Zn  Zn155  1  0.43649994  0.18888987  0.44018032  1
  Zn  Zn156  1  0.43690583  0.18750400  0.93840166  1
  Zn  Zn157  1  0.43946711  0.68861898  0.43959553  1
  Zn  Zn158  1  0.43683748  0.67979794  0.93552306  1
  Zn  Zn159  1  0.93621659  0.18576004  0.43550661  1
  Zn  Zn160  1  0.93594756  0.18097579  0.94320569  1
  Zn  Zn161  1  0.93579997  0.68600539  0.43433833  1
  Zn  Zn162  1  0.93766578  0.68978201  0.93055142  1
  Zn  Zn163  1  0.06639478  0.30271307  0.06826238  1
  Zn  Zn164  1  0.06104740  0.31059501  0.55748904  1
  Zn  Zn165  1  0.06517662  0.78974858  0.07232951  1
  Zn  Zn166  1  0.06459820  0.82054610  0.56646873  1
  Zn  Zn167  1  0.56360869  0.30849316  0.05992615  1
  Zn  Zn168  1  0.55821681  0.31204600  0.56135480  1
  Zn  Zn169  1  0.56103570  0.81228804  0.06220530  1
  Zn  Zn170  1  0.56175021  0.81373487  0.56547129  1
  O  O171  1  0.12397472  0.11102408  0.11509679  1
  O  O172  1  0.12737262  0.11317058  0.62182842  1
  O  O173  1  0.14369576  0.69942388  0.10035897  1
  O  O174  1  0.11800617  0.61963792  0.61899680  1
  O  O175  1  0.61221214  0.13195911  0.11698739  1
  O  O176  1  0.61032008  0.12614557  0.63367936  1
  O  O177  1  0.62155518  0.61833524  0.12002158  1
  O  O178  1  0.62401492  0.63437930  0.60942045  1
  O  O179  1  0.38467874  0.36717673  0.38606538  1
  O  O180  1  0.38195549  0.37602303  0.89132491  1
  O  O181  1  0.38100367  0.88377027  0.38831848  1
  O  O182  1  0.37466162  0.88677209  0.87687271  1
  O  O183  1  0.88073858  0.37653568  0.38525414  1
  O  O184  1  0.88306600  0.35643318  0.90293646  1
  O  O185  1  0.88037726  0.87974174  0.38131213  1
  O  O186  1  0.86739557  0.88240263  0.88670259  1
  O  O187  1  0.26539541  -0.00608915  0.36812657  1
  O  O188  1  0.26205574  0.01694505  0.86140968  1
  O  O189  1  0.25303308  0.49513262  0.36443455  1
  O  O190  1  0.25240271  0.47782190  0.88528576  1
  O  O191  1  0.75350661  0.00686742  0.37076761  1
  O  O192  1  0.75572982  0.00894331  0.87075162  1
  O  O193  1  0.75345071  0.50240435  0.36968684  1
  O  O194  1  0.75355122  0.51320687  0.88109590  1
  O  O195  1  0.25863990  0.48566153  0.13461163  1
  O  O196  1  0.22855856  0.49944198  0.61987477  1
  O  O197  1  0.26357043  0.99572750  0.14657608  1
  O  O198  1  0.24362093  1.00369326  0.63706788  1
  O  O199  1  0.74362785  0.48963931  0.12934599  1
  O  O200  1  0.74399714  0.50008259  0.62632847  1
  O  O201  1  0.75206588  0.98672208  0.13140619  1
  O  O202  1  0.74810306  0.99562815  0.63120562  1
  O  O203  1  -0.01333235  0.35833244  0.26227975  1
  O  O204  1  0.01207991  0.38090486  0.74566599  1
  O  O205  1  -0.01263554  0.86129736  0.26607164  1
  O  O206  1  0.00811321  0.86857523  0.74290403  1
  O  O207  1  0.49845029  0.36739253  0.26018573  1
  O  O208  1  0.49063061  0.37971502  0.77150573  1
  O  O209  1  0.50873934  0.86758365  0.25135219  1
  O  O210  1  0.50388487  0.86632777  0.75256201  1
  O  O211  1  0.49542328  0.12895767  0.24321570  1
  O  O212  1  0.48897503  0.11742391  0.74039477  1
  O  O213  1  0.49853627  0.63123665  0.24847551  1
  O  O214  1  0.49304001  0.63196783  0.75062784  1
  O  O215  1  0.98134968  0.13435577  0.25986312  1
  O  O216  1  0.98559850  0.12173409  0.75418518  1
  O  O217  1  0.98351966  0.63710618  0.26630085  1
  O  O218  1  0.99285396  0.64287910  0.73858647  1
  O  O219  1  0.36705653  0.24399667  0.01154669  1
  O  O220  1  0.36579611  0.25487332  0.50641075  1
  O  O221  1  0.39967100  0.74967006  0.02000534  1
  O  O222  1  0.36772409  0.75979244  0.49927663  1
  O  O223  1  0.87336961  0.25295649  0.01506366  1
  O  O224  1  0.86842115  0.25123467  0.50740865  1
  O  O225  1  0.86850709  0.75960533  -0.00336394  1
  O  O226  1  0.87508036  0.75755393  0.50503450  1
  O  O227  1  0.13191872  0.23895968  0.50069731  1
  O  O228  1  0.13813945  0.25838173  0.98429586  1
  O  O229  1  0.13130622  0.74842793  0.49754438  1
  O  O230  1  0.12365347  0.74625829  0.96648081  1
  O  O231  1  0.63310624  0.25226423  0.48759046  1
  O  O232  1  0.62720231  0.23510048  0.99172661  1
  O  O233  1  0.62382077  0.74637149  0.48840579  1
  O  O234  1  0.62632039  0.74200192  0.99483210  1
  O  O235  1  0.49431626  0.24453026  0.13016787  1
  O  O236  1  0.48531494  0.23797936  0.61399065  1
  O  O237  1  0.50113309  0.74300499  0.13840350  1
  O  O238  1  0.49886455  0.74855186  0.63835323  1
  O  O239  1  0.98817123  0.24568639  0.13666578  1
  O  O240  1  0.98672315  0.24242463  0.61590997  1
  O  O241  1  0.98931754  0.75252192  0.14536994  1
  O  O242  1  0.99519813  0.74911655  0.62974612  1
  O  O243  1  -0.00025453  0.25452219  0.36959008  1
  O  O244  1  0.01390941  0.24401106  0.88133476  1
  O  O245  1  0.00626923  0.75662678  0.37401323  1
  O  O246  1  0.01153579  0.74384401  0.85740446  1
  O  O247  1  0.50741315  0.25407984  0.37309646  1
  O  O248  1  0.50892990  0.25814728  0.88516537  1
  O  O249  1  0.51047047  0.75216646  0.36654413  1
  O  O250  1  0.50472127  0.74970323  0.86621403  1
  O  O251  1  0.24173290  0.13354071  0.50257855  1
  O  O252  1  0.25357270  0.13847573  0.98694187  1
  O  O253  1  0.24650672  0.63592092  0.50082398  1
  O  O254  1  0.26582082  0.64891811  1.00266091  1
  O  O255  1  0.75521786  0.13145695  0.48739983  1
  O  O256  1  0.74182520  0.12075306  0.99250335  1
  O  O257  1  0.74148130  0.62988870  0.49180966  1
  O  O258  1  0.74549791  0.63011255  0.99326235  1
  O  O259  1  0.26203972  0.36965289  0.01096704  1
  O  O260  1  0.25568571  0.36507054  0.50558943  1
  O  O261  1  0.25591869  0.82415383  -0.00589324  1
  O  O262  1  0.25773106  0.86991272  0.50121400  1
  O  O263  1  0.74950946  0.36935646  0.01456175  1
  O  O264  1  0.76120757  0.36221015  0.49082828  1
  O  O265  1  0.74689307  0.86944062  0.00754670  1
  O  O266  1  0.75703179  0.87472150  0.50616539  1
  O  O267  1  0.14732853  0.50755232  0.25173722  1
  O  O268  1  0.11814356  0.49378636  0.74118702  1
  O  O269  1  0.15291712  0.99811289  0.25933905  1
  O  O270  1  0.13104052  0.99929019  0.74547753  1
  O  O271  1  0.63085654  0.49749631  0.24359165  1
  O  O272  1  0.62944880  0.48479959  0.75024521  1
  O  O273  1  0.62845376  0.98679739  0.25864950  1
  O  O274  1  0.63109237  0.99335820  0.75064357  1
  O  O275  1  0.37024303  0.00659542  0.26035226  1
  O  O276  1  0.36885598  0.00701544  0.75453000  1
  O  O277  1  0.37007437  0.51109244  0.24644172  1
  O  O278  1  0.36991714  0.51108989  0.74625633  1
  O  O279  1  0.86547899  0.00617067  0.25574000  1
  O  O280  1  0.86850546  0.00604267  0.75712716  1
  O  O281  1  0.86534188  0.50614764  0.25723354  1
  O  O282  1  0.89838838  0.52736397  0.75429171  1
  O  O283  1  0.10876214  0.36983975  0.38227681  1
  O  O284  1  0.11923530  0.36527652  0.86344150  1
  O  O285  1  0.11316734  0.86438318  0.38296152  1
  O  O286  1  0.12723686  0.87897200  0.86158039  1
  O  O287  1  0.61556084  0.36437494  0.37451898  1
  O  O288  1  0.61664542  0.36393458  0.87833716  1
  O  O289  1  0.62606136  0.86530796  0.36550596  1
  O  O290  1  0.62234705  0.86762312  0.86770224  1
  O  O291  1  0.38721630  0.13827566  0.13662718  1
  O  O292  1  0.38188271  0.12954329  0.63088710  1
  O  O293  1  0.38646621  0.63348077  0.13821166  1
  O  O294  1  0.37962125  0.62952613  0.63771544  1
  O  O295  1  0.87071062  0.12841738  0.13492664  1
  O  O296  1  0.87263046  0.13220833  0.63174262  1
  O  O297  1  0.86409758  0.62533644  0.13754036  1
  O  O298  1  0.87855754  0.63443416  0.62963595  1
  O  O299  1  0.25631026  0.25678886  0.11708913  1
  O  O300  1  0.25961102  0.24991939  0.61458410  1
  O  O301  1  0.27834802  0.74597883  0.13120840  1
  O  O302  1  0.24911737  0.75456766  0.61231032  1
  O  O303  1  0.75762725  0.25399164  0.12761901  1
  O  O304  1  0.75626088  0.23989358  0.61007251  1
  O  O305  1  0.75202716  0.76053875  0.11854845  1
  O  O306  1  0.75785391  0.75884669  0.62430228  1
  O  O307  1  0.24727832  0.25755513  0.38798891  1
  O  O308  1  0.24867562  0.24328375  0.88171087  1
  O  O309  1  0.24226424  0.75336016  0.38701574  1
  O  O310  1  0.23242852  0.74427437  0.85306999  1
  O  O311  1  0.74342019  0.24225991  0.38117806  1
  O  O312  1  0.74442564  0.23728115  0.87877926  1
  O  O313  1  0.74009610  0.74497819  0.37442440  1
  O  O314  1  0.73999644  0.74240442  0.87922463  1
  O  O315  1  0.00256188  0.11714891  0.00335669  1
  O  O316  1  0.00713198  0.11062091  0.49096209  1
  O  O317  1  -0.01368716  0.58369440  -0.04409163  1
  O  O318  1  0.00449316  0.62027925  0.50197499  1
  O  O319  1  0.50341755  0.11738331  0.00770851  1
  O  O320  1  0.49230779  0.11439089  0.51031703  1
  O  O321  1  0.50524022  0.61194514  0.00519608  1
  O  O322  1  0.50903670  0.62307832  0.49981714  1
  O  O323  1  0.48822100  0.37409816  0.49146232  1
  O  O324  1  0.50365245  0.38450053  0.99575668  1
  O  O325  1  0.49101533  0.88408084  0.50196540  1
  O  O326  1  0.50186113  0.88987115  0.99881190  1
  O  O327  1  0.98899295  0.37832453  0.49150109  1
  O  O328  1  0.99373281  0.37410094  1.01630943  1
  O  O329  1  0.99524226  0.88526956  0.49128757  1
  O  O330  1  0.98362172  0.86420897  1.00069988  1
  O  O331  1  0.50494042  0.48536757  0.37764812  1
  O  O332  1  0.50569018  0.49064042  0.88945662  1
  O  O333  1  0.49011567  0.99966680  0.38435985  1
  O  O334  1  0.48674922  1.00420102  0.88368646  1
  O  O335  1  0.99236526  0.48886935  0.37400795  1
  O  O336  1  0.98158904  0.53010480  0.89409450  1
  O  O337  1  0.99487835  0.99016347  0.37722314  1
  O  O338  1  0.98688800  1.00213858  0.87034325  1
  O  O339  1  0.01573796  0.00500998  0.17041550  1
  O  O340  1  0.00786002  -0.00513077  0.61144050  1
  O  O341  1  0.00377873  0.51143173  0.16310189  1
  O  O342  1  0.00850893  0.50892661  0.61377351  1
  O  O343  1  0.49002159  0.01200080  0.11600927  1
  O  O344  1  0.50136463  0.00842531  0.61730451  1
  O  O345  1  0.50417428  0.50097526  0.11789082  1
  O  O346  1  0.51044251  0.49995028  0.61932228  1
  O  O347  1  0.25529867  0.38476178  0.24224984  1
  O  O348  1  0.22203263  0.38585919  0.74089835  1
  O  O349  1  0.25949570  0.87753742  0.25296290  1
  O  O350  1  0.24304123  0.88905223  0.74943286  1
  O  O351  1  0.75105994  0.37863627  0.23930819  1
  O  O352  1  0.81766352  0.40603565  0.77241764  1
  O  O353  1  0.74401036  0.87815053  0.24240332  1
  O  O354  1  0.74450880  0.88014698  0.74531006  1
  O  O355  1  0.26436226  0.12891527  0.24712034  1
  O  O356  1  0.25853867  0.12149901  0.75388720  1
  O  O357  1  0.26048983  0.61256968  0.25202679  1
  O  O358  1  0.26071203  0.61845555  0.74439824  1
  O  O359  1  0.75536888  0.12049151  0.25806683  1
  O  O360  1  0.75619986  0.11969842  0.75971171  1
  O  O361  1  0.75483791  0.61938679  0.25613466  1
  O  O362  1  0.75731752  0.62352886  0.75635460  1
  O  O363  1  0.38228852  0.11712483  0.36637233  1
  O  O364  1  0.37185377  0.12188647  0.86615470  1
  O  O365  1  0.37320868  0.63529160  0.36230538  1
  O  O366  1  0.37560374  0.62663660  0.85796938  1
  O  O367  1  0.86318609  0.11993029  0.36773759  1
  O  O368  1  0.86630388  0.11878107  0.86944243  1
  O  O369  1  0.86650955  0.61683738  0.37066252  1
  O  O370  1  0.85865900  0.63877758  0.86240949  1
  O  O371  1  0.14617910  0.36612234  0.12373031  1
  O  O372  1  0.11737701  0.38024030  0.63014484  1
  O  O373  1  0.12908952  0.87802421  0.08525893  1
  O  O374  1  0.12838030  0.89089838  0.63512788  1
  O  O375  1  0.63195831  0.37626101  0.12840201  1
  O  O376  1  0.62676773  0.36385854  0.62904108  1
  O  O377  1  0.63270257  0.86796249  0.13686820  1
  O  O378  1  0.63210017  0.87734976  0.63253838  1
  O  O379  1  0.10914982  0.23760467  0.24819569  1
  O  O380  1  0.12567325  0.25917639  0.76004891  1
  O  O381  1  0.11285621  0.74222883  0.26591216  1
  O  O382  1  0.11783300  0.75998327  0.75038325  1
  O  O383  1  0.61889926  0.25155244  0.26223102  1
  O  O384  1  0.63255311  0.25368099  0.76668334  1
  O  O385  1  0.61995533  0.75541385  0.25744983  1
  O  O386  1  0.61661106  0.75361431  0.75476515  1
  O  O387  1  0.38118401  0.24320503  0.24649403  1
  O  O388  1  0.37041782  0.23710571  0.73590652  1
  O  O389  1  0.38916002  0.74542432  0.24564069  1
  O  O390  1  0.38220369  0.74361224  0.74923943  1
  O  O391  1  0.87581710  0.24069580  0.24412285  1
  O  O392  1  0.86975787  0.24044244  0.73250278  1
  O  O393  1  0.87809232  0.73911937  0.25196135  1
  O  O394  1  0.88105993  0.74839714  0.74409224  1
  O  O395  1  0.36942753  0.48526868  0.50839260  1
  O  O396  1  0.37771302  0.49911730  1.00121875  1
  O  O397  1  0.37969685  0.99573581  0.49585559  1
  O  O398  1  0.37617207  0.99566949  0.99066216  1
  O  O399  1  0.87894952  0.49123583  0.49581077  1
  O  O400  1  0.87001608  0.47712264  1.00180255  1
  O  O401  1  0.88326813  0.99689995  0.49452930  1
  O  O402  1  0.87198395  0.98485473  0.99237727  1
  O  O403  1  0.17271144  0.00464815  0.00189747  1
  O  O404  1  0.12132606  0.00618566  0.50534338  1
  O  O405  1  0.14121460  0.51626119  0.01604467  1
  O  O406  1  0.11831363  0.50562007  0.50307482  1
  O  O407  1  0.61238147  0.01258487  -0.00835012  1
  O  O408  1  0.61062554  -0.00594120  0.49957242  1
  O  O409  1  0.61749359  0.50373019  0.00686525  1
  O  O410  1  0.62440899  0.51296941  0.49635973  1
  O  O411  1  0.36756122  0.35952935  0.13309202  1
  O  O412  1  0.37498852  0.36464667  0.61749449  1
  O  O413  1  0.38681013  0.86149127  0.12445281  1
  O  O414  1  0.37117921  0.87534034  0.61398186  1
  O  O415  1  0.86645427  0.36295665  0.11974124  1
  O  O416  1  0.87903016  0.35690594  0.61166464  1
  O  O417  1  0.86483130  0.87316959  0.11048725  1
  O  O418  1  0.86971056  0.87320680  0.61979258  1
  O  O419  1  0.12411212  0.12453657  0.38454965  1
  O  O420  1  0.13523269  0.13977114  0.87160536  1
  O  O421  1  0.13254073  0.64000723  0.38723677  1
  O  O422  1  0.12933587  0.62612477  0.85396149  1
  O  O423  1  0.63449893  0.13333780  0.36882157  1
  O  O424  1  0.63030348  0.13013626  0.88077454  1
  O  O425  1  0.62960011  0.63385185  0.38086001  1
  O  O426  1  0.63267331  0.62838426  0.87908504  1
