# generated using pymatgen
data_V85Zn86O256
_symmetry_space_group_name_H-M   'P 1'
_cell_length_a   16.98244859
_cell_length_b   16.95868346
_cell_length_c   17.00158053
_cell_angle_alpha   90.00370055
_cell_angle_beta   90.00048608
_cell_angle_gamma   89.93342982
_symmetry_Int_Tables_number   1
_chemical_formula_structural   V85Zn86O256
_chemical_formula_sum   'V85 Zn86 O256'
_cell_volume   4896.45136817
_cell_formula_units_Z   1
loop_
 _symmetry_equiv_pos_site_id
 _symmetry_equiv_pos_as_xyz
  1  'x, y, z'
loop_
 _atom_site_type_symbol
 _atom_site_label
 _atom_site_symmetry_multiplicity
 _atom_site_fract_x
 _atom_site_fract_y
 _atom_site_fract_z
 _atom_site_occupancy
  V  V0  1  0.25247893  0.50576937  0.25288161  1
  V  V1  1  0.12520222  0.74734456  0.37402596  1
  V  V2  1  0.49892810  0.87409958  0.87410193  1
  V  V3  1  0.87393667  0.11718324  0.75061287  1
  V  V4  1  0.12425363  0.25068461  0.87609537  1
  V  V5  1  0.63062268  0.87794569  0.23797668  1
  V  V6  1  0.37065017  0.74944453  0.61900674  1
  V  V7  1  0.62411637  0.24308167  0.88206325  1
  V  V8  1  0.12645542  0.25068136  0.37425136  1
  V  V9  1  -0.00004027  0.25137852  0.24912512  1
  V  V10  1  0.37686018  0.24359498  0.13076768  1
  V  V11  1  0.63597514  0.75065731  0.37696758  1
  V  V12  1  0.49899705  0.74635599  0.23720433  1
  V  V13  1  0.12430233  0.12374427  0.00036131  1
  V  V14  1  -0.00136436  0.50828376  0.00346961  1
  V  V15  1  0.00402298  -0.00333723  0.49796214  1
  V  V16  1  0.59313759  0.50575513  0.63050506  1
  V  V17  1  0.25110547  0.25062535  0.00263647  1
  V  V18  1  0.87642650  -0.00015718  0.37168975  1
  V  V19  1  0.88115128  0.62906186  0.23009810  1
  V  V20  1  0.12532546  -0.00265784  0.62592068  1
  V  V21  1  0.76294616  0.62623122  0.37366534  1
  V  V22  1  0.87649481  0.24965582  0.62580960  1
  V  V23  1  0.12462383  0.37718895  0.25059267  1
  V  V24  1  0.49391977  -0.00566191  0.50280830  1
  V  V25  1  0.00566879  0.75137087  0.75945150  1
  V  V26  1  0.12141510  0.87179316  0.76417910  1
  V  V27  1  -0.00034507  -0.00825968  -0.00497655  1
  V  V28  1  0.74931678  0.24386596  0.00134395  1
  V  V29  1  0.75151385  0.75005304  0.01302324  1
  V  V30  1  0.75103771  -0.00212485  0.24239061  1
  V  V31  1  0.25178597  0.87358514  0.62024496  1
  V  V32  1  0.86529006  0.86337215  0.50729464  1
  V  V33  1  -0.00193823  0.37744843  0.37489661  1
  V  V34  1  0.49729637  0.87511621  0.37501586  1
  V  V35  1  0.25066418  0.74974315  -0.00085485  1
  V  V36  1  0.50324169  0.24425503  0.26016134  1
  V  V37  1  0.23799545  0.62959166  0.87717902  1
  V  V38  1  0.61125060  0.62103395  0.00267220  1
  V  V39  1  0.00050610  0.37465427  0.87260182  1
  V  V40  1  0.74926493  0.38831902  0.63186237  1
  V  V41  1  0.38893638  0.50033483  0.38112646  1
  V  V42  1  0.86625803  0.49975268  0.87043819  1
  V  V43  1  0.37637232  -0.00152917  0.87663737  1
  V  V44  1  0.87702391  0.12675069  0.25150733  1
  V  V45  1  0.87419598  0.37395294  -0.00020671  1
  V  V46  1  0.00078591  0.74704348  0.23129636  1
  V  V47  1  0.67345112  0.06779606  0.55712940  1
  V  V48  1  0.60990883  0.50268423  0.12371421  1
  V  V49  1  0.73656725  0.12835398  0.37366956  1
  V  V50  1  0.87511967  0.38043286  0.49644109  1
  V  V51  1  0.37341346  0.62437694  0.74798475  1
  V  V52  1  0.12686961  0.87410393  0.24782010  1
  V  V53  1  0.25979864  0.87006750  0.12494337  1
  V  V54  1  -0.00480712  0.50131986  0.49548309  1
  V  V55  1  0.86799948  0.63081541  0.74797850  1
  V  V56  1  0.63259991  0.87745576  0.73204351  1
  V  V57  1  0.50869494  0.12535062  0.12159095  1
  V  V58  1  0.73892699  0.25224363  0.49866790  1
  V  V59  1  0.50096907  0.11925102  0.62259676  1
  V  V60  1  0.50754207  0.00492279  -0.00143352  1
  V  V61  1  0.62638416  0.37408923  0.25920542  1
  V  V62  1  0.12607690  0.62713743  0.49868570  1
  V  V63  1  0.50086845  0.24841507  0.75108698  1
  V  V64  1  0.24455545  0.49780780  0.75118446  1
  V  V65  1  0.62701623  0.74670567  0.87501976  1
  V  V66  1  0.74905283  0.11784804  0.87351098  1
  V  V67  1  0.12655805  0.00037395  0.12433192  1
  V  V68  1  0.24922429  -0.00193134  0.75163100  1
  V  V69  1  0.25020811  0.12458784  0.87613070  1
  V  V70  1  0.12744853  0.12588897  0.49906699  1
  V  V71  1  0.25048418  0.37513076  0.12624518  1
  V  V72  1  0.25855964  0.12487476  0.37061209  1
  V  V73  1  0.37634364  0.12280294  0.75161593  1
  V  V74  1  0.87593733  0.25060824  0.12548213  1
  V  V75  1  0.26010594  0.00293903  0.24894488  1
  V  V76  1  0.12157212  0.50872766  0.12352038  1
  V  V77  1  0.00067950  0.87266735  0.37218191  1
  V  V78  1  0.12221216  0.50141717  0.62512180  1
  V  V79  1  0.37497292  0.49901011  0.88348146  1
  V  V80  1  0.87519270  -0.01148402  0.87223085  1
  V  V81  1  0.49874208  0.37681268  0.88297089  1
  V  V82  1  0.86961006  0.87137056  0.01306205  1
  V  V83  1  0.49386256  0.74551232  0.74847605  1
  V  V84  1  0.75687083  0.50101367  0.24751133  1
  Zn  Zn85  1  0.25354629  0.75522945  0.49572007  1
  Zn  Zn86  1  0.63557565  0.00306043  0.11291034  1
  Zn  Zn87  1  0.00321809  0.12511804  0.62798483  1
  Zn  Zn88  1  0.00095576  0.12465871  0.12452192  1
  Zn  Zn89  1  0.38132280  0.37507040  0.50812131  1
  Zn  Zn90  1  0.00087497  0.24839191  0.75009577  1
  Zn  Zn91  1  0.38573423  0.62529979  0.24005978  1
  Zn  Zn92  1  0.38122513  0.86808696  0.00726682  1
  Zn  Zn93  1  0.74403130  0.61620905  0.87321076  1
  Zn  Zn94  1  0.74845675  0.37509430  0.12531289  1
  Zn  Zn95  1  -0.00941199  0.63692917  0.61860341  1
  Zn  Zn96  1  0.37909168  0.37910889  0.00662640  1
  Zn  Zn97  1  0.24929555  0.37208878  0.62087819  1
  Zn  Zn98  1  0.25366904  0.25612403  0.49955958  1
  Zn  Zn99  1  0.12342226  0.37149895  0.74693245  1
  Zn  Zn100  1  0.11499464  0.63746305  -0.00085786  1
  Zn  Zn101  1  0.36864756  0.24995965  0.62425655  1
  Zn  Zn102  1  0.63483691  0.37856411  0.75894295  1
  Zn  Zn103  1  0.50951466  0.37482530  0.38467769  1
  Zn  Zn104  1  0.37549651  -0.00245288  0.37771078  1
  Zn  Zn105  1  0.62410477  0.63252384  0.52374056  1
  Zn  Zn106  1  0.26166499  0.62884143  0.37528072  1
  Zn  Zn107  1  0.18725053  0.18662352  0.18837155  1
  Zn  Zn108  1  0.18677112  0.18743483  0.68852243  1
  Zn  Zn109  1  0.19166722  0.68812494  0.18486467  1
  Zn  Zn110  1  0.18388586  0.68781906  0.68818359  1
  Zn  Zn111  1  0.68685283  0.18699892  0.18895965  1
  Zn  Zn112  1  0.69199310  0.19599495  0.69402885  1
  Zn  Zn113  1  0.68305588  0.68411332  0.18914550  1
  Zn  Zn114  1  0.67564883  0.68399793  0.69037121  1
  Zn  Zn115  1  0.31584871  0.31586865  0.31516917  1
  Zn  Zn116  1  0.31351338  0.31238219  0.81331880  1
  Zn  Zn117  1  0.31586820  0.81215890  0.30945933  1
  Zn  Zn118  1  0.30826688  0.81207892  0.81322225  1
  Zn  Zn119  1  0.81059272  0.31213264  0.31531889  1
  Zn  Zn120  1  0.81528087  0.30814219  0.81351854  1
  Zn  Zn121  1  0.81908605  0.81263224  0.30527187  1
  Zn  Zn122  1  0.80982970  0.80885509  0.80912645  1
  Zn  Zn123  1  0.19141624  0.43877520  0.43730718  1
  Zn  Zn124  1  0.18660435  0.43881087  0.93997114  1
  Zn  Zn125  1  0.18868991  0.93740857  0.43432378  1
  Zn  Zn126  1  0.19110666  0.93641169  0.94147001  1
  Zn  Zn127  1  0.68561272  0.45107175  0.44653575  1
  Zn  Zn128  1  0.68390234  0.43291447  0.94252640  1
  Zn  Zn129  1  0.68786661  0.93289549  0.42763928  1
  Zn  Zn130  1  0.68883555  0.93087268  0.93129516  1
  Zn  Zn131  1  0.31833308  0.06082624  0.06270561  1
  Zn  Zn132  1  0.31440941  0.06293834  0.56342477  1
  Zn  Zn133  1  0.31150893  0.56919081  0.06569022  1
  Zn  Zn134  1  0.31108019  0.56309401  0.56258394  1
  Zn  Zn135  1  0.81882523  0.06463614  0.06015449  1
  Zn  Zn136  1  0.83345045  0.05338158  0.56491057  1
  Zn  Zn137  1  0.80483407  0.56234951  0.05888347  1
  Zn  Zn138  1  0.78521090  0.59461226  0.58283328  1
  Zn  Zn139  1  0.43539280  0.43171755  0.19574469  1
  Zn  Zn140  1  0.42914481  0.42955510  0.69768093  1
  Zn  Zn141  1  0.44353428  0.93812394  0.18774499  1
  Zn  Zn142  1  0.43931803  0.93375185  0.68693986  1
  Zn  Zn143  1  0.93630205  0.43840991  0.18581033  1
  Zn  Zn144  1  0.93490521  0.44336066  0.68543770  1
  Zn  Zn145  1  0.93986761  0.93711698  0.18541684  1
  Zn  Zn146  1  0.93797592  0.93043530  0.68620853  1
  Zn  Zn147  1  0.06690380  0.06303924  0.31113175  1
  Zn  Zn148  1  0.06014801  0.06076749  0.81349444  1
  Zn  Zn149  1  0.05982284  0.56396544  0.31095689  1
  Zn  Zn150  1  0.05421167  0.56381732  0.81267715  1
  Zn  Zn151  1  0.56094380  0.05915232  0.30999270  1
  Zn  Zn152  1  0.56792127  0.05741481  0.80791594  1
  Zn  Zn153  1  0.57184408  0.56699756  0.31319680  1
  Zn  Zn154  1  0.56152753  0.55870995  0.81076962  1
  Zn  Zn155  1  0.44009199  0.18716899  0.44601827  1
  Zn  Zn156  1  0.43539463  0.18765937  0.94156405  1
  Zn  Zn157  1  0.44833092  0.68188434  0.43391074  1
  Zn  Zn158  1  0.42935977  0.68527542  0.93773126  1
  Zn  Zn159  1  0.93521169  0.18946831  0.43624401  1
  Zn  Zn160  1  0.93735984  0.18324979  0.93747386  1
  Zn  Zn161  1  0.93696834  0.68598417  0.42876911  1
  Zn  Zn162  1  0.93253539  0.68962360  0.93313134  1
  Zn  Zn163  1  0.06254159  0.31680069  0.06227017  1
  Zn  Zn164  1  0.06393066  0.31329440  0.56196874  1
  Zn  Zn165  1  0.06871556  0.81865979  0.05396966  1
  Zn  Zn166  1  0.05777101  0.81143455  0.57008461  1
  Zn  Zn167  1  0.56481630  0.31375228  0.06767430  1
  Zn  Zn168  1  0.55979239  0.31771649  0.56693555  1
  Zn  Zn169  1  0.56638883  0.81448874  0.05913146  1
  Zn  Zn170  1  0.55722138  0.79442760  0.55307609  1
  O  O171  1  0.12471551  0.11841597  0.11767466  1
  O  O172  1  0.12380165  0.11713928  0.61538989  1
  O  O173  1  0.12893005  0.61170431  0.12206029  1
  O  O174  1  0.12291660  0.61765706  0.61443786  1
  O  O175  1  0.61352630  0.12382482  0.12437593  1
  O  O176  1  0.62106741  0.12551682  0.62703438  1
  O  O177  1  0.62585924  0.61028022  0.11900598  1
  O  O178  1  0.59084340  0.60511085  0.64960610  1
  O  O179  1  0.38030841  0.39242182  0.37338327  1
  O  O180  1  0.38074898  0.38166947  0.87785448  1
  O  O181  1  0.39260960  0.87459945  0.37063923  1
  O  O182  1  0.38592725  0.87959959  0.87210728  1
  O  O183  1  0.88136322  0.36920007  0.38847551  1
  O  O184  1  0.88148438  0.37930859  0.87924821  1
  O  O185  1  0.88454228  0.88102692  0.37633897  1
  O  O186  1  0.86490291  0.88543763  0.88018927  1
  O  O187  1  0.25138679  0.00497374  0.36585930  1
  O  O188  1  0.25626475  0.00494822  0.87152481  1
  O  O189  1  0.25646996  0.50400898  0.36449532  1
  O  O190  1  0.25377856  0.50592328  0.86841435  1
  O  O191  1  0.75642885  0.01048883  0.36377365  1
  O  O192  1  0.75858536  0.00977619  0.88203550  1
  O  O193  1  0.73924669  0.51594209  0.35676668  1
  O  O194  1  0.76141521  0.49509259  0.88124967  1
  O  O195  1  0.24158413  0.49409941  0.13305552  1
  O  O196  1  0.23926455  0.50331108  0.63584937  1
  O  O197  1  0.24673683  0.99537088  0.13092849  1
  O  O198  1  0.24626091  0.99335112  0.63186065  1
  O  O199  1  0.74327630  0.49698118  0.13490363  1
  O  O200  1  0.76164438  0.48637965  0.62746106  1
  O  O201  1  0.75123908  1.01276155  0.13772056  1
  O  O202  1  0.73610598  1.01250868  0.61048296  1
  O  O203  1  0.00390887  0.37212292  0.25575662  1
  O  O204  1  -0.00147142  0.37566684  0.76276615  1
  O  O205  1  0.00627186  0.86678618  0.25170683  1
  O  O206  1  0.00724407  0.86307539  0.74833092  1
  O  O207  1  0.50973553  0.36338461  0.25697858  1
  O  O208  1  0.49779790  0.35947247  0.76457012  1
  O  O209  1  0.51096920  0.87210754  0.25526249  1
  O  O210  1  0.50406499  0.86546796  0.76001893  1
  O  O211  1  0.50667745  0.13812578  0.24108387  1
  O  O212  1  0.49779697  0.12823765  0.74447860  1
  O  O213  1  0.51189589  0.64419706  0.25162360  1
  O  O214  1  0.48201661  0.63446019  0.76531445  1
  O  O215  1  0.99565048  0.13237558  0.25000398  1
  O  O216  1  0.98858900  0.12699047  0.74936722  1
  O  O217  1  0.98849822  0.63016523  0.24828453  1
  O  O218  1  0.99232202  0.63574214  0.74889312  1
  O  O219  1  0.36806094  0.25213392  0.01150411  1
  O  O220  1  0.37044716  0.25021250  0.50575991  1
  O  O221  1  0.35891606  0.75267903  -0.00444485  1
  O  O222  1  0.37112544  0.73900086  0.51639163  1
  O  O223  1  0.86871447  0.25313641  0.00402684  1
  O  O224  1  0.86979813  0.25727440  0.50954561  1
  O  O225  1  0.85888913  0.75543169  -0.00685994  1
  O  O226  1  0.88449737  0.76479506  0.49255648  1
  O  O227  1  0.12378920  0.23952894  0.49321918  1
  O  O228  1  0.13053991  0.24436882  0.99651215  1
  O  O229  1  0.12018392  0.74283201  0.49055339  1
  O  O230  1  0.14093745  0.75094862  1.00072226  1
  O  O231  1  0.64073510  0.25681496  0.50590166  1
  O  O232  1  0.63485388  0.25297667  0.99117692  1
  O  O233  1  0.64679370  0.77789582  0.47032001  1
  O  O234  1  0.63204717  0.74316804  0.99387961  1
  O  O235  1  0.49494327  0.24353034  0.12937018  1
  O  O236  1  0.50552618  0.23853768  0.63951943  1
  O  O237  1  0.50641130  0.75953766  0.13832770  1
  O  O238  1  0.48307493  0.75782632  0.64497287  1
  O  O239  1  0.99468663  0.25074903  0.13131047  1
  O  O240  1  0.98840149  0.24936247  0.62486456  1
  O  O241  1  1.01411191  0.75303795  0.13335675  1
  O  O242  1  1.00145866  0.74792366  0.64318574  1
  O  O243  1  0.00573168  0.25657820  0.36928548  1
  O  O244  1  0.00392058  0.25953609  0.87811904  1
  O  O245  1  0.01104594  0.75344686  0.36217040  1
  O  O246  1  -0.00035559  0.74683796  0.86065353  1
  O  O247  1  0.49744520  0.24275572  0.36064989  1
  O  O248  1  0.50730762  0.24998273  0.87130262  1
  O  O249  1  0.51899230  0.76050143  0.36298653  1
  O  O250  1  0.50381694  0.75645767  0.87047494  1
  O  O251  1  0.23789193  0.11933372  0.49107552  1
  O  O252  1  0.24539127  0.12893438  0.99547013  1
  O  O253  1  0.23571395  0.62832637  0.49600959  1
  O  O254  1  0.24552996  0.63204234  0.99215346  1
  O  O255  1  0.74325672  0.12674037  0.49796279  1
  O  O256  1  0.75810032  0.13541048  0.98855736  1
  O  O257  1  0.77269930  0.61192117  0.46980949  1
  O  O258  1  0.73996127  0.63660487  0.99502749  1
  O  O259  1  0.24952660  0.36766364  0.00890900  1
  O  O260  1  0.25718455  0.37521720  0.50168486  1
  O  O261  1  0.25419792  0.86972981  0.00864450  1
  O  O262  1  0.24229268  0.87445199  0.51499290  1
  O  O263  1  0.75627199  0.36033019  0.00034615  1
  O  O264  1  0.75795212  0.37209384  0.50816546  1
  O  O265  1  0.75275731  0.85910507  -0.00340458  1
  O  O266  1  0.76864798  0.88132851  0.48700626  1
  O  O267  1  0.12982689  0.49677583  0.24377865  1
  O  O268  1  0.12858515  0.50285673  0.74150714  1
  O  O269  1  0.13357042  0.99298886  0.24433513  1
  O  O270  1  0.12842984  0.99378687  0.74558987  1
  O  O271  1  0.63214240  0.49612206  0.23844414  1
  O  O272  1  0.61560324  0.48884856  0.73793618  1
  O  O273  1  0.63543992  0.99468697  0.24683814  1
  O  O274  1  0.62009641  0.97746277  0.74808368  1
  O  O275  1  0.36285953  -0.00274706  0.25149132  1
  O  O276  1  0.37028437  0.00351960  0.75670027  1
  O  O277  1  0.36682624  0.50091913  0.25953136  1
  O  O278  1  0.36318705  0.50701505  0.75904960  1
  O  O279  1  0.87074489  0.00509140  0.25281781  1
  O  O280  1  0.88237236  0.00645891  0.75804303  1
  O  O281  1  0.86881405  0.51310359  0.24318690  1
  O  O282  1  0.88419941  0.51298346  0.76277137  1
  O  O283  1  0.11931639  0.37043745  0.36963492  1
  O  O284  1  0.11492473  0.37046551  0.87578096  1
  O  O285  1  0.12131720  0.86622890  0.36844732  1
  O  O286  1  0.12958987  0.88116654  0.86294557  1
  O  O287  1  0.62835926  0.38894275  0.36288769  1
  O  O288  1  0.61713884  0.36461178  0.87619141  1
  O  O289  1  0.62088109  0.87127619  0.35659316  1
  O  O290  1  0.61469135  0.86346160  0.86888640  1
  O  O291  1  0.38570580  0.13628118  0.12345427  1
  O  O292  1  0.38541644  0.12523618  0.63405139  1
  O  O293  1  0.38036560  0.62176965  0.12977215  1
  O  O294  1  0.36359725  0.63234517  0.64107410  1
  O  O295  1  0.87919476  0.13304997  0.13284365  1
  O  O296  1  0.87820157  0.13142194  0.63264068  1
  O  O297  1  0.87252770  0.62492033  0.13137117  1
  O  O298  1  0.87746998  0.61614158  0.64515282  1
  O  O299  1  0.25815202  0.25350948  0.12491151  1
  O  O300  1  0.24821671  0.25179764  0.62160973  1
  O  O301  1  0.24734497  0.76217207  0.11873220  1
  O  O302  1  0.25371576  0.75732302  0.62569075  1
  O  O303  1  0.75519498  0.24843337  0.11576807  1
  O  O304  1  0.76027254  0.25574246  0.61733242  1
  O  O305  1  0.74370336  0.74616776  0.11096512  1
  O  O306  1  0.71019370  0.67954535  0.58667558  1
  O  O307  1  0.24386046  0.24155793  0.37159195  1
  O  O308  1  0.24513366  0.24434267  0.88125098  1
  O  O309  1  0.23897062  0.75067001  0.37490510  1
  O  O310  1  0.25176904  0.73836536  0.88079815  1
  O  O311  1  0.75934144  0.23859176  0.38784535  1
  O  O312  1  0.74402959  0.24207258  0.88161732  1
  O  O313  1  0.74444321  0.73844912  0.35521006  1
  O  O314  1  0.73338009  0.74778756  0.87923937  1
  O  O315  1  0.00530216  0.11301024  0.00150282  1
  O  O316  1  0.01005018  0.11437452  0.49623895  1
  O  O317  1  -0.00150508  0.61256205  -0.00800374  1
  O  O318  1  0.00560022  0.61783311  0.49776831  1
  O  O319  1  0.49784218  0.11551642  0.00665555  1
  O  O320  1  0.50298871  0.11522461  0.51401564  1
  O  O321  1  0.51255642  0.63092321  -0.00518507  1
  O  O322  1  0.52816099  0.68819904  0.50966660  1
  O  O323  1  0.49504104  0.36707919  0.49389520  1
  O  O324  1  0.49821981  0.36617757  0.98703199  1
  O  O325  1  0.51155487  0.88499067  0.48735976  1
  O  O326  1  0.49924592  0.88020447  0.98898272  1
  O  O327  1  0.99447280  0.38114213  0.49518120  1
  O  O328  1  0.99387246  0.38294837  0.99071569  1
  O  O329  1  1.00018575  0.88404096  0.49302621  1
  O  O330  1  0.98952381  0.88426721  1.00169962  1
  O  O331  1  0.49172521  0.50365056  0.36854649  1
  O  O332  1  0.48739801  0.48766467  0.86777592  1
  O  O333  1  0.49942995  0.99441064  0.38188326  1
  O  O334  1  0.49730020  0.99335126  0.87959490  1
  O  O335  1  1.00674834  0.49344259  0.38705336  1
  O  O336  1  0.99157713  0.49124097  0.88384996  1
  O  O337  1  0.99983444  0.99374278  0.37962811  1
  O  O338  1  0.98880893  1.00310622  0.88596285  1
  O  O339  1  0.00757413  0.00063947  0.11447505  1
  O  O340  1  0.00617881  -0.00017838  0.61290508  1
  O  O341  1  0.00919145  0.49242817  0.11413084  1
  O  O342  1  0.00828201  0.50305663  0.61472152  1
  O  O343  1  0.50086034  0.00922623  0.11608323  1
  O  O344  1  0.49813243  0.00719221  0.61861555  1
  O  O345  1  0.51179770  0.49355110  0.13154607  1
  O  O346  1  0.49709608  0.48244290  0.62218533  1
  O  O347  1  0.24443943  0.38445775  0.24627429  1
  O  O348  1  0.24563350  0.38926968  0.75425970  1
  O  O349  1  0.24639795  0.88151583  0.24371459  1
  O  O350  1  0.24109560  0.87954892  0.74384797  1
  O  O351  1  0.74526632  0.38211306  0.25011035  1
  O  O352  1  0.75344962  0.36574328  0.73474856  1
  O  O353  1  0.74586421  0.88851678  0.25469300  1
  O  O354  1  0.73112814  0.85974645  0.74617584  1
  O  O355  1  0.24253831  0.11422645  0.25927133  1
  O  O356  1  0.25478721  0.11740966  0.75686190  1
  O  O357  1  0.24979625  0.61444087  0.25249965  1
  O  O358  1  0.25228793  0.61757050  0.75842893  1
  O  O359  1  0.75690296  0.12214724  0.25753121  1
  O  O360  1  0.76300131  0.13068793  0.76083103  1
  O  O361  1  0.76215924  0.62010659  0.24816324  1
  O  O362  1  0.76366661  0.63376977  0.75465608  1
  O  O363  1  0.36048699  0.12302771  0.38153053  1
  O  O364  1  0.36982431  0.11877812  0.87134991  1
  O  O365  1  0.37972400  0.61737003  0.36672643  1
  O  O366  1  0.36250944  0.61625960  0.86806996  1
  O  O367  1  0.86971913  0.11846360  0.37001541  1
  O  O368  1  0.86835605  0.11587430  0.86836976  1
  O  O369  1  0.86702113  0.63118156  0.35342593  1
  O  O370  1  0.87029722  0.61515102  0.86770419  1
  O  O371  1  0.13076299  0.38312071  0.13192372  1
  O  O372  1  0.12484187  0.38882854  0.62646735  1
  O  O373  1  0.13692852  0.88281071  0.12929285  1
  O  O374  1  0.13302843  0.88006231  0.63525272  1
  O  O375  1  0.62772818  0.38587858  0.13454525  1
  O  O376  1  0.64080955  0.38312617  0.62561150  1
  O  O377  1  0.62411139  0.88245451  0.13406845  1
  O  O378  1  0.61273963  0.85813263  0.63565923  1
  O  O379  1  0.11964367  0.25709442  0.25406909  1
  O  O380  1  0.12048149  0.25143453  0.75973362  1
  O  O381  1  0.12117557  0.75270487  0.25614141  1
  O  O382  1  0.11585816  0.75629319  0.75164603  1
  O  O383  1  0.61420419  0.26109146  0.24387042  1
  O  O384  1  0.61765407  0.25340768  0.76299698  1
  O  O385  1  0.62229834  0.76050468  0.25213536  1
  O  O386  1  0.61143112  0.75032091  0.75940673  1
  O  O387  1  0.39154561  0.25836789  0.24132704  1
  O  O388  1  0.38603568  0.24015537  0.75486756  1
  O  O389  1  0.39583394  0.75001827  0.25618433  1
  O  O390  1  0.37540126  0.74127274  0.74806507  1
  O  O391  1  0.88031257  0.24704270  0.24569183  1
  O  O392  1  0.87742600  0.23992435  0.74120558  1
  O  O393  1  0.88630325  0.74016471  0.24373962  1
  O  O394  1  0.88467376  0.73792464  0.75734062  1
  O  O395  1  0.37157485  0.50752458  0.48269056  1
  O  O396  1  0.36531708  0.49906197  0.98599710  1
  O  O397  1  0.38881842  1.00064333  0.49879092  1
  O  O398  1  0.38753213  0.99567944  0.99306048  1
  O  O399  1  0.88743322  0.48748721  0.50803323  1
  O  O400  1  0.88013394  0.49498354  0.99369457  1
  O  O401  1  0.88934449  0.99265316  0.48980059  1
  O  O402  1  0.88013797  0.99114435  0.99322522  1
  O  O403  1  0.11758875  0.00248684  0.00304261  1
  O  O404  1  0.11954761  0.00549171  0.50267368  1
  O  O405  1  0.11531816  0.50015622  0.00847737  1
  O  O406  1  0.11771712  0.50830491  0.50562542  1
  O  O407  1  0.61233917  -0.00831245  -0.00349279  1
  O  O408  1  0.61946916  0.00373092  0.49711827  1
  O  O409  1  0.62883145  0.50485451  0.01496234  1
  O  O410  1  0.63370815  0.51352892  0.52771751  1
  O  O411  1  0.36944824  0.36545440  0.12508904  1
  O  O412  1  0.36688779  0.36835427  0.62809275  1
  O  O413  1  0.36349854  0.88185572  0.12577025  1
  O  O414  1  0.36158243  0.86384953  0.63502972  1
  O  O415  1  0.87243375  0.36789711  0.11777937  1
  O  O416  1  0.86874647  0.36798345  0.61883788  1
  O  O417  1  0.87221045  0.87801145  0.11229333  1
  O  O418  1  0.87460590  0.88244493  0.60646196  1
  O  O419  1  0.13297534  0.12979603  0.38186309  1
  O  O420  1  0.13051858  0.12913211  0.88101002  1
  O  O421  1  0.12329506  0.63377117  0.38161861  1
  O  O422  1  0.13502516  0.61544422  0.87779229  1
  O  O423  1  0.63788125  0.12412188  0.36905766  1
  O  O424  1  0.63555641  0.13255740  0.86724400  1
  O  O425  1  0.63892919  0.64045697  0.37653271  1
  O  O426  1  0.62391749  0.62903351  0.88119393  1
