# generated using pymatgen
data_V85Zn86O256
_symmetry_space_group_name_H-M   'P 1'
_cell_length_a   17.01250220
_cell_length_b   16.99850210
_cell_length_c   16.98181500
_cell_angle_alpha   90.02788227
_cell_angle_beta   90.11597025
_cell_angle_gamma   89.96381629
_symmetry_Int_Tables_number   1
_chemical_formula_structural   V85Zn86O256
_chemical_formula_sum   'V85 Zn86 O256'
_cell_volume   4910.90944057
_cell_formula_units_Z   1
loop_
 _symmetry_equiv_pos_site_id
 _symmetry_equiv_pos_as_xyz
  1  'x, y, z'
loop_
 _atom_site_type_symbol
 _atom_site_label
 _atom_site_symmetry_multiplicity
 _atom_site_fract_x
 _atom_site_fract_y
 _atom_site_fract_z
 _atom_site_occupancy
  V  V0  1  0.88355031  0.62139321  0.24634390  1
  V  V1  1  -0.00020513  0.49537397  0.50031214  1
  V  V2  1  0.87361253  0.12835613  0.23823626  1
  V  V3  1  0.12535521  -0.00004490  0.62365794  1
  V  V4  1  0.88244390  -0.00771447  0.86751584  1
  V  V5  1  0.50619999  0.25156260  0.75058749  1
  V  V6  1  0.25072225  0.74766125  0.49717927  1
  V  V7  1  0.37481971  0.12788829  0.74785007  1
  V  V8  1  0.87588431  0.62983395  0.75136357  1
  V  V9  1  0.11598852  0.11892674  0.00193518  1
  V  V10  1  0.50106423  -0.00088771  0.49628696  1
  V  V11  1  0.37612404  0.74731175  0.12489959  1
  V  V12  1  0.12356233  0.24482995  0.37395580  1
  V  V13  1  0.37831550  0.37439069  0.00331486  1
  V  V14  1  0.00274141  0.62266426  0.62347927  1
  V  V15  1  0.75405742  0.75730639  0.49801629  1
  V  V16  1  0.25668819  0.61179720  0.36765639  1
  V  V17  1  0.87561855  0.49392705  0.38003882  1
  V  V18  1  0.62856161  0.74643296  0.89069182  1
  V  V19  1  0.24122898  0.25443987  -0.00792861  1
  V  V20  1  0.12773707  0.37165904  0.25069059  1
  V  V21  1  0.11799164  0.49466572  0.13124929  1
  V  V22  1  0.75049869  0.62344882  0.37659910  1
  V  V23  1  0.12703245  0.50006618  0.62518790  1
  V  V24  1  0.87164738  -0.01189729  0.38284689  1
  V  V25  1  0.38060218  0.75003223  0.62518242  1
  V  V26  1  0.50563090  0.75035172  0.75060253  1
  V  V27  1  0.25340421  0.87471649  0.62517910  1
  V  V28  1  0.87875761  0.75473370  0.61975650  1
  V  V29  1  0.49763527  0.75213969  0.25502590  1
  V  V30  1  0.50584426  0.24059685  0.24872440  1
  V  V31  1  0.74563712  0.37465408  0.12433149  1
  V  V32  1  0.25381102  0.50119853  0.75072519  1
  V  V33  1  0.62048564  0.75468037  0.37715215  1
  V  V34  1  0.87533208  0.36727520  0.00452330  1
  V  V35  1  0.74390650  0.24696891  -0.00016497  1
  V  V36  1  0.74604704  0.13657850  0.87043905  1
  V  V37  1  0.62186097  0.87593724  0.24729164  1
  V  V38  1  0.74201590  0.00529128  0.74622418  1
  V  V39  1  0.37807087  0.38733941  0.48867185  1
  V  V40  1  0.51755656  0.62235928  0.12221028  1
  V  V41  1  0.74989916  0.62805306  0.88915540  1
  V  V42  1  0.24232194  0.86724324  0.12595097  1
  V  V43  1  0.50802204  0.61232503  0.62378497  1
  V  V44  1  0.12824890  0.37464701  0.75136424  1
  V  V45  1  0.37950528  0.50152248  0.87642205  1
  V  V46  1  0.50477398  0.38539135  0.37180284  1
  V  V47  1  0.37452937  -0.00020490  0.37191835  1
  V  V48  1  0.25018131  0.37119453  0.12883455  1
  V  V49  1  0.74406946  0.49740448  0.24682206  1
  V  V50  1  0.12396412  0.12084379  0.49912536  1
  V  V51  1  0.25387541  0.37494361  0.62254157  1
  V  V52  1  0.25103993  0.00053749  0.74825064  1
  V  V53  1  0.25259036  0.24843860  0.49720615  1
  V  V54  1  0.75340049  0.87714952  0.62825195  1
  V  V55  1  0.87549017  0.25987928  0.61800862  1
  V  V56  1  0.51683778  0.50208567  0.00425891  1
  V  V57  1  0.00043705  0.76132494  0.25348257  1
  V  V58  1  0.37549505  -0.00017696  0.87658507  1
  V  V59  1  0.87410465  0.12965402  0.74594745  1
  V  V60  1  0.50977354  0.37182883  0.87612673  1
  V  V61  1  0.00117362  0.12597509  0.62213171  1
  V  V62  1  0.87546919  0.50221618  0.87231074  1
  V  V63  1  0.00781414  0.37468978  0.87298770  1
  V  V64  1  -0.00309278  0.36911412  0.37884007  1
  V  V65  1  0.73980015  0.00113658  0.25350397  1
  V  V66  1  0.12430339  0.87262174  0.75613851  1
  V  V67  1  0.74944471  0.25799589  0.49864900  1
  V  V68  1  0.00490306  0.25322339  0.75210597  1
  V  V69  1  0.37173763  0.87329331  0.00067232  1
  V  V70  1  -0.00440626  0.24373225  0.23512616  1
  V  V71  1  0.37816129  0.62467447  0.75061883  1
  V  V72  1  0.24317825  0.13068194  0.87142102  1
  V  V73  1  0.50081806  0.12626186  0.62504853  1
  V  V74  1  -0.00037332  0.49895854  0.00385004  1
  V  V75  1  0.74725687  0.38426998  0.62332631  1
  V  V76  1  0.00714605  0.75202309  0.75084533  1
  V  V77  1  0.49971828  0.87641722  0.87981347  1
  V  V78  1  0.38222142  0.87398615  0.49532045  1
  V  V79  1  0.62318984  0.13396036  0.49707411  1
  V  V80  1  0.75054887  0.13401478  0.37816627  1
  V  V81  1  0.62399298  0.61689244  0.50545309  1
  V  V82  1  0.24966749  0.12203808  0.37080118  1
  V  V83  1  0.23459419  -0.00578183  0.24874661  1
  V  V84  1  0.62573112  0.38299923  0.74445200  1
  Zn  Zn85  1  0.62603339  0.87649936  0.75114663  1
  Zn  Zn86  1  0.01323779  0.87181804  0.38581495  1
  Zn  Zn87  1  0.00265921  0.63591662  0.12561789  1
  Zn  Zn88  1  0.12779011  0.62474413  0.49647753  1
  Zn  Zn89  1  0.61388645  0.01031905  0.11707395  1
  Zn  Zn90  1  -0.01034316  -0.01191267  0.50808862  1
  Zn  Zn91  1  0.46099950  0.06157431  0.05255117  1
  Zn  Zn92  1  0.62481449  -0.00214392  0.62212454  1
  Zn  Zn93  1  -0.06560232  -0.05307562  0.03144940  1
  Zn  Zn94  1  0.62577005  0.36962102  0.25120238  1
  Zn  Zn95  1  0.14440872  0.63490913  0.01196871  1
  Zn  Zn96  1  0.38012331  0.23702591  0.11991283  1
  Zn  Zn97  1  0.25842858  0.63552128  0.89500464  1
  Zn  Zn98  1  0.13319604  0.75150484  0.89261495  1
  Zn  Zn99  1  0.61742258  0.12634399  0.00081105  1
  Zn  Zn100  1  0.38070578  0.60117162  0.25832848  1
  Zn  Zn101  1  0.74436606  0.50788805  0.74429356  1
  Zn  Zn102  1  0.77525808  0.84197054  0.09769295  1
  Zn  Zn103  1  0.37677800  0.11793287  0.23170924  1
  Zn  Zn104  1  0.10810153  -0.00013951  0.12369366  1
  Zn  Zn105  1  0.13185777  0.75432624  0.36691460  1
  Zn  Zn106  1  0.37803035  0.25174980  0.61946124  1
  Zn  Zn107  1  0.18672637  0.18453385  0.18413943  1
  Zn  Zn108  1  0.18813746  0.18995383  0.68346242  1
  Zn  Zn109  1  0.18505663  0.68598834  0.19060707  1
  Zn  Zn110  1  0.19209016  0.68580661  0.68677221  1
  Zn  Zn111  1  0.68365054  0.18571623  0.17875167  1
  Zn  Zn112  1  0.68426007  0.19323936  0.68183762  1
  Zn  Zn113  1  0.69465572  0.69074617  0.18757490  1
  Zn  Zn114  1  0.68982435  0.69022988  0.69024619  1
  Zn  Zn115  1  0.31993021  0.30478688  0.31013887  1
  Zn  Zn116  1  0.31824339  0.31441815  0.81204003  1
  Zn  Zn117  1  0.31188096  0.81183781  0.31151181  1
  Zn  Zn118  1  0.31077360  0.80873307  0.81439339  1
  Zn  Zn119  1  0.81398669  0.31085287  0.30929563  1
  Zn  Zn120  1  0.81412177  0.31595846  0.81018125  1
  Zn  Zn121  1  0.80359016  0.80216577  0.28886869  1
  Zn  Zn122  1  0.81655482  0.81225858  0.91806638  1
  Zn  Zn123  1  0.18694043  0.43496969  0.43665033  1
  Zn  Zn124  1  0.21095545  0.47691663  0.96503009  1
  Zn  Zn125  1  0.18663284  0.93332369  0.43772358  1
  Zn  Zn126  1  0.19055713  0.93863881  0.93787248  1
  Zn  Zn127  1  0.68562894  0.43616498  0.43502229  1
  Zn  Zn128  1  0.69341503  0.43534411  0.93203500  1
  Zn  Zn129  1  0.68663806  0.93907749  0.43607354  1
  Zn  Zn130  1  0.68382584  0.93645515  0.93415300  1
  Zn  Zn131  1  0.29418429  0.05784113  0.06032443  1
  Zn  Zn132  1  0.31333564  0.06341186  0.56105506  1
  Zn  Zn133  1  0.32253148  0.55083831  0.09082895  1
  Zn  Zn134  1  0.31660438  0.56485401  0.56333251  1
  Zn  Zn135  1  0.78147265  0.01846091  0.04809952  1
  Zn  Zn136  1  0.81161897  0.06711477  0.56155617  1
  Zn  Zn137  1  0.81547810  0.55618513  0.06525369  1
  Zn  Zn138  1  0.81460571  0.56720452  0.55955426  1
  Zn  Zn139  1  0.44075143  0.43753504  0.19054690  1
  Zn  Zn140  1  0.43637452  0.43485512  0.68457656  1
  Zn  Zn141  1  0.43699209  0.93365602  0.19046804  1
  Zn  Zn142  1  0.43895310  0.93904155  0.68801513  1
  Zn  Zn143  1  0.93385108  0.43058562  0.19149073  1
  Zn  Zn144  1  0.93672757  0.43905736  0.68728582  1
  Zn  Zn145  1  0.92583394  0.93813310  0.19287324  1
  Zn  Zn146  1  0.93797348  0.93672192  0.69110892  1
  Zn  Zn147  1  0.05447537  0.05960726  0.31464195  1
  Zn  Zn148  1  0.06421798  0.06346336  0.80921557  1
  Zn  Zn149  1  0.07081197  0.56298496  0.31873873  1
  Zn  Zn150  1  0.06981275  0.56688876  0.81742949  1
  Zn  Zn151  1  0.56099129  0.06744642  0.31817222  1
  Zn  Zn152  1  0.54775653  0.07850548  0.84117802  1
  Zn  Zn153  1  0.56310804  0.56644028  0.31448800  1
  Zn  Zn154  1  0.56577058  0.56473378  0.81585431  1
  Zn  Zn155  1  0.43756527  0.19254992  0.43018449  1
  Zn  Zn156  1  0.43189354  0.19269182  0.93264733  1
  Zn  Zn157  1  0.43732327  0.67862345  0.43908884  1
  Zn  Zn158  1  0.44181261  0.68872959  0.94297558  1
  Zn  Zn159  1  0.93543544  0.18316032  0.43593674  1
  Zn  Zn160  1  0.93299359  0.18547693  0.93516476  1
  Zn  Zn161  1  0.93967718  0.68544041  0.43418510  1
  Zn  Zn162  1  0.97957398  0.70036116  0.95385289  1
  Zn  Zn163  1  0.06283382  0.31043486  0.05749818  1
  Zn  Zn164  1  0.06662751  0.31125978  0.56294240  1
  Zn  Zn165  1  0.04376297  0.82019317  0.07331342  1
  Zn  Zn166  1  0.06532271  0.81596417  0.56200767  1
  Zn  Zn167  1  0.56583157  0.30765079  0.06703309  1
  Zn  Zn168  1  0.56120983  0.31750851  0.56090108  1
  Zn  Zn169  1  0.55979315  0.82068529  0.06814649  1
  Zn  Zn170  1  0.56713418  0.81056284  0.56370071  1
  O  O171  1  0.12723794  0.12077526  0.10761599  1
  O  O172  1  0.12047986  0.11984823  0.61976028  1
  O  O173  1  0.12055934  0.60785744  0.12921930  1
  O  O174  1  0.12096681  0.61608866  0.62273482  1
  O  O175  1  0.61201716  0.12809063  0.11582105  1
  O  O176  1  0.61975451  0.12265488  0.61318174  1
  O  O177  1  0.61583578  0.63528516  0.12891570  1
  O  O178  1  0.62006573  0.63305540  0.61804153  1
  O  O179  1  0.37729814  0.37579837  0.38375482  1
  O  O180  1  0.38800794  0.38286227  0.88190217  1
  O  O181  1  0.36970571  0.88593872  0.38632330  1
  O  O182  1  0.37973966  0.87798181  0.88184016  1
  O  O183  1  0.88686098  0.38203893  0.36871885  1
  O  O184  1  0.88365276  0.38628549  0.87587943  1
  O  O185  1  0.85877736  0.89061209  0.36788983  1
  O  O186  1  0.86954357  0.89448280  0.85682949  1
  O  O187  1  0.25527260  0.00240573  0.36661216  1
  O  O188  1  0.25615305  0.00918266  0.86729202  1
  O  O189  1  0.24481998  0.51274287  0.37734346  1
  O  O190  1  0.27013557  0.49374992  0.86728675  1
  O  O191  1  0.75420850  0.01369376  0.37412047  1
  O  O192  1  0.76097349  0.01490900  0.85780392  1
  O  O193  1  0.76038918  0.49987899  0.37095660  1
  O  O194  1  0.76155631  0.50694439  0.87026653  1
  O  O195  1  0.22828851  0.47694711  0.11804417  1
  O  O196  1  0.24770631  0.49451724  0.63012994  1
  O  O197  1  0.24138239  0.98498666  0.13250593  1
  O  O198  1  0.24671915  0.99589713  0.62970960  1
  O  O199  1  0.75594529  0.49017609  0.13691451  1
  O  O200  1  0.76244255  0.48785031  0.62509453  1
  O  O201  1  0.73096885  1.02089504  0.15613934  1
  O  O202  1  0.75159711  0.99510660  0.62802554  1
  O  O203  1  0.00538874  0.36237314  0.25945239  1
  O  O204  1  0.00558497  0.37127559  0.75368156  1
  O  O205  1  -0.01841574  0.86132353  0.26174164  1
  O  O206  1  0.01394899  0.86485373  0.73860799  1
  O  O207  1  0.50124563  0.37008668  0.25844945  1
  O  O208  1  0.50625788  0.37115768  0.75483142  1
  O  O209  1  0.50831562  0.86192695  0.25125484  1
  O  O210  1  0.49864960  0.86414196  0.75707854  1
  O  O211  1  0.49669441  0.13650678  0.25610085  1
  O  O212  1  0.49614082  0.13439968  0.74935823  1
  O  O213  1  0.49911884  0.63131877  0.23887277  1
  O  O214  1  0.49872120  0.63289355  0.74486415  1
  O  O215  1  0.98309116  0.12904428  0.25374370  1
  O  O216  1  0.99409804  0.13620557  0.74291237  1
  O  O217  1  0.98961295  0.61430316  0.25188579  1
  O  O218  1  0.99690428  0.62857456  0.74217580  1
  O  O219  1  0.36602525  0.26137972  -0.00197728  1
  O  O220  1  0.36710609  0.25721767  0.49802615  1
  O  O221  1  0.38164411  0.76212123  0.01005131  1
  O  O222  1  0.37325528  0.75753726  0.50380575  1
  O  O223  1  0.87018212  0.26354347  -0.00821886  1
  O  O224  1  0.86553491  0.24465565  0.51063495  1
  O  O225  1  0.90405528  0.77964364  -0.00793877  1
  O  O226  1  0.86555227  0.73988591  0.50961950  1
  O  O227  1  0.13129349  0.24257700  0.49340230  1
  O  O228  1  0.13598505  0.24278224  0.99893080  1
  O  O229  1  0.14463660  0.74769287  0.50722512  1
  O  O230  1  0.08690931  0.73493233  1.00099942  1
  O  O231  1  0.63443633  0.24239639  0.50627075  1
  O  O232  1  0.64129528  0.25196672  0.99612040  1
  O  O233  1  0.63453559  0.74456916  0.49327848  1
  O  O234  1  0.61399664  0.75277098  0.98862979  1
  O  O235  1  0.49472529  0.26113996  0.14155817  1
  O  O236  1  0.49944844  0.24494233  0.63280611  1
  O  O237  1  0.49753205  0.74354165  0.13409436  1
  O  O238  1  0.49867495  0.74673516  0.63547767  1
  O  O239  1  1.00142744  0.25327465  0.13666011  1
  O  O240  1  0.99291510  0.24852418  0.62988305  1
  O  O241  1  0.98837114  0.74871431  0.14863002  1
  O  O242  1  0.99505412  0.74224799  0.62665043  1
  O  O243  1  0.00367826  0.25448591  0.37123421  1
  O  O244  1  -0.01015063  0.26130811  0.85912126  1
  O  O245  1  0.00641945  0.74706763  0.36799918  1
  O  O246  1  0.00972058  0.74166809  0.85129853  1
  O  O247  1  0.49060340  0.26330549  0.35697346  1
  O  O248  1  0.49402030  0.26349474  0.86312654  1
  O  O249  1  0.50909430  0.73823455  0.36612303  1
  O  O250  1  0.50603391  0.75475614  0.86776793  1
  O  O251  1  0.24372192  0.12835064  0.49276248  1
  O  O252  1  0.24086240  0.13502245  0.98883998  1
  O  O253  1  0.25554686  0.63296796  0.49183791  1
  O  O254  1  0.25049052  0.58657828  1.00392299  1
  O  O255  1  0.74223464  0.13691566  0.49744783  1
  O  O256  1  0.76128756  0.14454241  0.98835061  1
  O  O257  1  0.74430628  0.63648786  0.49702865  1
  O  O258  1  0.76309173  0.62092470  0.98803243  1
  O  O259  1  0.25816537  0.37112307  0.00341354  1
  O  O260  1  0.25960301  0.36964868  0.50082780  1
  O  O261  1  0.26043401  0.87932573  0.01349715  1
  O  O262  1  0.26292974  0.86762103  0.50618946  1
  O  O263  1  0.75689741  0.36832259  0.00278709  1
  O  O264  1  0.74209351  0.36618444  0.50786145  1
  O  O265  1  0.74890069  0.86492570  -0.00791134  1
  O  O266  1  0.74443470  0.86406736  0.50921833  1
  O  O267  1  0.11452696  0.48103681  0.24470711  1
  O  O268  1  0.13282950  0.49402166  0.74482692  1
  O  O269  1  0.13114512  1.00469629  0.24584723  1
  O  O270  1  0.13162596  0.99307172  0.74343696  1
  O  O271  1  0.64231396  0.49853917  0.26038464  1
  O  O272  1  0.62660013  0.48805068  0.75316404  1
  O  O273  1  0.62914117  0.99186585  0.26739861  1
  O  O274  1  0.63705803  1.00536385  0.74696693  1
  O  O275  1  0.36914239  -0.00130683  0.26046173  1
  O  O276  1  0.36919102  0.00695659  0.75418360  1
  O  O277  1  0.35905711  0.51117376  0.19707929  1
  O  O278  1  0.37606565  0.50356032  0.75872301  1
  O  O279  1  0.85916922  0.01293783  0.26418671  1
  O  O280  1  0.86665746  0.01445696  0.74731332  1
  O  O281  1  0.86984432  0.50315155  0.26156367  1
  O  O282  1  0.87946902  0.51121604  0.75805479  1
  O  O283  1  0.11735747  0.36656271  0.36767001  1
  O  O284  1  0.10964109  0.38226653  0.86852312  1
  O  O285  1  0.12721728  0.86900412  0.37137695  1
  O  O286  1  0.13292438  0.87446382  0.85960705  1
  O  O287  1  0.60844248  0.37505789  0.37635240  1
  O  O288  1  0.61504252  0.37765306  0.86525626  1
  O  O289  1  0.62920767  0.86077738  0.37030175  1
  O  O290  1  0.61536180  0.86708035  0.87075270  1
  O  O291  1  0.37664798  0.11852610  0.11229715  1
  O  O292  1  0.38228840  0.12682112  0.63059799  1
  O  O293  1  0.38902988  0.64323052  0.12134545  1
  O  O294  1  0.38815051  0.63098474  0.62964123  1
  O  O295  1  0.86532249  0.11675755  0.14339237  1
  O  O296  1  0.87888530  0.13601373  0.63120063  1
  O  O297  1  0.87729792  0.61536246  0.14415818  1
  O  O298  1  0.88158122  0.63130567  0.63156664  1
  O  O299  1  0.24980565  0.25867505  0.11217756  1
  O  O300  1  0.25203591  0.25754732  0.61601242  1
  O  O301  1  0.26146350  0.75879618  0.13514524  1
  O  O302  1  0.26257939  0.75303749  0.61811618  1
  O  O303  1  0.75242192  0.25741904  0.10823404  1
  O  O304  1  0.75734570  0.26051452  0.61767428  1
  O  O305  1  0.77117339  0.76803150  0.17827137  1
  O  O306  1  0.75893094  0.75745599  0.61921804  1
  O  O307  1  0.24274224  0.24173150  0.37690696  1
  O  O308  1  0.25632845  0.24318555  0.88038571  1
  O  O309  1  0.25452729  0.74383033  0.38551444  1
  O  O310  1  0.24696837  0.74670321  0.87921937  1
  O  O311  1  0.75823008  0.24603994  0.38752910  1
  O  O312  1  0.75745766  0.24843602  0.88309055  1
  O  O313  1  0.74389014  0.74420675  0.38082416  1
  O  O314  1  0.74120695  0.73841313  0.87383597  1
  O  O315  1  0.01830513  0.13396184  -0.01279046  1
  O  O316  1  0.00637656  0.12174240  0.50567892  1
  O  O317  1  -0.01642603  0.60253615  0.01243185  1
  O  O318  1  0.00325200  0.61214606  0.50442049  1
  O  O319  1  0.50733524  0.11459110  -0.03798507  1
  O  O320  1  0.50605402  0.12202141  0.50230885  1
  O  O321  1  0.50117893  0.61753164  0.01358555  1
  O  O322  1  0.51176866  0.63335313  0.51239070  1
  O  O323  1  0.48755397  0.36863633  0.48621774  1
  O  O324  1  0.49736221  0.37776533  0.99516402  1
  O  O325  1  0.49156757  0.88396387  0.50671488  1
  O  O326  1  0.49104925  0.87217816  0.98682161  1
  O  O327  1  1.00656300  0.38073306  0.48894585  1
  O  O328  1  0.99315278  0.37721613  0.99142426  1
  O  O329  1  0.99625125  0.87568654  0.49917107  1
  O  O330  1  0.96429846  0.84341602  0.98527371  1
  O  O331  1  0.49603738  0.48570491  0.36332931  1
  O  O332  1  0.49542071  0.49362142  0.88221912  1
  O  O333  1  0.48910445  1.00636052  0.38834466  1
  O  O334  1  0.49055572  0.98303389  0.86259450  1
  O  O335  1  0.99638653  0.48964315  0.38171720  1
  O  O336  1  0.99273622  0.49487161  0.88305674  1
  O  O337  1  0.97966499  0.99555563  0.37429686  1
  O  O338  1  0.98233717  1.00498805  0.85785510  1
  O  O339  1  0.01226590  -0.05787034  0.11388215  1
  O  O340  1  0.00550590  0.00906075  0.62753974  1
  O  O341  1  0.00575954  0.48692999  0.11975201  1
  O  O342  1  0.00477917  0.50104390  0.61719713  1
  O  O343  1  0.50528433  -0.01725318  0.11773420  1
  O  O344  1  0.50030877  0.00733464  0.61365833  1
  O  O345  1  0.50686174  0.51534914  0.11978164  1
  O  O346  1  0.50032882  0.51355705  0.63137217  1
  O  O347  1  0.23660066  0.35965024  0.24219438  1
  O  O348  1  0.24862539  0.37981466  0.74417016  1
  O  O349  1  0.25648925  0.88301775  0.23680229  1
  O  O350  1  0.24674019  0.88028948  0.74325239  1
  O  O351  1  0.75063129  0.37880331  0.24279312  1
  O  O352  1  0.74179555  0.37653738  0.74149030  1
  O  O353  1  0.73964868  0.89756658  0.26102665  1
  O  O354  1  0.74785275  0.89032219  0.73608205  1
  O  O355  1  0.25170827  0.11208900  0.25205520  1
  O  O356  1  0.25309198  0.12289482  0.75365877  1
  O  O357  1  0.25299779  0.63102540  0.26560718  1
  O  O358  1  0.26333105  0.61606807  0.74671762  1
  O  O359  1  0.75455219  0.12755170  0.26232986  1
  O  O360  1  0.75668252  0.12759532  0.74843016  1
  O  O361  1  0.76199339  0.61440547  0.25764074  1
  O  O362  1  0.76339420  0.62529812  0.75325201  1
  O  O363  1  0.36622768  0.11096388  0.37873479  1
  O  O364  1  0.36253248  0.12062089  0.86681357  1
  O  O365  1  0.36441010  0.62275199  0.37265757  1
  O  O366  1  0.38148346  0.61500895  0.87190250  1
  O  O367  1  0.86205181  0.11852365  0.37323180  1
  O  O368  1  0.86785866  0.12822692  0.85612598  1
  O  O369  1  0.87098920  0.60911289  0.37132226  1
  O  O370  1  0.87055384  0.61775744  0.86614519  1
  O  O371  1  0.12797194  0.37272748  0.13418422  1
  O  O372  1  0.13312015  0.38079216  0.63028931  1
  O  O373  1  0.14455739  0.86071143  0.11705879  1
  O  O374  1  0.13572775  0.88188841  0.63199036  1
  O  O375  1  0.64179837  0.37306811  0.12705864  1
  O  O376  1  0.63473262  0.37344694  0.63193411  1
  O  O377  1  0.63029179  0.87418745  0.14350881  1
  O  O378  1  0.63648910  0.87734943  0.62859308  1
  O  O379  1  0.11507391  0.25107529  0.25446322  1
  O  O380  1  0.11238172  0.25756712  0.74169545  1
  O  O381  1  0.10451731  0.74330479  0.24912945  1
  O  O382  1  0.12114726  0.75954912  0.73920997  1
  O  O383  1  0.61126435  0.25010616  0.24789924  1
  O  O384  1  0.61301159  0.26148869  0.74493713  1
  O  O385  1  0.61744583  0.75604767  0.26003873  1
  O  O386  1  0.61553952  0.75105901  0.75816292  1
  O  O387  1  0.38165907  0.23951070  0.24118900  1
  O  O388  1  0.38676871  0.24691914  0.74540292  1
  O  O389  1  0.38698372  0.75400038  0.24284867  1
  O  O390  1  0.38679380  0.74468851  0.74637691  1
  O  O391  1  0.88086468  0.23667806  0.25285723  1
  O  O392  1  0.88268699  0.24663363  0.73843739  1
  O  O393  1  0.89037335  0.72487259  0.27061981  1
  O  O394  1  0.88882974  0.73854323  0.73630525  1
  O  O395  1  0.37296880  0.48561593  0.50074743  1
  O  O396  1  0.38910069  0.48818174  0.99472494  1
  O  O397  1  0.38075373  0.99270460  0.49418004  1
  O  O398  1  0.37026596  0.98993312  0.99205195  1
  O  O399  1  0.88678038  0.50257438  0.49077819  1
  O  O400  1  0.88006971  0.48650749  0.99081757  1
  O  O401  1  0.87031781  1.00378565  0.48727857  1
  O  O402  1  0.87082830  1.01706250  0.97029077  1
  O  O403  1  0.12813593  0.01428406  -0.00201187  1
  O  O404  1  0.12619368  0.00591775  0.50766426  1
  O  O405  1  0.10854973  0.49073112  0.01383521  1
  O  O406  1  0.11519622  0.49825766  0.50592470  1
  O  O407  1  0.66744389  0.01638579  0.01022888  1
  O  O408  1  0.61547999  0.00894748  0.49846966  1
  O  O409  1  0.61490674  0.49311204  -0.00713458  1
  O  O410  1  0.63315819  0.51839350  0.49440059  1
  O  O411  1  0.36640456  0.37353524  0.11282045  1
  O  O412  1  0.37199152  0.37329582  0.61080109  1
  O  O413  1  0.36986545  0.86663715  0.11763867  1
  O  O414  1  0.37278514  0.87069070  0.61684885  1
  O  O415  1  0.86467102  0.37884936  0.11327942  1
  O  O416  1  0.86657053  0.36575809  0.63109562  1
  O  O417  1  0.84745383  0.93088163  0.10969695  1
  O  O418  1  0.86782697  0.86327574  0.63080925  1
  O  O419  1  0.12859691  0.12614565  0.37854056  1
  O  O420  1  0.13783493  0.12137472  0.87863564  1
  O  O421  1  0.14069143  0.63111976  0.37905290  1
  O  O422  1  0.13592118  0.62339752  0.88835581  1
  O  O423  1  0.63679055  0.12419441  0.38785803  1
  O  O424  1  0.64468645  0.12626522  0.87364677  1
  O  O425  1  0.63088507  0.63503649  0.38249708  1
  O  O426  1  0.63842678  0.63262931  0.87174194  1
