# generated using pymatgen
data_V85Zn86O256
_symmetry_space_group_name_H-M   'P 1'
_cell_length_a   16.96960905
_cell_length_b   16.96082131
_cell_length_c   16.95828510
_cell_angle_alpha   89.81555059
_cell_angle_beta   90.11224206
_cell_angle_gamma   90.06772554
_symmetry_Int_Tables_number   1
_chemical_formula_structural   V85Zn86O256
_chemical_formula_sum   'V85 Zn86 O256'
_cell_volume   4880.87026495
_cell_formula_units_Z   1
loop_
 _symmetry_equiv_pos_site_id
 _symmetry_equiv_pos_as_xyz
  1  'x, y, z'
loop_
 _atom_site_type_symbol
 _atom_site_label
 _atom_site_symmetry_multiplicity
 _atom_site_fract_x
 _atom_site_fract_y
 _atom_site_fract_z
 _atom_site_occupancy
  V  V0  1  0.74989025  0.24787421  0.00238301  1
  V  V1  1  0.88161293  0.50316964  0.37680031  1
  V  V2  1  0.12459081  0.00353823  0.12162983  1
  V  V3  1  0.75128844  0.87498923  0.61509952  1
  V  V4  1  0.12376075  0.75093546  0.37761554  1
  V  V5  1  0.87809260  0.24974483  0.13174192  1
  V  V6  1  0.00169428  0.00261610  0.00063859  1
  V  V7  1  0.87716108  0.00633866  0.37499695  1
  V  V8  1  0.26106617  0.87977538  0.62703854  1
  V  V9  1  0.87909565  0.37786947  0.50381541  1
  V  V10  1  0.00009926  0.62079490  0.61851469  1
  V  V11  1  0.00447693  -0.00408617  0.49943943  1
  V  V12  1  0.62326264  0.38430925  0.74585931  1
  V  V13  1  0.36814760  0.11751698  0.75171649  1
  V  V14  1  0.87967826  0.87381863  0.49341856  1
  V  V15  1  0.11989198  0.87581503  0.25471860  1
  V  V16  1  0.62533975  0.87448361  0.74800879  1
  V  V17  1  0.75101891  0.37625292  0.12706943  1
  V  V18  1  0.24977968  -0.00036620  0.25026596  1
  V  V19  1  0.24680088  0.11941849  0.88283760  1
  V  V20  1  0.62702370  0.37571145  0.25454373  1
  V  V21  1  0.75097990  0.00315982  0.75006865  1
  V  V22  1  0.87217327  0.50113534  0.87245778  1
  V  V23  1  0.12442285  0.25042640  0.88046867  1
  V  V24  1  0.48674123  0.62044275  0.12151248  1
  V  V25  1  0.37380821  -0.00750639  0.37963581  1
  V  V26  1  0.75469563  0.50593444  0.25045691  1
  V  V27  1  0.87353766  0.74683695  0.12894369  1
  V  V28  1  0.00251260  0.87587614  0.87036551  1
  V  V29  1  0.50053637  0.37471510  0.37461953  1
  V  V30  1  0.50596385  0.49860839  0.50579980  1
  V  V31  1  0.62947642  0.62446906  0.50380870  1
  V  V32  1  0.62444530  0.11797052  0.00533545  1
  V  V33  1  0.49300368  0.74910144  0.74428834  1
  V  V34  1  0.37271193  0.24881931  0.62456115  1
  V  V35  1  -0.00255616  0.75050245  0.25272485  1
  V  V36  1  0.37310326  0.50263666  0.36364237  1
  V  V37  1  0.49785898  -0.00780064  0.49895958  1
  V  V38  1  0.27144108  0.75159259  0.50402468  1
  V  V39  1  0.25162266  0.50208861  0.74488802  1
  V  V40  1  0.49933248  0.12022123  0.12551530  1
  V  V41  1  0.49538764  0.62689300  0.62357079  1
  V  V42  1  0.49842716  0.25004756  0.75081531  1
  V  V43  1  0.37534555  0.37456809  0.50078520  1
  V  V44  1  0.12339170  0.75069596  0.87042135  1
  V  V45  1  -0.00329620  0.62483238  0.12956922  1
  V  V46  1  0.74660895  0.87889381  0.12578173  1
  V  V47  1  0.48837439  0.74245132  0.24532485  1
  V  V48  1  0.50160707  0.12396294  0.62001840  1
  V  V49  1  0.87454069  0.00052189  0.87429790  1
  V  V50  1  0.25484571  0.87183598  0.12337406  1
  V  V51  1  0.62922398  0.75265530  0.37694871  1
  V  V52  1  0.62234010  0.24954382  0.87629272  1
  V  V53  1  -0.00003417  0.12897618  0.63222888  1
  V  V54  1  0.74853106  0.74720321  -0.00072131  1
  V  V55  1  0.49528077  0.37646899  0.89024113  1
  V  V56  1  0.12349576  0.37085001  0.74812483  1
  V  V57  1  0.49745828  -0.00274389  -0.00078672  1
  V  V58  1  0.25013422  0.37891752  0.14292913  1
  V  V59  1  0.37469941  0.12587815  0.24899249  1
  V  V60  1  0.12620947  0.49482447  0.13797509  1
  V  V61  1  0.62391317  0.87463902  0.24910901  1
  V  V62  1  0.62563116  0.00532974  0.61947112  1
  V  V63  1  0.24287363  0.12800330  0.37378682  1
  V  V64  1  0.75349379  0.62813114  0.37596198  1
  V  V65  1  0.25428167  0.62151372  0.36341364  1
  V  V66  1  0.00074187  0.12525580  0.12736655  1
  V  V67  1  0.24434689  0.24873646  0.49834670  1
  V  V68  1  0.74670525  0.24025952  0.49345233  1
  V  V69  1  0.87066828  0.75085572  0.61999145  1
  V  V70  1  0.62411267  0.74915271  0.87471279  1
  V  V71  1  0.74828952  0.00317318  0.25474783  1
  V  V72  1  0.50023173  0.24952772  0.25136233  1
  V  V73  1  0.12332972  0.61968138  0.49999509  1
  V  V74  1  0.00039160  0.49903532  0.00020746  1
  V  V75  1  0.87647735  0.62727156  0.75020395  1
  V  V76  1  0.00616557  0.36702587  0.36975453  1
  V  V77  1  0.12612632  0.62449644  -0.00077319  1
  V  V78  1  0.25871655  0.26554303  -0.00352323  1
  V  V79  1  0.37587245  0.49665918  0.88743092  1
  V  V80  1  0.12563976  0.11905424  0.50564229  1
  V  V81  1  0.25531208  0.75018074  0.00371325  1
  V  V82  1  0.74884103  0.12373564  0.87520809  1
  V  V83  1  0.87494507  0.37446360  0.00028310  1
  V  V84  1  -0.00194018  0.36895378  0.86928196  1
  Zn  Zn85  1  0.61565235  0.61563750  -0.00110626  1
  Zn  Zn86  1  0.87506116  0.87399845  -0.00095415  1
  Zn  Zn87  1  0.88039220  0.13695001  0.75568666  1
  Zn  Zn88  1  0.87111798  0.12896700  0.25681451  1
  Zn  Zn89  1  0.37171871  0.62578096  0.74419852  1
  Zn  Zn90  1  0.37746946  0.87169411  0.00055090  1
  Zn  Zn91  1  0.37899291  0.25882325  0.11972183  1
  Zn  Zn92  1  0.02563996  0.25539342  0.25081513  1
  Zn  Zn93  1  0.87226130  0.25362970  0.63166301  1
  Zn  Zn94  1  0.49545217  0.87440247  0.87338181  1
  Zn  Zn95  1  0.61983815  0.50070189  0.11769651  1
  Zn  Zn96  1  0.12828559  0.90849652  0.72155113  1
  Zn  Zn97  1  0.25367086  0.62683040  0.87170035  1
  Zn  Zn98  1  0.37126504  -0.00552067  0.87199647  1
  Zn  Zn99  1  0.74705401  0.62317709  0.87396479  1
  Zn  Zn100  1  0.74321333  0.50483420  0.74003532  1
  Zn  Zn101  1  0.24667418  0.37497815  0.62250360  1
  Zn  Zn102  1  0.62556134  0.23196024  0.37748571  1
  Zn  Zn103  1  0.73820066  0.37818633  0.61560782  1
  Zn  Zn104  1  0.12171742  0.49660731  0.62083073  1
  Zn  Zn105  1  0.49339047  0.86754973  0.37751244  1
  Zn  Zn106  1  0.00328117  0.75629650  0.74495267  1
  Zn  Zn107  1  0.18877386  0.19060713  0.18194634  1
  Zn  Zn108  1  0.18527430  0.18238138  0.69095679  1
  Zn  Zn109  1  0.18412869  0.68729971  0.18514821  1
  Zn  Zn110  1  0.18991994  0.69412968  0.68251194  1
  Zn  Zn111  1  0.68541958  0.18791221  0.18935280  1
  Zn  Zn112  1  0.68939353  0.19390832  0.68607222  1
  Zn  Zn113  1  0.67904299  0.68514650  0.18681727  1
  Zn  Zn114  1  0.68680284  0.68739091  0.68618088  1
  Zn  Zn115  1  0.31406110  0.31121472  0.31459314  1
  Zn  Zn116  1  0.31244212  0.31415342  0.80983610  1
  Zn  Zn117  1  0.30655159  0.80947827  0.31226704  1
  Zn  Zn118  1  0.31004490  0.81575887  0.81341001  1
  Zn  Zn119  1  0.81453514  0.31518149  0.31804224  1
  Zn  Zn120  1  0.80840496  0.31004163  0.81078995  1
  Zn  Zn121  1  0.81181976  0.81486004  0.31403622  1
  Zn  Zn122  1  0.81278825  0.81449060  0.80866798  1
  Zn  Zn123  1  0.19008732  0.43783694  0.43251162  1
  Zn  Zn124  1  0.18687680  0.44142632  0.93530464  1
  Zn  Zn125  1  0.19074985  0.93458962  0.44346147  1
  Zn  Zn126  1  0.18419235  0.93499874  0.93570602  1
  Zn  Zn127  1  0.69155767  0.43748576  0.43739879  1
  Zn  Zn128  1  0.68525785  0.43449996  0.93521900  1
  Zn  Zn129  1  0.69158382  1.05998781  0.43618191  1
  Zn  Zn130  1  0.68517228  0.93495657  0.93773122  1
  Zn  Zn131  1  0.31262640  0.06534883  0.05971801  1
  Zn  Zn132  1  0.31337232  0.05819280  0.56416248  1
  Zn  Zn133  1  0.30987616  0.56091387  0.06949566  1
  Zn  Zn134  1  0.31210623  0.56276779  0.55565671  1
  Zn  Zn135  1  0.81557609  0.06143871  0.06356006  1
  Zn  Zn136  1  0.81979018  0.06186270  0.56542919  1
  Zn  Zn137  1  0.80975623  0.56163538  0.06136808  1
  Zn  Zn138  1  0.80956011  0.55839145  0.56332323  1
  Zn  Zn139  1  0.43679749  0.43697167  0.18259877  1
  Zn  Zn140  1  0.43757267  0.43719265  0.68905217  1
  Zn  Zn141  1  0.43812706  0.93657495  0.18977526  1
  Zn  Zn142  1  0.43533962  0.93348752  0.68516965  1
  Zn  Zn143  1  0.93755012  0.43888107  0.19150260  1
  Zn  Zn144  1  0.93718368  0.44021487  0.68770286  1
  Zn  Zn145  1  0.93338586  0.93500372  0.18821909  1
  Zn  Zn146  1  0.93798797  0.94416846  0.68589575  1
  Zn  Zn147  1  0.06008572  0.06480170  0.31372426  1
  Zn  Zn148  1  0.06676084  0.06205882  0.81307353  1
  Zn  Zn149  1  0.06262618  0.56407430  0.31652773  1
  Zn  Zn150  1  0.06098227  0.56113063  0.80889259  1
  Zn  Zn151  1  0.55970782  0.05601308  0.30970724  1
  Zn  Zn152  1  0.56084690  0.06207709  0.81117325  1
  Zn  Zn153  1  0.56378627  0.56216172  0.31226745  1
  Zn  Zn154  1  0.55578389  0.56399453  0.81674147  1
  Zn  Zn155  1  0.43503611  0.18505736  0.43579780  1
  Zn  Zn156  1  0.43512390  0.18663841  0.93655205  1
  Zn  Zn157  1  0.44306604  0.68103449  0.43060562  1
  Zn  Zn158  1  0.43618925  0.68334871  0.93368061  1
  Zn  Zn159  1  0.93729382  0.18976004  0.44257125  1
  Zn  Zn160  1  0.93729230  0.18641101  0.94149588  1
  Zn  Zn161  1  0.93759213  0.68822194  0.43857941  1
  Zn  Zn162  1  0.93761672  0.68898163  0.94013228  1
  Zn  Zn163  1  0.06695833  0.31281949  0.06135459  1
  Zn  Zn164  1  0.06110770  0.31043818  0.55885268  1
  Zn  Zn165  1  0.06496630  0.81488703  0.06120650  1
  Zn  Zn166  1  0.06309589  0.80978522  0.56280843  1
  Zn  Zn167  1  0.56658001  0.30952880  0.06765134  1
  Zn  Zn168  1  0.56286931  0.30821620  0.56113943  1
  Zn  Zn169  1  0.56159394  0.80693338  0.06505409  1
  Zn  Zn170  1  0.56455974  0.81064775  0.56166887  1
  O  O171  1  0.11717564  0.11050535  0.12873650  1
  O  O172  1  0.11612035  0.12548922  0.61574443  1
  O  O173  1  0.11727096  0.61819924  0.11658872  1
  O  O174  1  0.11571459  0.63036608  0.61592990  1
  O  O175  1  0.61345280  0.13138456  0.11464480  1
  O  O176  1  0.61249862  0.11660534  0.63531272  1
  O  O177  1  0.61332158  0.62242265  0.12088915  1
  O  O178  1  0.61836157  0.63009715  0.61176519  1
  O  O179  1  0.38048424  0.38101410  0.38199160  1
  O  O180  1  0.38173940  0.38656126  0.86936637  1
  O  O181  1  0.37176408  0.88887799  0.36808013  1
  O  O182  1  0.37739143  0.87854238  0.88101867  1
  O  O183  1  0.88228172  0.38392915  0.38360533  1
  O  O184  1  0.88070927  0.38114398  0.87871538  1
  O  O185  1  0.87116901  0.88165137  0.38764311  1
  O  O186  1  0.88550490  0.88079851  0.87464341  1
  O  O187  1  0.25489773  0.00679515  0.37174632  1
  O  O188  1  0.25064048  0.01716965  0.89021990  1
  O  O189  1  0.26042898  0.50974862  0.38091338  1
  O  O190  1  0.25895208  0.50067364  0.86501775  1
  O  O191  1  0.76204056  0.00072854  0.36530355  1
  O  O192  1  0.75390299  0.00331767  0.87120461  1
  O  O193  1  0.75832527  0.50752449  0.36860658  1
  O  O194  1  0.76437634  0.49991232  0.87070317  1
  O  O195  1  0.24125794  0.48654464  0.12359134  1
  O  O196  1  0.24657272  0.49847071  0.63150844  1
  O  O197  1  0.24141120  0.99570088  0.12796845  1
  O  O198  1  0.24712560  0.97954614  0.61121239  1
  O  O199  1  0.75629133  0.49332270  0.13655247  1
  O  O200  1  0.75405996  0.48902357  0.62981773  1
  O  O201  1  0.76045355  0.98443463  0.13244846  1
  O  O202  1  0.74349076  0.99661818  0.62892382  1
  O  O203  1  -0.00531366  0.37187938  0.26380794  1
  O  O204  1  0.00830931  0.38218510  0.76131301  1
  O  O205  1  0.01119151  0.86485770  0.24231352  1
  O  O206  1  0.00413094  0.87852230  0.75997045  1
  O  O207  1  0.50869886  0.37015302  0.25335156  1
  O  O208  1  0.50687373  0.36959711  0.75880814  1
  O  O209  1  0.50842199  0.86434000  0.24741938  1
  O  O210  1  0.50775806  0.86564393  0.74739395  1
  O  O211  1  0.49541425  0.12745078  0.24173422  1
  O  O212  1  0.49092625  0.13048851  0.74286962  1
  O  O213  1  0.50372184  0.63689472  0.24440138  1
  O  O214  1  0.50178767  0.63139235  0.73884784  1
  O  O215  1  0.99477281  0.12455199  0.23683074  1
  O  O216  1  1.00296055  0.11983285  0.73535393  1
  O  O217  1  1.00764257  0.63617771  0.23730198  1
  O  O218  1  0.98942190  0.62813466  0.74216168  1
  O  O219  1  0.36268117  0.25156345  -0.00024468  1
  O  O220  1  0.36731056  0.25327263  0.50548809  1
  O  O221  1  0.35799957  0.74825430  -0.00632674  1
  O  O222  1  0.36927343  0.74890390  0.48783687  1
  O  O223  1  0.87031787  0.25437167  0.01066304  1
  O  O224  1  0.86382948  0.25957160  0.50227274  1
  O  O225  1  0.86734108  0.75247744  0.00934992  1
  O  O226  1  0.88020632  0.75974451  0.50998448  1
  O  O227  1  0.13746088  0.23848449  0.50274663  1
  O  O228  1  0.13785230  0.25609453  0.98762004  1
  O  O229  1  0.12489881  0.74165733  0.48648849  1
  O  O230  1  0.12899342  0.74175055  0.99364336  1
  O  O231  1  0.64138370  0.25689311  0.49622156  1
  O  O232  1  0.63017237  0.23991634  0.99645718  1
  O  O233  1  0.61842397  0.73922204  0.48728124  1
  O  O234  1  0.63294612  0.75081276  0.99016356  1
  O  O235  1  0.49743558  0.24064981  0.13162253  1
  O  O236  1  0.49375066  0.24043469  0.62828446  1
  O  O237  1  0.50062387  0.74169752  0.13872405  1
  O  O238  1  0.50690077  0.74148869  0.63425029  1
  O  O239  1  0.99513782  0.24283332  0.12314843  1
  O  O240  1  0.99848412  0.23193797  0.61599821  1
  O  O241  1  0.99496765  0.74434868  0.12975529  1
  O  O242  1  0.98835567  0.74124038  0.62695966  1
  O  O243  1  -0.00769833  0.26269670  0.37146242  1
  O  O244  1  0.00817460  0.26011866  0.88470836  1
  O  O245  1  0.00982926  0.74103817  0.36297122  1
  O  O246  1  0.00503585  0.76020037  0.87625397  1
  O  O247  1  0.50053277  0.25645278  0.37004175  1
  O  O248  1  0.50187720  0.25597310  0.87082986  1
  O  O249  1  0.50940957  0.74869101  0.36334229  1
  O  O250  1  0.51057164  0.74964173  0.86716224  1
  O  O251  1  0.24431341  0.12795236  0.49461086  1
  O  O252  1  0.25382102  0.13996130  0.98766328  1
  O  O253  1  0.24357050  0.63751410  0.49203506  1
  O  O254  1  0.23864917  0.63139778  1.00336102  1
  O  O255  1  0.75354185  0.13477121  0.50416925  1
  O  O256  1  0.74204057  0.12632188  0.99801733  1
  O  O257  1  0.73980376  0.61801650  0.48919377  1
  O  O258  1  0.75177015  0.63968788  0.99706810  1
  O  O259  1  0.25129341  0.36708298  -0.00290331  1
  O  O260  1  0.25421335  0.36427335  0.49918851  1
  O  O261  1  0.24682934  0.86677280  0.00805506  1
  O  O262  1  0.24814330  0.85611715  0.50454669  1
  O  O263  1  0.75630441  0.36714458  0.00586243  1
  O  O264  1  0.76282115  0.36711070  0.49654894  1
  O  O265  1  0.74940487  0.86539976  0.00840670  1
  O  O266  1  0.76383091  0.88117500  0.51475769  1
  O  O267  1  0.11975075  0.50520281  0.23647293  1
  O  O268  1  0.13382139  0.49078802  0.75074533  1
  O  O269  1  0.12803446  0.99272742  0.24465625  1
  O  O270  1  0.14459381  1.00362164  0.76711253  1
  O  O271  1  0.63591122  0.49010374  0.25089022  1
  O  O272  1  0.62146039  0.48732557  0.75892886  1
  O  O273  1  0.63389287  0.98432860  0.25460519  1
  O  O274  1  0.62872100  0.99445490  0.74051155  1
  O  O275  1  0.36965764  0.00598203  0.25718087  1
  O  O276  1  0.38101411  0.01359779  0.75153253  1
  O  O277  1  0.37930502  0.49367854  0.26526332  1
  O  O278  1  0.36343752  0.49998681  0.75261034  1
  O  O279  1  0.86853222  -0.00409270  0.26019787  1
  O  O280  1  0.86827707  0.00614287  0.75699128  1
  O  O281  1  0.86345228  0.49577719  0.26094824  1
  O  O282  1  0.87715469  0.50933826  0.75908202  1
  O  O283  1  0.10375833  0.38333411  0.38522203  1
  O  O284  1  0.11606186  0.37120300  0.86903764  1
  O  O285  1  0.13285483  0.86465928  0.36421681  1
  O  O286  1  0.11528802  0.86379396  0.87840572  1
  O  O287  1  0.61983778  0.37628956  0.36489622  1
  O  O288  1  0.61427057  0.36844865  0.86832470  1
  O  O289  1  0.62223056  0.86040856  0.36265716  1
  O  O290  1  0.62309561  0.86534123  0.86735038  1
  O  O291  1  0.38225053  0.12956352  0.13045546  1
  O  O292  1  0.37994287  0.12800919  0.63254930  1
  O  O293  1  0.38603627  0.62099912  0.12702523  1
  O  O294  1  0.39123365  0.62170218  0.62172612  1
  O  O295  1  0.88328213  0.13405733  0.12519008  1
  O  O296  1  0.88988860  0.12668736  0.62713701  1
  O  O297  1  0.88581338  0.63433489  0.11955652  1
  O  O298  1  0.87909512  0.63202162  0.62807079  1
  O  O299  1  0.24761626  0.26258031  0.11020931  1
  O  O300  1  0.25507726  0.24727739  0.61516837  1
  O  O301  1  0.23843807  0.76055009  0.11576693  1
  O  O302  1  0.26089959  0.74430863  0.60713048  1
  O  O303  1  0.75804484  0.25500533  0.12156496  1
  O  O304  1  0.75048318  0.25751709  0.61133626  1
  O  O305  1  0.75725127  0.75356821  0.12095641  1
  O  O306  1  0.76111406  0.76033500  0.63018892  1
  O  O307  1  0.26035565  0.23701066  0.38725249  1
  O  O308  1  0.24630134  0.24942228  0.88417844  1
  O  O309  1  0.24225080  0.74275628  0.38313051  1
  O  O310  1  0.23880482  0.74714378  0.88455627  1
  O  O311  1  0.75152347  0.24909663  0.38819197  1
  O  O312  1  0.74316191  0.24361873  0.88441478  1
  O  O313  1  0.74255231  0.73846524  0.36668642  1
  O  O314  1  0.74308569  0.75215525  0.88163306  1
  O  O315  1  -0.00321704  0.11298802  0.01203436  1
  O  O316  1  0.01000224  0.11799559  0.50445712  1
  O  O317  1  0.00705967  0.62144940  0.00984148  1
  O  O318  1  0.00985884  0.63003291  0.50733014  1
  O  O319  1  0.50545169  0.11954918  0.00572696  1
  O  O320  1  0.49323713  0.11719987  0.51442891  1
  O  O321  1  0.49861504  0.63563595  0.01667971  1
  O  O322  1  0.50850047  0.61743803  0.50482259  1
  O  O323  1  0.49730945  0.38055194  0.49543428  1
  O  O324  1  0.50356695  0.36726916  0.98962034  1
  O  O325  1  0.50509209  0.88829325  0.49885529  1
  O  O326  1  0.50043018  0.88525066  1.00483696  1
  O  O327  1  0.98511722  0.36721330  0.48881392  1
  O  O328  1  0.99487285  0.38002418  0.99143888  1
  O  O329  1  0.99064704  0.88345777  0.50765877  1
  O  O330  1  0.99876618  0.88420053  0.99163985  1
  O  O331  1  0.49335967  0.49596913  0.38328591  1
  O  O332  1  0.48440132  0.49248118  0.87360954  1
  O  O333  1  0.49021624  0.99533073  0.38215032  1
  O  O334  1  0.49917035  0.99808594  0.88613333  1
  O  O335  1  0.98716715  0.49482503  0.36838837  1
  O  O336  1  0.99162918  0.49148047  0.87983579  1
  O  O337  1  0.99274368  1.00185204  0.38699826  1
  O  O338  1  0.99663380  0.99600485  0.88347247  1
  O  O339  1  0.00392825  0.00356460  0.12024682  1
  O  O340  1  -0.00529904  0.01249271  0.60981234  1
  O  O341  1  0.00381456  0.50616451  0.12080269  1
  O  O342  1  0.00206595  0.51652995  0.62891902  1
  O  O343  1  0.49490449  0.01278486  0.11815663  1
  O  O344  1  0.50609557  0.00444730  0.61932089  1
  O  O345  1  0.50208572  0.51519760  0.13363043  1
  O  O346  1  0.49845770  0.50628261  0.61296711  1
  O  O347  1  0.24573029  0.36869863  0.24122001  1
  O  O348  1  0.24047637  0.38301364  0.74684308  1
  O  O349  1  0.23945126  0.87847437  0.24222933  1
  O  O350  1  0.24944668  0.86485083  0.73195145  1
  O  O351  1  0.74433362  0.38176062  0.24853139  1
  O  O352  1  0.72893301  0.37446248  0.75490373  1
  O  O353  1  0.74406892  0.88030463  0.24420066  1
  O  O354  1  0.74566146  0.88321178  0.74001397  1
  O  O355  1  0.25493586  0.11815441  0.25570724  1
  O  O356  1  0.25995135  0.13485226  0.76567843  1
  O  O357  1  0.24475585  0.63291766  0.26419362  1
  O  O358  1  0.24999237  0.61644649  0.74941411  1
  O  O359  1  0.75242401  0.10742724  0.23635338  1
  O  O360  1  0.74670833  0.11939396  0.75876261  1
  O  O361  1  0.74271817  0.61463270  0.26046572  1
  O  O362  1  0.76319105  0.62512850  0.75146632  1
  O  O363  1  0.36558875  0.11487874  0.36924532  1
  O  O364  1  0.36331706  0.12508353  0.86833622  1
  O  O365  1  0.36630028  0.61409818  0.37943525  1
  O  O366  1  0.37482698  0.60912591  0.86844743  1
  O  O367  1  0.88062078  0.11250843  0.37452051  1
  O  O368  1  0.86781851  0.11885522  0.87763954  1
  O  O369  1  0.86460659  0.61710888  0.38515539  1
  O  O370  1  0.87816642  0.61811042  0.86769273  1
  O  O371  1  0.13648336  0.38350607  0.11920443  1
  O  O372  1  0.12160721  0.37558642  0.63387675  1
  O  O373  1  0.13105408  0.88417620  0.13350523  1
  O  O374  1  0.14276121  0.85209556  0.62697628  1
  O  O375  1  0.63221381  0.37508471  0.13796577  1
  O  O376  1  0.61687966  0.37114026  0.64306046  1
  O  O377  1  0.63771808  0.86326851  0.13560886  1
  O  O378  1  0.63361476  0.88263203  0.62758375  1
  O  O379  1  0.13333261  0.23970634  0.26030275  1
  O  O380  1  0.13317559  0.26293235  0.76298681  1
  O  O381  1  0.11818327  0.75690770  0.25654333  1
  O  O382  1  0.12221530  0.73917040  0.76655416  1
  O  O383  1  0.62069957  0.25904634  0.25435531  1
  O  O384  1  0.61703056  0.25604970  0.75807803  1
  O  O385  1  0.61865167  0.75554374  0.25777448  1
  O  O386  1  0.61997681  0.75439342  0.75679811  1
  O  O387  1  0.38204439  0.24279742  0.24880400  1
  O  O388  1  0.37960796  0.24299603  0.74387546  1
  O  O389  1  0.39007596  0.75398444  0.25726207  1
  O  O390  1  0.39061881  0.74532789  0.76042306  1
  O  O391  1  0.87211880  0.25032070  0.23721273  1
  O  O392  1  0.87386939  0.25015559  0.74595513  1
  O  O393  1  0.88552560  0.75681302  0.24133173  1
  O  O394  1  0.87778637  0.74309549  0.74130170  1
  O  O395  1  0.38561384  0.49280058  0.49355303  1
  O  O396  1  0.36450666  0.50078784  0.98528359  1
  O  O397  1  0.38505501  1.00516474  0.48996794  1
  O  O398  1  0.38676123  1.00074916  0.99792116  1
  O  O399  1  0.87063051  0.48635561  0.49065073  1
  O  O400  1  0.87967902  0.49558795  0.99209254  1
  O  O401  1  0.88196178  0.99336683  0.49271387  1
  O  O402  1  0.88437847  0.99607833  0.99456111  1
  O  O403  1  0.11376723  -0.00699201  0.01122724  1
  O  O404  1  0.11687155  0.00685272  0.49474445  1
  O  O405  1  0.11964267  0.50853926  0.00534033  1
  O  O406  1  0.13363744  0.51647708  0.50134499  1
  O  O407  1  0.61686026  0.01076048  -0.00291207  1
  O  O408  1  0.61752769  0.00517841  0.51428038  1
  O  O409  1  0.63736604  0.50415294  0.00457450  1
  O  O410  1  0.61443895  0.50858218  0.49060817  1
  O  O411  1  0.35634049  0.37556987  0.12871551  1
  O  O412  1  0.37420026  0.36619960  0.61845577  1
  O  O413  1  0.35803762  0.88150433  0.12447515  1
  O  O414  1  0.36321179  0.87290838  0.62341706  1
  O  O415  1  0.87290353  0.36807469  0.12000171  1
  O  O416  1  0.88323655  0.37556979  0.60973463  1
  O  O417  1  0.86665580  0.86250727  0.12314363  1
  O  O418  1  0.87094658  0.86945854  0.62073001  1
  O  O419  1  0.13694197  0.11842522  0.38532321  1
  O  O420  1  0.13886593  0.13834098  0.87078211  1
  O  O421  1  0.13219209  0.63106947  0.38088788  1
  O  O422  1  0.12087068  0.62937079  0.88728535  1
  O  O423  1  0.62048797  0.12015792  0.37554474  1
  O  O424  1  0.62817253  0.12948056  0.88467532  1
  O  O425  1  0.63276704  0.63145806  0.38167641  1
  O  O426  1  0.62661950  0.63632106  0.87594968  1
