# generated using pymatgen
data_V85Zn86O256
_symmetry_space_group_name_H-M   'P 1'
_cell_length_a   16.97932641
_cell_length_b   16.99895036
_cell_length_c   16.98084284
_cell_angle_alpha   89.95305102
_cell_angle_beta   90.13810388
_cell_angle_gamma   89.88447455
_symmetry_Int_Tables_number   1
_chemical_formula_structural   V85Zn86O256
_chemical_formula_sum   'V85 Zn86 O256'
_cell_volume   4901.16714511
_cell_formula_units_Z   1
loop_
 _symmetry_equiv_pos_site_id
 _symmetry_equiv_pos_as_xyz
  1  'x, y, z'
loop_
 _atom_site_type_symbol
 _atom_site_label
 _atom_site_symmetry_multiplicity
 _atom_site_fract_x
 _atom_site_fract_y
 _atom_site_fract_z
 _atom_site_occupancy
  V  V0  1  0.73862600  -0.00635939  0.75124415  1
  V  V1  1  0.12435567  0.87444246  0.75053993  1
  V  V2  1  0.13062724  0.48958688  0.63245936  1
  V  V3  1  0.25141901  0.62576582  0.37690566  1
  V  V4  1  -0.00705561  0.00091668  -0.00248872  1
  V  V5  1  0.87656140  0.00600895  0.36969776  1
  V  V6  1  0.36773722  0.87448328  0.00193154  1
  V  V7  1  -0.00863810  0.62957842  0.62459262  1
  V  V8  1  0.75145196  -0.00863494  0.24725147  1
  V  V9  1  0.12705703  0.37325952  0.25271202  1
  V  V10  1  0.00362178  0.37613202  0.87189875  1
  V  V11  1  0.38418652  0.12385596  0.25005355  1
  V  V12  1  0.62049392  0.75283883  0.87023703  1
  V  V13  1  0.12719682  -0.00039835  0.62596703  1
  V  V14  1  0.62842875  0.75020386  0.37752922  1
  V  V15  1  0.62871172  0.49721667  0.12443758  1
  V  V16  1  0.36945030  0.25479368  0.61990759  1
  V  V17  1  0.25344670  -0.00343164  0.25160313  1
  V  V18  1  0.00016559  0.12488146  0.62554449  1
  V  V19  1  0.37503780  0.62545765  0.24947749  1
  V  V20  1  0.50256006  0.87268649  0.37342471  1
  V  V21  1  0.87081958  0.49793674  0.86724687  1
  V  V22  1  0.50685146  0.12166290  0.62691963  1
  V  V23  1  0.38682669  0.24546841  0.12689729  1
  V  V24  1  0.37740465  0.37960287  -0.00052993  1
  V  V25  1  0.50339079  0.25097758  0.75050016  1
  V  V26  1  0.75161626  0.62595026  0.37673526  1
  V  V27  1  0.74806970  0.61979548  0.86476617  1
  V  V28  1  0.49845213  0.38187586  0.87580637  1
  V  V29  1  0.25282462  0.75030897  0.50655809  1
  V  V30  1  0.00200963  0.12867602  0.13053020  1
  V  V31  1  0.25138991  -0.00064155  0.75222479  1
  V  V32  1  0.38231517  0.50144378  0.38202259  1
  V  V33  1  0.25175525  0.13122959  0.37871763  1
  V  V34  1  0.63556730  0.37676568  0.75098643  1
  V  V35  1  0.49967312  0.62478338  0.12316068  1
  V  V36  1  0.00505910  0.50757145  -0.00207362  1
  V  V37  1  0.36900474  0.61675039  0.75085504  1
  V  V38  1  0.13128616  -0.00371919  0.12515950  1
  V  V39  1  0.51728205  -0.02112326  0.52116184  1
  V  V40  1  -0.00108596  -0.00154885  0.50062514  1
  V  V41  1  -0.00100822  0.74840292  0.24958868  1
  V  V42  1  0.86746623  0.86644695  0.50669843  1
  V  V43  1  0.12485098  0.50673156  0.12128906  1
  V  V44  1  0.61095998  -0.00683158  0.13002198  1
  V  V45  1  0.12440294  0.74588783  0.88127742  1
  V  V46  1  0.62423534  0.62202258  -0.00231320  1
  V  V47  1  0.75113945  0.37640209  0.62248966  1
  V  V48  1  0.75114447  0.75151515  -0.00020826  1
  V  V49  1  0.00873381  0.24587394  0.25239001  1
  V  V50  1  0.50632056  0.75244247  0.24808981  1
  V  V51  1  0.50050986  0.37851587  0.38379644  1
  V  V52  1  0.75392638  0.13355351  0.38433770  1
  V  V53  1  0.24887122  0.61800464  0.87921914  1
  V  V54  1  0.00590044  0.25237219  0.74801809  1
  V  V55  1  0.25328720  0.87253803  0.62678297  1
  V  V56  1  0.49048090  0.74877687  0.74791461  1
  V  V57  1  0.87284739  0.37167219  0.49538116  1
  V  V58  1  0.87233418  0.24864093  0.62352796  1
  V  V59  1  0.37709499  0.86943064  0.50537950  1
  V  V60  1  0.13035126  0.12833874  0.49732249  1
  V  V61  1  0.62592733  0.25064054  0.38301192  1
  V  V62  1  0.12960142  0.25477563  0.87202635  1
  V  V63  1  0.61862213  0.11392031  0.00752458  1
  V  V64  1  0.12427385  0.62654794  0.50140628  1
  V  V65  1  0.62241105  0.61864974  0.49857923  1
  V  V66  1  0.37639976  0.12436194  0.75242255  1
  V  V67  1  0.37971650  0.00076448  0.88213611  1
  V  V68  1  0.49851111  0.87491336  0.87619346  1
  V  V69  1  0.36674315  0.75372502  0.12427985  1
  V  V70  1  0.49375934  0.62501362  0.62250854  1
  V  V71  1  -0.00585497  0.88032795  0.87561859  1
  V  V72  1  -0.00007068  0.49991947  0.49901348  1
  V  V73  1  0.62981716  0.12089502  0.50471015  1
  V  V74  1  0.12703141  0.12630837  0.00152410  1
  V  V75  1  0.00124456  0.37149623  0.37428951  1
  V  V76  1  -0.01004627  0.75089739  0.74698876  1
  V  V77  1  0.25118025  0.49990375  0.25057402  1
  V  V78  1  0.62191418  0.49901517  0.62557897  1
  V  V79  1  0.87158297  0.36749565  0.00816548  1
  V  V80  1  0.25197704  0.24935586  0.00372574  1
  V  V81  1  0.82765650  0.18540710  0.19610489  1
  V  V82  1  0.75175174  0.49556351  0.24693789  1
  V  V83  1  0.12796599  0.87497383  0.25099923  1
  V  V84  1  0.63173470  0.24650783  0.88705539  1
  Zn  Zn85  1  0.74728738  0.87176417  0.12810866  1
  Zn  Zn86  1  0.86718354  0.62279771  0.74177452  1
  Zn  Zn87  1  0.87498189  0.50015502  0.37136746  1
  Zn  Zn88  1  0.62536983  0.37176677  0.25099442  1
  Zn  Zn89  1  0.24225648  0.74782979  0.00488092  1
  Zn  Zn90  1  0.25288416  0.47715909  0.75022811  1
  Zn  Zn91  1  0.74880805  0.87690653  0.63050630  1
  Zn  Zn92  1  0.87488460  0.75096632  0.12378640  1
  Zn  Zn93  1  -0.00168471  0.87450173  0.37494165  1
  Zn  Zn94  1  0.86934174  0.88029657  0.00055981  1
  Zn  Zn95  1  0.37116454  0.38609894  0.50888218  1
  Zn  Zn96  1  0.25158935  0.12325148  0.87667640  1
  Zn  Zn97  1  0.87589601  0.62470206  0.24505284  1
  Zn  Zn98  1  0.25279409  0.37551789  0.12712554  1
  Zn  Zn99  1  0.24172769  0.26320848  0.49965780  1
  Zn  Zn100  1  0.49427400  0.50271602  -0.00355554  1
  Zn  Zn101  1  0.12566298  0.75389983  0.37600428  1
  Zn  Zn102  1  0.49926496  0.25076529  0.25503865  1
  Zn  Zn103  1  0.38164849  0.00083785  0.38324070  1
  Zn  Zn104  1  0.87728673  0.11292262  0.76379244  1
  Zn  Zn105  1  -0.00015194  0.62916871  0.11871771  1
  Zn  Zn106  1  0.75949417  0.11504895  0.88115963  1
  Zn  Zn107  1  0.19248651  0.18508939  0.18928196  1
  Zn  Zn108  1  0.19000509  0.18756129  0.68774102  1
  Zn  Zn109  1  0.18557513  0.68663006  0.18995400  1
  Zn  Zn110  1  0.18223650  0.68576908  0.69098606  1
  Zn  Zn111  1  0.66549198  0.17860337  0.19459570  1
  Zn  Zn112  1  0.69368453  0.18439642  0.69198232  1
  Zn  Zn113  1  0.68912036  0.68355276  0.18771827  1
  Zn  Zn114  1  0.68447932  0.69433901  0.68459275  1
  Zn  Zn115  1  0.31556667  0.31392714  0.31615050  1
  Zn  Zn116  1  0.31598408  0.31396486  0.81249316  1
  Zn  Zn117  1  0.31441798  0.81178034  0.31654083  1
  Zn  Zn118  1  0.31164246  0.80816773  0.81456575  1
  Zn  Zn119  1  0.75360997  0.35872662  0.12483828  1
  Zn  Zn120  1  0.83472392  0.28093754  0.83457481  1
  Zn  Zn121  1  0.81628869  0.81438615  0.31869186  1
  Zn  Zn122  1  0.80905509  0.81584070  0.81573226  1
  Zn  Zn123  1  0.18956432  0.43972494  0.43896909  1
  Zn  Zn124  1  0.19087488  0.43616001  0.93665211  1
  Zn  Zn125  1  0.19016892  0.94084994  0.43542142  1
  Zn  Zn126  1  0.18632522  0.93580147  0.93666415  1
  Zn  Zn127  1  0.68942874  0.43858790  0.43775388  1
  Zn  Zn128  1  0.69057218  0.43386954  0.93760259  1
  Zn  Zn129  1  0.69080078  0.93831107  0.43175344  1
  Zn  Zn130  1  0.68555189  0.93956515  0.93442819  1
  Zn  Zn131  1  0.31660360  0.06324668  0.06520182  1
  Zn  Zn132  1  0.32118949  0.06003136  0.56485535  1
  Zn  Zn133  1  0.30965719  0.56364065  0.06371211  1
  Zn  Zn134  1  0.31062948  0.56305904  0.56646733  1
  Zn  Zn135  1  0.80228623  0.06333490  0.05820378  1
  Zn  Zn136  1  0.81117581  0.05647037  0.57027120  1
  Zn  Zn137  1  0.81833060  0.56325265  0.05903677  1
  Zn  Zn138  1  0.80832657  0.55752696  0.55897030  1
  Zn  Zn139  1  0.44121072  0.43457219  0.19053894  1
  Zn  Zn140  1  0.44055256  0.43941705  0.68965238  1
  Zn  Zn141  1  0.43293679  0.93384431  0.18901340  1
  Zn  Zn142  1  0.43727427  0.93345214  0.69277033  1
  Zn  Zn143  1  0.93956778  0.43982618  0.18773529  1
  Zn  Zn144  1  0.94172547  0.43723190  0.68477628  1
  Zn  Zn145  1  0.93643302  0.93298796  0.18401604  1
  Zn  Zn146  1  0.92974612  0.93913126  0.68966529  1
  Zn  Zn147  1  0.06670061  0.06177650  0.31550402  1
  Zn  Zn148  1  0.06364506  0.06576885  0.81312727  1
  Zn  Zn149  1  0.06326555  0.56123580  0.31272251  1
  Zn  Zn150  1  0.06199872  0.56480391  0.81025765  1
  Zn  Zn151  1  0.56720492  0.05608158  0.32057645  1
  Zn  Zn152  1  0.56454322  0.06172451  0.81411009  1
  Zn  Zn153  1  0.56265421  0.56283026  0.30939907  1
  Zn  Zn154  1  0.56207780  0.56200159  0.80693406  1
  Zn  Zn155  1  0.44304675  0.18172251  0.43983339  1
  Zn  Zn156  1  0.44198663  0.18947800  0.93829298  1
  Zn  Zn157  1  0.43978319  0.68797056  0.43918422  1
  Zn  Zn158  1  0.43140692  0.68682463  0.93650946  1
  Zn  Zn159  1  0.94068607  0.18868567  0.43814918  1
  Zn  Zn160  1  0.94237894  0.18689631  0.94311075  1
  Zn  Zn161  1  0.93851007  0.68875220  0.43276908  1
  Zn  Zn162  1  0.93403527  0.68750332  0.93038313  1
  Zn  Zn163  1  0.06172919  0.31806053  0.06261969  1
  Zn  Zn164  1  0.06222475  0.31157037  0.56116472  1
  Zn  Zn165  1  0.06132056  0.81551517  0.06396809  1
  Zn  Zn166  1  0.06177929  0.81303632  0.56407105  1
  Zn  Zn167  1  0.56325500  0.31466224  0.06282511  1
  Zn  Zn168  1  0.56035865  0.31100171  0.56180335  1
  Zn  Zn169  1  0.55914596  0.81477682  0.05865892  1
  Zn  Zn170  1  0.58875040  0.80247872  0.57632412  1
  O  O171  1  0.11994045  0.11652060  0.12197691  1
  O  O172  1  0.12163465  0.11742991  0.61898877  1
  O  O173  1  0.12372631  0.61080246  0.12866947  1
  O  O174  1  0.11481248  0.62017570  0.61510899  1
  O  O175  1  0.62416263  0.11323004  0.11450176  1
  O  O176  1  0.61731891  0.13492906  0.61675683  1
  O  O177  1  0.61961415  0.61914264  0.11434725  1
  O  O178  1  0.62020444  0.61560385  0.61871283  1
  O  O179  1  0.38473779  0.38633829  0.37336228  1
  O  O180  1  0.38861814  0.36325903  0.88784734  1
  O  O181  1  0.38147950  0.87787917  0.38446308  1
  O  O182  1  0.37854117  0.88152518  0.88119993  1
  O  O183  1  0.88991427  0.37651935  0.38583576  1
  O  O184  1  0.88439804  0.37820582  0.88351820  1
  O  O185  1  0.87713434  0.89044073  0.38600793  1
  O  O186  1  0.89169502  0.86971990  0.88058964  1
  O  O187  1  0.25594699  0.00859027  0.36651473  1
  O  O188  1  0.25905927  0.00136858  0.87035148  1
  O  O189  1  0.25941343  0.50770249  0.36867965  1
  O  O190  1  0.23764892  0.51556595  0.86882001  1
  O  O191  1  0.75534659  0.01298940  0.36399573  1
  O  O192  1  0.74810227  -0.00007428  0.86382417  1
  O  O193  1  0.74933000  0.50770191  0.36505452  1
  O  O194  1  0.75754427  0.50887305  0.87877290  1
  O  O195  1  0.24283815  0.49756771  0.13172888  1
  O  O196  1  0.23424575  0.50522732  0.62762433  1
  O  O197  1  0.24039063  1.00844560  0.13724947  1
  O  O198  1  0.24801114  0.99333906  0.63202662  1
  O  O199  1  0.74002930  0.50871724  0.12951782  1
  O  O200  1  0.73942332  0.48634599  0.62352468  1
  O  O201  1  0.74534756  0.99813272  0.13549271  1
  O  O202  1  0.74860189  0.99421161  0.63953579  1
  O  O203  1  0.00688638  0.36710869  0.25441999  1
  O  O204  1  -0.00185161  0.36582123  0.76148634  1
  O  O205  1  0.01079133  0.86889732  0.25081681  1
  O  O206  1  0.00421597  0.87037246  0.75599556  1
  O  O207  1  0.50596457  0.37270090  0.26462182  1
  O  O208  1  0.50865668  0.36764628  0.75651190  1
  O  O209  1  0.49164105  0.86348454  0.26211625  1
  O  O210  1  0.49013776  0.86132918  0.76365586  1
  O  O211  1  0.48646491  0.12217783  0.26380266  1
  O  O212  1  0.49843328  0.13440447  0.74700742  1
  O  O213  1  0.49398643  0.63397664  0.24351921  1
  O  O214  1  0.48930147  0.62810585  0.74523605  1
  O  O215  1  1.01110749  0.13261038  0.24288304  1
  O  O216  1  0.99849500  0.13441006  0.74439757  1
  O  O217  1  1.00213661  0.63714173  0.25068285  1
  O  O218  1  0.99649172  0.63412340  0.74126083  1
  O  O219  1  0.37078090  0.25349881  0.00827416  1
  O  O220  1  0.37936386  0.24444886  0.51658866  1
  O  O221  1  0.37183653  0.75521576  0.00924288  1
  O  O222  1  0.36266533  0.75595680  0.49529516  1
  O  O223  1  0.88672527  0.26909002  0.00252979  1
  O  O224  1  0.88748020  0.26180737  0.51196380  1
  O  O225  1  0.85978911  0.74748489  -0.00437602  1
  O  O226  1  0.88014687  0.76876051  0.48954758  1
  O  O227  1  0.12707075  0.23274342  0.50809564  1
  O  O228  1  0.13299111  0.24772904  0.99563153  1
  O  O229  1  0.13153400  0.74266478  0.49838118  1
  O  O230  1  0.12393723  0.75645991  0.98718598  1
  O  O231  1  0.61861112  0.23659199  0.49176141  1
  O  O232  1  0.62320092  0.24619433  0.99081595  1
  O  O233  1  0.61889578  0.73357830  0.48335359  1
  O  O234  1  0.62751772  0.73873810  0.99139865  1
  O  O235  1  0.49058595  0.25309359  0.12970431  1
  O  O236  1  0.49559122  0.24146057  0.63422040  1
  O  O237  1  0.49394658  0.74551559  0.13133581  1
  O  O238  1  0.51047290  0.73661751  0.63878515  1
  O  O239  1  1.00802972  0.23673993  0.13220136  1
  O  O240  1  0.99792385  0.24619590  0.63250097  1
  O  O241  1  1.00267754  0.74873929  0.13557204  1
  O  O242  1  1.00575809  0.74066204  0.63443299  1
  O  O243  1  -0.00114066  0.25757016  0.36361629  1
  O  O244  1  0.01011169  0.25759947  0.86874791  1
  O  O245  1  0.00664525  0.75418342  0.36440491  1
  O  O246  1  0.00650225  0.75633623  0.86802541  1
  O  O247  1  0.50730098  0.25724269  0.37780044  1
  O  O248  1  0.51035427  0.25875174  0.86723292  1
  O  O249  1  0.50615183  0.75240954  0.36565135  1
  O  O250  1  0.50181816  0.75342525  0.86967616  1
  O  O251  1  0.24572571  0.11870491  0.49499076  1
  O  O252  1  0.24604670  0.13429757  1.00117166  1
  O  O253  1  0.24301006  0.63318215  0.49867071  1
  O  O254  1  0.25442156  0.62661676  0.98370956  1
  O  O255  1  0.74240086  0.11741728  0.49460461  1
  O  O256  1  0.72976741  0.12137944  0.99371372  1
  O  O257  1  0.73829914  0.61815480  0.48774089  1
  O  O258  1  0.74030349  0.63106506  0.98847519  1
  O  O259  1  0.25964784  0.36465633  0.00006846  1
  O  O260  1  0.25915083  0.37260952  0.49246263  1
  O  O261  1  0.26265740  0.86936242  -0.00588884  1
  O  O262  1  0.25684645  0.86990634  0.50426010  1
  O  O263  1  0.76607041  0.37742900  0.00310079  1
  O  O264  1  0.76187157  0.37774869  0.50808201  1
  O  O265  1  0.74816998  0.86174039  -0.00457998  1
  O  O266  1  0.76556498  0.88497092  0.49931942  1
  O  O267  1  0.12983202  0.49239766  0.24301789  1
  O  O268  1  0.12203619  0.50438094  0.73412383  1
  O  O269  1  0.13282644  0.99477385  0.24450691  1
  O  O270  1  0.13078984  0.99528637  0.74617969  1
  O  O271  1  0.63179032  0.50319970  0.23781249  1
  O  O272  1  0.62150840  0.48841933  0.73910202  1
  O  O273  1  0.63611143  1.01188534  0.23786044  1
  O  O274  1  0.63673518  1.00365872  0.75175185  1
  O  O275  1  0.36683673  0.00643663  0.24928828  1
  O  O276  1  0.36980403  0.00412697  0.76113314  1
  O  O277  1  0.37059759  0.50666138  0.25558000  1
  O  O278  1  0.36990997  0.51074729  0.74572270  1
  O  O279  1  0.87062496  -0.00382132  0.26170423  1
  O  O280  1  0.86352522  0.00219301  0.75117118  1
  O  O281  1  0.86672496  0.50325715  0.25083791  1
  O  O282  1  0.88206787  0.49897978  0.76363661  1
  O  O283  1  0.11375982  0.38301727  0.36354118  1
  O  O284  1  0.11498789  0.36394864  0.88425037  1
  O  O285  1  0.12266581  0.87846087  0.36333294  1
  O  O286  1  0.11624511  0.86765869  0.86920425  1
  O  O287  1  0.61979033  0.36657535  0.37971019  1
  O  O288  1  0.61879700  0.36719009  0.87069251  1
  O  O289  1  0.61553595  0.86238653  0.38318672  1
  O  O290  1  0.61099295  0.86188683  0.88500313  1
  O  O291  1  0.37102050  0.13404616  0.13723021  1
  O  O292  1  0.38480672  0.13625721  0.63288482  1
  O  O293  1  0.38047130  0.63261648  0.12856287  1
  O  O294  1  0.38570116  0.62155942  0.63167747  1
  O  O295  1  0.88130134  0.12551709  0.12955263  1
  O  O296  1  0.88353089  0.13700600  0.61836512  1
  O  O297  1  0.88042793  0.63219630  0.12637438  1
  O  O298  1  0.88608645  0.61671791  0.62324827  1
  O  O299  1  0.25779578  0.25142583  0.11593655  1
  O  O300  1  0.26677662  0.24526162  0.62460037  1
  O  O301  1  0.26250399  0.74343635  0.12511958  1
  O  O302  1  0.24076420  0.75565608  0.61371240  1
  O  O303  1  0.75807719  0.24192615  0.14539189  1
  O  O304  1  0.76215422  0.26137278  0.63010196  1
  O  O305  1  0.74407304  0.75024358  0.11199248  1
  O  O306  1  0.69325441  0.78197681  0.61931883  1
  O  O307  1  0.25889624  0.23469028  0.37980611  1
  O  O308  1  0.24492663  0.24651796  0.88790502  1
  O  O309  1  0.24701756  0.74392888  0.38591086  1
  O  O310  1  0.23944927  0.74112201  0.87528731  1
  O  O311  1  0.74003648  0.23513631  0.37545769  1
  O  O312  1  0.72919294  0.25837771  0.86965360  1
  O  O313  1  0.73816807  0.73936478  0.36348104  1
  O  O314  1  0.73879668  0.74205305  0.87990677  1
  O  O315  1  0.00715421  0.11967848  0.00961644  1
  O  O316  1  0.01017033  0.11674133  0.50361452  1
  O  O317  1  -0.00246575  0.61096234  -0.00654771  1
  O  O318  1  0.00588422  0.62264119  0.50461221  1
  O  O319  1  0.51863398  0.12766557  -0.00574498  1
  O  O320  1  0.50945310  0.10956574  0.51069603  1
  O  O321  1  0.50769232  0.62316745  0.00171646  1
  O  O322  1  0.50854074  0.62961005  0.51111401  1
  O  O323  1  0.49404046  0.37305953  0.48884326  1
  O  O324  1  0.49410226  0.37657002  0.99311192  1
  O  O325  1  0.48699429  0.86212384  0.48533151  1
  O  O326  1  0.48432649  0.86714599  0.98569274  1
  O  O327  1  0.99700669  0.37904543  0.49199554  1
  O  O328  1  0.99315933  0.38453066  0.99151444  1
  O  O329  1  0.99570739  0.88629606  0.49947965  1
  O  O330  1  1.00106366  0.88624318  0.99312137  1
  O  O331  1  0.49215585  0.49442831  0.36961552  1
  O  O332  1  0.50629388  0.48599855  0.87525719  1
  O  O333  1  0.50561169  0.98396589  0.38904405  1
  O  O334  1  0.48903212  0.98920284  0.86772228  1
  O  O335  1  0.99824187  0.49152887  0.38008718  1
  O  O336  1  0.99731021  0.49281511  0.87858178  1
  O  O337  1  0.99362782  1.00288163  0.38377923  1
  O  O338  1  1.01010918  0.99272337  0.88582197  1
  O  O339  1  0.00928700  0.00978364  0.12025136  1
  O  O340  1  0.00582685  0.00482108  0.61745966  1
  O  O341  1  0.00825197  0.50157906  0.11538177  1
  O  O342  1  0.00834130  0.50942015  0.61871831  1
  O  O343  1  0.51239726  -0.00298499  0.13624841  1
  O  O344  1  0.48679515  0.01935259  0.63188806  1
  O  O345  1  0.51125867  0.50562259  0.12397427  1
  O  O346  1  0.51073570  0.51056202  0.62908572  1
  O  O347  1  0.24184130  0.37984082  0.25251024  1
  O  O348  1  0.23857067  0.36882763  0.76179499  1
  O  O349  1  0.24353314  0.88627859  0.25699661  1
  O  O350  1  0.24570054  0.87826225  0.74617942  1
  O  O351  1  0.74414539  0.39234650  0.24204779  1
  O  O352  1  0.73753331  0.36949055  0.74064321  1
  O  O353  1  0.75008205  0.88828089  0.25428756  1
  O  O354  1  0.75097540  0.88617714  0.75170099  1
  O  O355  1  0.25758591  0.11730870  0.25994133  1
  O  O356  1  0.25804144  0.11820424  0.75330132  1
  O  O357  1  0.25544176  0.62067838  0.25720706  1
  O  O358  1  0.25736566  0.62750456  0.75662352  1
  O  O359  1  0.76251490  0.12416113  0.25485349  1
  O  O360  1  0.75458687  0.11407779  0.75520403  1
  O  O361  1  0.74963654  0.61598664  0.25947767  1
  O  O362  1  0.74832729  0.63374372  0.75981417  1
  O  O363  1  0.36998524  0.11914213  0.37101450  1
  O  O364  1  0.37758967  0.11699234  0.87188575  1
  O  O365  1  0.37260489  0.62028730  0.36932940  1
  O  O366  1  0.35931870  0.62757510  0.86652130  1
  O  O367  1  0.86804021  0.11533953  0.38609641  1
  O  O368  1  0.86368643  0.16626663  0.86730037  1
  O  O369  1  0.86295446  0.62325904  0.37456560  1
  O  O370  1  0.86426074  0.61521683  0.87063653  1
  O  O371  1  0.12611415  0.38422857  0.13664394  1
  O  O372  1  0.11794919  0.39140277  0.61922076  1
  O  O373  1  0.12215902  0.88805146  0.13529021  1
  O  O374  1  0.13144948  0.88119643  0.63072711  1
  O  O375  1  0.63205863  0.38444109  0.12362455  1
  O  O376  1  0.62987218  0.37829190  0.62899946  1
  O  O377  1  0.62620829  0.88923596  0.11863058  1
  O  O378  1  0.56962765  0.91602001  0.58328532  1
  O  O379  1  0.12001663  0.26054567  0.24458427  1
  O  O380  1  0.11652358  0.24299741  0.75943690  1
  O  O381  1  0.12153578  0.76054266  0.25085929  1
  O  O382  1  0.11408935  0.75638675  0.75804736  1
  O  O383  1  0.61910558  0.24974353  0.26668041  1
  O  O384  1  0.61633790  0.25646206  0.75521252  1
  O  O385  1  0.61229687  0.74204562  0.25706669  1
  O  O386  1  0.60853396  0.73803624  0.76706047  1
  O  O387  1  0.37502591  0.24121168  0.24341419  1
  O  O388  1  0.38730827  0.24535633  0.74476173  1
  O  O389  1  0.38218215  0.74580010  0.24328288  1
  O  O390  1  0.38362982  0.73764972  0.75411838  1
  O  O391  1  0.89142259  0.24369748  0.24575225  1
  O  O392  1  0.89067579  0.25416774  0.73484754  1
  O  O393  1  0.88797449  0.75191064  0.25155449  1
  O  O394  1  0.88708065  0.74908710  0.75616771  1
  O  O395  1  0.37147624  0.50585690  0.48573050  1
  O  O396  1  0.37450156  0.48382862  1.00793864  1
  O  O397  1  0.39382675  0.98559632  0.50547715  1
  O  O398  1  0.36953452  0.99264484  0.99086085  1
  O  O399  1  0.88228873  0.48833652  0.49852842  1
  O  O400  1  0.88479106  0.49254617  0.98731065  1
  O  O401  1  0.88612845  0.99594575  0.49498443  1
  O  O402  1  0.89011058  1.00488941  1.00520534  1
  O  O403  1  0.12080785  0.00479724  0.00880980  1
  O  O404  1  0.11839032  0.00525085  0.50567354  1
  O  O405  1  0.11710008  0.48943087  0.01009207  1
  O  O406  1  0.12035321  0.51023656  0.50742894  1
  O  O407  1  0.62277404  0.00620845  0.01243463  1
  O  O408  1  0.62291383  0.01456115  0.48783348  1
  O  O409  1  0.62615434  0.50863571  0.00594288  1
  O  O410  1  0.62584838  0.50799033  0.51004871  1
  O  O411  1  0.37490241  0.36420277  0.11885148  1
  O  O412  1  0.38709553  0.35860378  0.62608714  1
  O  O413  1  0.38126720  0.86444499  0.11505551  1
  O  O414  1  0.36975455  0.87561465  0.61497706  1
  O  O415  1  0.87516960  0.38224797  0.11181553  1
  O  O416  1  0.87062616  0.37106538  0.61752543  1
  O  O417  1  0.86812555  0.86925476  0.11794427  1
  O  O418  1  0.87592455  0.87476070  0.60988241  1
  O  O419  1  0.13758843  0.11754391  0.38677036  1
  O  O420  1  0.12570133  0.13802663  0.88305195  1
  O  O421  1  0.13161375  0.62229533  0.38833628  1
  O  O422  1  0.13567616  0.63562703  0.86612696  1
  O  O423  1  0.63218643  0.13133483  0.38360385  1
  O  O424  1  0.62359972  0.13885580  0.88146624  1
  O  O425  1  0.62943465  0.62764162  0.38029250  1
  O  O426  1  0.62865981  0.62744469  0.88089772  1
