# generated using pymatgen
data_V85Zn86O256
_symmetry_space_group_name_H-M   'P 1'
_cell_length_a   16.99845463
_cell_length_b   17.00374010
_cell_length_c   16.99438952
_cell_angle_alpha   90.04934729
_cell_angle_beta   89.92856451
_cell_angle_gamma   90.09748757
_symmetry_Int_Tables_number   1
_chemical_formula_structural   V85Zn86O256
_chemical_formula_sum   'V85 Zn86 O256'
_cell_volume   4911.99980020
_cell_formula_units_Z   1
loop_
 _symmetry_equiv_pos_site_id
 _symmetry_equiv_pos_as_xyz
  1  'x, y, z'
loop_
 _atom_site_type_symbol
 _atom_site_label
 _atom_site_symmetry_multiplicity
 _atom_site_fract_x
 _atom_site_fract_y
 _atom_site_fract_z
 _atom_site_occupancy
  V  V0  1  0.50335147  0.11091592  0.11985091  1
  V  V1  1  0.49845996  0.87622793  0.37866007  1
  V  V2  1  0.12975711  0.49787412  0.12603777  1
  V  V3  1  -0.01368429  0.38356331  0.37586339  1
  V  V4  1  0.50410171  0.74706628  0.25202250  1
  V  V5  1  0.87224265  0.62295528  0.26868888  1
  V  V6  1  0.86703713  0.51141364  0.87222674  1
  V  V7  1  0.25240105  0.75104495  0.00157596  1
  V  V8  1  0.24750800  0.75688979  0.50569062  1
  V  V9  1  0.62526814  0.37549087  0.24869801  1
  V  V10  1  0.37246404  0.49914197  0.37468588  1
  V  V11  1  0.12457732  0.25158550  0.87464717  1
  V  V12  1  -0.00236433  0.87520950  0.37723410  1
  V  V13  1  0.00155609  0.12270829  0.11699459  1
  V  V14  1  0.75480917  0.50396664  0.26101582  1
  V  V15  1  0.71641787  0.49842759  0.72223442  1
  V  V16  1  0.50565836  0.50209848  0.50007665  1
  V  V17  1  0.37382756  0.37772221  0.00042082  1
  V  V18  1  0.12563553  0.00239157  0.62339235  1
  V  V19  1  0.87652606  0.75006791  0.12750337  1
  V  V20  1  0.12390009  0.87441245  0.25084487  1
  V  V21  1  0.24761481  0.62415847  0.37774697  1
  V  V22  1  0.37727201  0.13024302  0.75056382  1
  V  V23  1  0.37432497  0.75301951  0.12658724  1
  V  V24  1  0.37288899  0.62497750  0.74665325  1
  V  V25  1  0.00003446  0.01060588  0.50386999  1
  V  V26  1  0.37475522  0.50194656  0.87397084  1
  V  V27  1  0.50190411  0.24986648  0.24737495  1
  V  V28  1  0.24306717  0.13235153  0.38162951  1
  V  V29  1  0.37374807  0.25383716  0.12337503  1
  V  V30  1  0.75108216  0.88581355  0.12916965  1
  V  V31  1  0.37067835  0.75889556  0.62501183  1
  V  V32  1  0.73682155  0.25378121  -0.00459085  1
  V  V33  1  0.50997076  0.37077037  0.86789451  1
  V  V34  1  0.37265684  0.25139115  0.62138437  1
  V  V35  1  0.24766094  0.49904384  0.74784966  1
  V  V36  1  0.11901021  0.61923657  0.50805496  1
  V  V37  1  0.24958513  0.49789469  0.24836367  1
  V  V38  1  0.88157709  0.88101951  0.00139916  1
  V  V39  1  0.00049261  0.25009504  0.24985224  1
  V  V40  1  0.24548895  0.37387880  0.62228753  1
  V  V41  1  0.75021174  0.13168318  0.87184361  1
  V  V42  1  0.00411752  0.87863907  0.87533381  1
  V  V43  1  0.25001654  0.25348451  0.00085712  1
  V  V44  1  0.25194887  -0.00983953  0.74413668  1
  V  V45  1  0.12323985  0.37486768  0.74970454  1
  V  V46  1  0.62928984  -0.00322192  0.62500361  1
  V  V47  1  -0.00773676  0.74300623  0.74006973  1
  V  V48  1  0.12847069  0.37545664  0.24853779  1
  V  V49  1  0.63087157  0.73673452  0.38264428  1
  V  V50  1  0.49829913  0.37312262  0.37310496  1
  V  V51  1  0.75530261  0.74695823  -0.00551671  1
  V  V52  1  -0.00232885  0.37730801  0.87186051  1
  V  V53  1  0.75790706  0.73617181  0.50277353  1
  V  V54  1  0.24974696  0.00097241  0.25292086  1
  V  V55  1  0.12310093  0.00073597  0.11769672  1
  V  V56  1  0.51047390  0.74763571  0.74912389  1
  V  V57  1  0.25133197  0.87397016  0.12692699  1
  V  V58  1  0.00167268  0.50064023  0.00202041  1
  V  V59  1  0.87241444  0.24292588  0.61255570  1
  V  V60  1  0.63300600  0.12376928  0.49434696  1
  V  V61  1  0.63362300  0.88510181  0.25057427  1
  V  V62  1  -0.01955666  0.49863946  0.50435330  1
  V  V63  1  -0.00149949  0.74928867  0.25242936  1
  V  V64  1  0.25001539  0.62632434  0.87337829  1
  V  V65  1  0.50775267  0.61859844  0.61747560  1
  V  V66  1  0.87982546  0.00527169  0.87244973  1
  V  V67  1  0.37536815  0.12461022  0.24972893  1
  V  V68  1  0.12269529  0.74897112  0.37770533  1
  V  V69  1  0.62252580  0.10389108  -0.00142881  1
  V  V70  1  -0.01200477  0.23396149  0.74492898  1
  V  V71  1  0.86841314  0.12070727  0.24643691  1
  V  V72  1  0.74997290  0.37685505  0.12321001  1
  V  V73  1  0.87438149  0.37433627  -0.00166935  1
  V  V74  1  0.36780049  0.37248006  0.49866702  1
  V  V75  1  0.12473638  0.75319941  0.87383052  1
  V  V76  1  0.86705700  0.00013408  0.37076365  1
  V  V77  1  0.50059278  0.50628914  -0.00068769  1
  V  V78  1  0.25390669  0.12742295  0.87218973  1
  V  V79  1  0.50133059  0.12256259  0.62191841  1
  V  V80  1  0.37432295  0.62445707  0.25238829  1
  V  V81  1  0.63312605  0.62861735  -0.00361175  1
  V  V82  1  0.75656573  0.00399244  0.74700887  1
  V  V83  1  0.62617501  0.50344337  0.12530970  1
  V  V84  1  -0.00036851  0.62500589  0.12742907  1
  Zn  Zn85  1  0.87394596  0.24757357  0.12171069  1
  Zn  Zn86  1  0.51877584  0.25515854  0.74677292  1
  Zn  Zn87  1  0.63761724  0.74858055  0.87022106  1
  Zn  Zn88  1  0.12424046  0.14204039  0.51475316  1
  Zn  Zn89  1  0.86598081  0.62214206  0.73759572  1
  Zn  Zn90  1  0.62864481  0.88037228  0.75564335  1
  Zn  Zn91  1  0.75882614  0.86233188  0.62662982  1
  Zn  Zn92  1  0.12767192  0.25917441  0.38640527  1
  Zn  Zn93  1  0.10785414  0.50099139  0.62782135  1
  Zn  Zn94  1  0.12485620  0.62409699  0.00059465  1
  Zn  Zn95  1  0.39813557  -0.00079571  0.90519879  1
  Zn  Zn96  1  0.49746901  -0.00317394  0.50261508  1
  Zn  Zn97  1  0.37121457  0.87830950  0.50606983  1
  Zn  Zn98  1  0.12237482  0.12258309  -0.00278460  1
  Zn  Zn99  1  0.37395335  0.00045669  0.38102366  1
  Zn  Zn100  1  0.74859175  0.12540258  0.36681318  1
  Zn  Zn101  1  0.50137177  0.62613900  0.12542812  1
  Zn  Zn102  1  0.87321176  0.87115977  0.50656268  1
  Zn  Zn103  1  0.76057431  0.26165512  0.49549825  1
  Zn  Zn104  1  0.12748523  0.87099373  0.74181127  1
  Zn  Zn105  1  0.62815968  0.24959545  0.37240386  1
  Zn  Zn106  1  0.50973033  0.88685781  0.90010019  1
  Zn  Zn107  1  0.18700013  0.18742166  0.18844165  1
  Zn  Zn108  1  0.18404098  0.19045430  0.68792117  1
  Zn  Zn109  1  0.18617816  0.68453937  0.19020533  1
  Zn  Zn110  1  0.18437937  0.68831467  0.68642298  1
  Zn  Zn111  1  0.68565861  0.18809616  0.17852775  1
  Zn  Zn112  1  0.69350669  0.18645836  0.68119215  1
  Zn  Zn113  1  0.69238733  0.68916013  0.18648834  1
  Zn  Zn114  1  0.69401439  0.67210659  0.68097382  1
  Zn  Zn115  1  0.31210133  0.31151942  0.30991933  1
  Zn  Zn116  1  0.31575588  0.31441959  0.81100555  1
  Zn  Zn117  1  0.31170291  0.81100967  0.31576805  1
  Zn  Zn118  1  0.32184467  0.81098609  0.82015611  1
  Zn  Zn119  1  0.80905473  0.30805443  0.30907144  1
  Zn  Zn120  1  0.69615199  0.31969339  0.80241832  1
  Zn  Zn121  1  0.81263281  0.80863127  0.31817411  1
  Zn  Zn122  1  0.81752517  0.81824716  0.80890680  1
  Zn  Zn123  1  0.18082620  0.43782044  0.43625409  1
  Zn  Zn124  1  0.18747469  0.43795769  0.93705674  1
  Zn  Zn125  1  0.18367327  0.94064802  0.43812769  1
  Zn  Zn126  1  0.23102957  0.95429055  0.95235100  1
  Zn  Zn127  1  0.68260979  0.44136052  0.43586061  1
  Zn  Zn128  1  0.68769086  0.44416162  0.93784491  1
  Zn  Zn129  1  0.68753993  0.92934994  0.44209952  1
  Zn  Zn130  1  0.69531896  0.93055158  0.93225682  1
  Zn  Zn131  1  0.31406891  0.06815023  0.06714378  1
  Zn  Zn132  1  0.31323714  0.05946212  0.56360138  1
  Zn  Zn133  1  0.31243851  0.56751056  0.06250938  1
  Zn  Zn134  1  0.31154660  0.56246200  0.56118043  1
  Zn  Zn135  1  0.81325846  0.06480867  0.05801937  1
  Zn  Zn136  1  0.82194215  0.06753398  0.56649299  1
  Zn  Zn137  1  0.81516944  0.56242866  0.06725501  1
  Zn  Zn138  1  0.80304914  0.55796488  0.56054498  1
  Zn  Zn139  1  0.43890149  0.43902507  0.18579265  1
  Zn  Zn140  1  0.43745215  0.43885518  0.68639527  1
  Zn  Zn141  1  0.43820119  0.93366248  0.19221225  1
  Zn  Zn142  1  0.44040161  0.93685791  0.75525110  1
  Zn  Zn143  1  0.93649611  0.44008963  0.18818893  1
  Zn  Zn144  1  0.91988812  0.42757324  0.68878428  1
  Zn  Zn145  1  0.93924514  0.93950974  0.18751815  1
  Zn  Zn146  1  0.93909852  0.93555602  0.68735468  1
  Zn  Zn147  1  0.06032790  0.06246801  0.31010066  1
  Zn  Zn148  1  0.07064307  0.06002494  0.81398493  1
  Zn  Zn149  1  0.05884685  0.56318982  0.31611335  1
  Zn  Zn150  1  0.06101154  0.56428667  0.81194808  1
  Zn  Zn151  1  0.55903865  0.06099266  0.31045750  1
  Zn  Zn152  1  0.56948036  0.07119600  0.80934672  1
  Zn  Zn153  1  0.56276591  0.55877469  0.31326211  1
  Zn  Zn154  1  0.56140248  0.56632582  0.81539471  1
  Zn  Zn155  1  0.43657926  0.18550030  0.43585295  1
  Zn  Zn156  1  0.44290253  0.18933941  0.93785178  1
  Zn  Zn157  1  0.43502428  0.69047037  0.43832738  1
  Zn  Zn158  1  0.46157075  0.72145327  0.95794477  1
  Zn  Zn159  1  0.93896605  0.18788304  0.43072645  1
  Zn  Zn160  1  0.93426331  0.19210958  0.93374239  1
  Zn  Zn161  1  0.93522129  0.68368737  0.56347782  1
  Zn  Zn162  1  0.94094982  0.69015649  0.93968143  1
  Zn  Zn163  1  0.06226526  0.31259969  0.06381305  1
  Zn  Zn164  1  0.05295568  0.31427453  0.56305228  1
  Zn  Zn165  1  0.06530410  0.81225297  0.06154993  1
  Zn  Zn166  1  0.06527457  0.82007795  0.56163560  1
  Zn  Zn167  1  0.55827245  0.31586604  0.06226701  1
  Zn  Zn168  1  0.55874340  0.30818243  0.55529816  1
  Zn  Zn169  1  0.57053435  0.81683884  0.06729661  1
  Zn  Zn170  1  0.56347410  0.80995377  0.56501729  1
  O  O171  1  0.11910922  0.11823555  0.12362673  1
  O  O172  1  0.13210020  0.11037754  0.62583241  1
  O  O173  1  0.11765944  0.61450859  0.12777948  1
  O  O174  1  0.12839398  0.61934681  0.61315134  1
  O  O175  1  0.61733464  0.12634559  0.10853369  1
  O  O176  1  0.61972646  0.11874085  0.61255076  1
  O  O177  1  0.62448541  0.62117288  0.11718636  1
  O  O178  1  0.60468595  0.62529908  0.61862172  1
  O  O179  1  0.37721426  0.37769378  0.38098131  1
  O  O180  1  0.38223208  0.38204500  0.88331019  1
  O  O181  1  0.38725787  0.87387318  0.37491493  1
  O  O182  1  0.39395573  0.88710500  0.85435078  1
  O  O183  1  0.88864375  0.37142033  0.36592191  1
  O  O184  1  0.88633552  0.39002010  0.88770128  1
  O  O185  1  0.88431601  0.88311910  0.37348159  1
  O  O186  1  0.88441196  0.88364220  0.88273038  1
  O  O187  1  0.24830748  0.00755697  0.36446253  1
  O  O188  1  0.24528680  0.01652425  0.85557838  1
  O  O189  1  0.25398986  0.50444730  0.36945476  1
  O  O190  1  0.25414700  0.50533701  0.86838911  1
  O  O191  1  0.76493910  -0.00044252  0.38170017  1
  O  O192  1  0.75936767  0.00666920  0.86752559  1
  O  O193  1  0.74717237  0.49269154  0.36020222  1
  O  O194  1  0.76798718  0.50511262  0.88555406  1
  O  O195  1  0.23837078  0.50774290  0.13134768  1
  O  O196  1  0.25372922  0.48623809  0.63095640  1
  O  O197  1  0.24294691  0.99631035  0.13802866  1
  O  O198  1  0.24442066  1.00324198  0.63795645  1
  O  O199  1  0.74373509  0.49332076  0.12950949  1
  O  O200  1  0.73107690  0.49809183  0.62234224  1
  O  O201  1  0.75792632  0.98472316  0.12140280  1
  O  O202  1  0.74411529  1.01006801  0.63441793  1
  O  O203  1  0.00554069  0.37067602  0.25596060  1
  O  O204  1  0.00380853  0.36944753  0.76152390  1
  O  O205  1  0.00489235  0.87074595  0.25686374  1
  O  O206  1  0.00169800  0.86375770  0.76060109  1
  O  O207  1  0.50430394  0.37039765  0.25295795  1
  O  O208  1  0.49241375  0.37624103  0.76487847  1
  O  O209  1  0.51128968  0.86590090  0.25623064  1
  O  O210  1  0.51227102  0.85096612  0.73360416  1
  O  O211  1  0.49640184  0.12960998  0.24020124  1
  O  O212  1  0.49251170  0.13173306  0.74091423  1
  O  O213  1  0.49386320  0.63301809  0.25148614  1
  O  O214  1  0.49108049  0.62746609  0.73548552  1
  O  O215  1  0.99443568  0.13325262  0.24102280  1
  O  O216  1  1.00603975  0.13675677  0.76322754  1
  O  O217  1  0.99252569  0.62981987  0.24700912  1
  O  O218  1  1.00242946  0.64173854  0.75166696  1
  O  O219  1  0.37105737  0.25783855  0.00441849  1
  O  O220  1  0.38053836  0.26102623  0.50904556  1
  O  O221  1  0.36084894  0.73806302  0.01537474  1
  O  O222  1  0.36371742  0.75083779  0.50740764  1
  O  O223  1  0.86494520  0.26158234  -0.00140687  1
  O  O224  1  0.87907935  0.24654550  0.50499834  1
  O  O225  1  0.87299692  0.75973479  0.00655112  1
  O  O226  1  0.86194756  0.74820150  0.49947782  1
  O  O227  1  0.11877602  0.25164080  0.49782939  1
  O  O228  1  0.13645931  0.25409088  0.99546054  1
  O  O229  1  0.12815150  0.74178414  0.49783474  1
  O  O230  1  0.13245633  0.74578482  0.99173576  1
  O  O231  1  0.62113097  0.22889014  0.49520381  1
  O  O232  1  0.63531175  0.25294690  1.00195366  1
  O  O233  1  0.62516426  0.75191819  0.48494947  1
  O  O234  1  0.64118220  0.74273502  1.00375527  1
  O  O235  1  0.49055804  0.24258457  0.12657111  1
  O  O236  1  0.49120230  0.24321947  0.62550058  1
  O  O237  1  0.49250461  0.74971549  0.14049876  1
  O  O238  1  0.49169112  0.73466176  0.62774644  1
  O  O239  1  0.99905629  0.24309633  0.13378745  1
  O  O240  1  1.00102903  0.24801048  0.64124212  1
  O  O241  1  0.99750759  0.74695013  0.13337577  1
  O  O242  1  1.00260800  0.75392429  0.63571505  1
  O  O243  1  0.00299389  0.25999511  0.36164741  1
  O  O244  1  0.00360622  0.26009403  0.86951488  1
  O  O245  1  0.00648857  0.76425156  0.36880415  1
  O  O246  1  0.00795449  0.75716148  0.86839628  1
  O  O247  1  0.49974456  0.25481754  0.36517546  1
  O  O248  1  0.49787535  0.26803430  0.87453596  1
  O  O249  1  0.50688940  0.75556471  0.36887247  1
  O  O250  1  0.49904274  0.73751336  0.84944791  1
  O  O251  1  0.24773005  0.11814207  0.48359244  1
  O  O252  1  0.25250638  0.14076349  0.98914795  1
  O  O253  1  0.24141602  0.63128766  0.49507132  1
  O  O254  1  0.24611611  0.63319603  0.99239977  1
  O  O255  1  0.73592794  0.11927819  0.49749154  1
  O  O256  1  0.73821064  0.13198189  0.99639313  1
  O  O257  1  0.74746952  0.63725078  0.49739173  1
  O  O258  1  0.74600232  0.63600534  1.00980698  1
  O  O259  1  0.26246980  0.36559389  -0.00820715  1
  O  O260  1  0.25943710  0.38134412  0.50628902  1
  O  O261  1  0.24296298  0.85618849  0.01019887  1
  O  O262  1  0.24748238  0.86015765  0.49245983  1
  O  O263  1  0.75558519  0.37120332  0.00150510  1
  O  O264  1  0.71042670  0.36727681  0.52065205  1
  O  O265  1  0.76176204  0.86763453  0.00858553  1
  O  O266  1  0.75299922  0.86085926  0.50212770  1
  O  O267  1  0.12847542  0.49466583  0.24460682  1
  O  O268  1  0.12897216  0.49417628  0.74701238  1
  O  O269  1  0.13232957  0.99482008  0.24250773  1
  O  O270  1  0.13802877  0.99855663  0.74322058  1
  O  O271  1  0.63234947  0.49556117  0.24450604  1
  O  O272  1  0.61695761  0.50288255  0.74185054  1
  O  O273  1  0.62534591  0.98335409  0.25541677  1
  O  O274  1  0.63739233  1.00301346  0.74058834  1
  O  O275  1  0.36376698  0.00497341  0.25049309  1
  O  O276  1  0.36020031  0.01822082  0.74005992  1
  O  O277  1  0.36993351  0.50342529  0.25422300  1
  O  O278  1  0.36837052  0.50735410  0.75323128  1
  O  O279  1  0.88359804  0.01019189  0.25871104  1
  O  O280  1  0.86896491  -0.00267961  0.76276410  1
  O  O281  1  0.86556410  0.50999979  0.24261088  1
  O  O282  1  0.88534826  0.50224846  0.76863700  1
  O  O283  1  0.11477449  0.37633744  0.36172382  1
  O  O284  1  0.11621493  0.37208362  0.87139304  1
  O  O285  1  0.11702874  0.87118589  0.36980504  1
  O  O286  1  0.11857070  0.86294437  0.87386683  1
  O  O287  1  0.61450094  0.37303938  0.36582964  1
  O  O288  1  0.61278264  0.38079640  0.87665258  1
  O  O289  1  0.61860617  0.86613588  0.36415742  1
  O  O290  1  0.62302564  0.86548727  0.87156860  1
  O  O291  1  0.38401905  0.13476186  0.12801299  1
  O  O292  1  0.38070237  0.13431145  0.62835158  1
  O  O293  1  0.37571828  0.63540922  0.13469609  1
  O  O294  1  0.37487171  0.63005756  0.63523832  1
  O  O295  1  0.88462332  0.12308889  0.12903538  1
  O  O296  1  0.88703936  0.13851475  0.62360362  1
  O  O297  1  0.88454909  0.63384072  0.12743126  1
  O  O298  1  0.87470097  0.61528295  0.62575592  1
  O  O299  1  0.26356982  0.24271387  0.11537456  1
  O  O300  1  0.26017830  0.26278771  0.62993261  1
  O  O301  1  0.25436832  0.75207400  0.12268594  1
  O  O302  1  0.25614523  0.74498951  0.61554554  1
  O  O303  1  0.75336246  0.25871378  0.11336813  1
  O  O304  1  0.76654832  0.23734923  0.61335765  1
  O  O305  1  0.75946400  0.76137997  0.11857677  1
  O  O306  1  0.73448006  0.74798000  0.60752496  1
  O  O307  1  0.24799660  0.23567134  0.36795275  1
  O  O308  1  0.24719561  0.24598493  0.87995417  1
  O  O309  1  0.24245915  0.74327911  0.38296053  1
  O  O310  1  0.24588060  0.74769593  0.88154567  1
  O  O311  1  0.74594495  0.24560616  0.38067754  1
  O  O312  1  0.74946382  0.24111732  0.88233518  1
  O  O313  1  0.73685505  0.75149609  0.38392636  1
  O  O314  1  0.75788538  0.75680486  0.89023005  1
  O  O315  1  0.00187921  0.13544126  0.01282699  1
  O  O316  1  0.00776164  0.11087983  0.48538549  1
  O  O317  1  0.00431553  0.61952968  0.00901240  1
  O  O318  1  0.00639283  0.60797101  0.50192950  1
  O  O319  1  0.51427755  0.12436189  0.00192336  1
  O  O320  1  0.50584007  0.12160369  0.50742468  1
  O  O321  1  0.51100774  0.62460324  0.00411444  1
  O  O322  1  0.48510312  0.61702393  0.51139244  1
  O  O323  1  0.48804323  0.38236450  0.49459924  1
  O  O324  1  0.49201683  0.38326349  0.98960652  1
  O  O325  1  0.50024984  0.87353331  0.48907846  1
  O  O326  1  0.49249069  0.82816916  0.99248061  1
  O  O327  1  1.00179901  0.38510894  0.48253799  1
  O  O328  1  0.99407431  0.37757980  0.99315978  1
  O  O329  1  0.99920568  0.88475028  0.48855514  1
  O  O330  1  0.99126793  0.86787465  0.99037012  1
  O  O331  1  0.49013680  0.49361239  0.37905079  1
  O  O332  1  0.49312318  0.49423480  0.88084615  1
  O  O333  1  0.49684650  0.98769949  0.37453310  1
  O  O334  1  0.49769750  0.99434540  0.85066393  1
  O  O335  1  0.99836163  0.48917999  0.38061665  1
  O  O336  1  1.00082373  0.49239948  0.88319542  1
  O  O337  1  0.99650848  0.99135183  0.37997181  1
  O  O338  1  0.99502223  0.98874205  0.86764314  1
  O  O339  1  0.01228484  0.00974198  0.12997025  1
  O  O340  1  0.00475855  0.00036685  0.60841612  1
  O  O341  1  0.00904304  0.50492812  0.12148922  1
  O  O342  1  -0.00652955  0.48060973  0.60720658  1
  O  O343  1  0.49153108  0.01208399  0.12688720  1
  O  O344  1  0.51208104  0.01500050  0.63040623  1
  O  O345  1  0.50707002  0.50289782  0.11790179  1
  O  O346  1  0.48996575  0.51078608  0.61525528  1
  O  O347  1  0.23826846  0.38158210  0.25494584  1
  O  O348  1  0.24448662  0.37953374  0.74373832  1
  O  O349  1  0.24402390  0.88158893  0.24833101  1
  O  O350  1  0.25302768  0.88967239  0.75574382  1
  O  O351  1  0.74572195  0.38158467  0.24184067  1
  O  O352  1  0.74881445  0.40850675  0.75955258  1
  O  O353  1  0.73998447  0.86871116  0.24637787  1
  O  O354  1  0.74853958  0.88789782  0.74726200  1
  O  O355  1  0.25489094  0.11754595  0.25489845  1
  O  O356  1  0.25935824  0.12960415  0.75765090  1
  O  O357  1  0.25423850  0.61890717  0.25844405  1
  O  O358  1  0.25515480  0.62039408  0.75274005  1
  O  O359  1  0.76430945  0.13203489  0.24399951  1
  O  O360  1  0.74627966  0.11575646  0.76300033  1
  O  O361  1  0.75937336  0.61538394  0.24350010  1
  O  O362  1  0.74968571  0.59972856  0.74777269  1
  O  O363  1  0.36368989  0.12352695  0.36769438  1
  O  O364  1  0.37058361  0.12887147  0.86646275  1
  O  O365  1  0.36840484  0.61940100  0.37114142  1
  O  O366  1  0.36875113  0.62055687  0.85959666  1
  O  O367  1  0.87459687  0.11718792  0.36268884  1
  O  O368  1  0.86339874  0.11401420  0.88865897  1
  O  O369  1  0.87626010  0.62698020  0.36372625  1
  O  O370  1  0.88509255  0.61237574  0.87792133  1
  O  O371  1  0.11760922  0.38721669  0.13588668  1
  O  O372  1  0.13372930  0.37674373  0.63021918  1
  O  O373  1  0.12954194  0.88154652  0.13145121  1
  O  O374  1  0.12214461  0.89391717  0.62696776  1
  O  O375  1  0.62889716  0.38286800  0.12893610  1
  O  O376  1  0.65654863  0.36596455  0.58228900  1
  O  O377  1  0.63499559  0.86955303  0.14209567  1
  O  O378  1  0.62758544  0.89005857  0.62416956  1
  O  O379  1  0.11686722  0.25998322  0.24643922  1
  O  O380  1  0.11980097  0.25809746  0.75766481  1
  O  O381  1  0.11966461  0.75424734  0.25687655  1
  O  O382  1  0.11808547  0.75285370  0.75674656  1
  O  O383  1  0.61893341  0.25641801  0.24682219  1
  O  O384  1  0.63045013  0.25090549  0.74547392  1
  O  O385  1  0.61844198  0.75327987  0.25949283  1
  O  O386  1  0.61601590  0.73685694  0.74690399  1
  O  O387  1  0.38016514  0.24672931  0.23971073  1
  O  O388  1  0.37744299  0.24346096  0.73930564  1
  O  O389  1  0.38207487  0.74394616  0.24750264  1
  O  O390  1  0.38188608  0.74044345  0.74243490  1
  O  O391  1  0.88532930  0.24134888  0.24499094  1
  O  O392  1  0.88975905  0.24220003  0.74655942  1
  O  O393  1  0.87910907  0.74305598  0.24680866  1
  O  O394  1  0.88897404  0.74506798  0.75616143  1
  O  O395  1  0.37853699  0.49014963  0.49327164  1
  O  O396  1  0.37790870  0.49555858  0.99635588  1
  O  O397  1  0.37871160  0.99338892  0.49901971  1
  O  O398  1  0.33452958  0.99055796  0.99283578  1
  O  O399  1  0.88287659  0.50062655  0.49581430  1
  O  O400  1  0.88277801  0.49432211  0.99549017  1
  O  O401  1  0.88968760  1.00387758  0.48910931  1
  O  O402  1  0.87137636  0.98827154  0.98941236  1
  O  O403  1  0.14009108  0.00176695  0.01481736  1
  O  O404  1  0.11420053  0.00223267  0.50466400  1
  O  O405  1  0.12161233  0.49922765  0.00988312  1
  O  O406  1  0.11804398  0.50742551  0.50207202  1
  O  O407  1  0.63045050  0.00591321  -0.00092214  1
  O  O408  1  0.62157698  0.00743837  0.50706359  1
  O  O409  1  0.62170415  0.51023961  0.00584611  1
  O  O410  1  0.60383425  0.50359942  0.48998618  1
  O  O411  1  0.38336025  0.36595438  0.11221428  1
  O  O412  1  0.36872048  0.36915267  0.61809246  1
  O  O413  1  0.36756433  0.85956104  0.13733581  1
  O  O414  1  0.38123281  0.85786081  0.62830024  1
  O  O415  1  0.87151707  0.37730411  0.11111154  1
  O  O416  1  0.88021554  0.34552444  0.62788831  1
  O  O417  1  0.87334690  0.87125046  0.11991368  1
  O  O418  1  0.87085752  0.88169507  0.61987457  1
  O  O419  1  0.13835790  0.12647292  0.36894603  1
  O  O420  1  0.13698304  0.13262642  0.87913009  1
  O  O421  1  0.12772152  0.62949657  0.38461430  1
  O  O422  1  0.13154208  0.63706109  0.87382046  1
  O  O423  1  0.62556234  0.11932750  0.38447483  1
  O  O424  1  0.63577740  0.12131974  0.89039160  1
  O  O425  1  0.61875789  0.63860157  0.37226785  1
  O  O426  1  0.62289904  0.62943887  0.89162382  1
