# generated using pymatgen
data_V85Zn86O256
_symmetry_space_group_name_H-M   'P 1'
_cell_length_a   16.96515932
_cell_length_b   16.96561926
_cell_length_c   16.95509698
_cell_angle_alpha   89.94882887
_cell_angle_beta   89.95151554
_cell_angle_gamma   90.05560885
_symmetry_Int_Tables_number   1
_chemical_formula_structural   V85Zn86O256
_chemical_formula_sum   'V85 Zn86 O256'
_cell_volume   4880.08519114
_cell_formula_units_Z   1
loop_
 _symmetry_equiv_pos_site_id
 _symmetry_equiv_pos_as_xyz
  1  'x, y, z'
loop_
 _atom_site_type_symbol
 _atom_site_label
 _atom_site_symmetry_multiplicity
 _atom_site_fract_x
 _atom_site_fract_y
 _atom_site_fract_z
 _atom_site_occupancy
  V  V0  1  0.12613734  0.61937408  0.50231959  1
  V  V1  1  0.37272850  0.87214654  0.01027089  1
  V  V2  1  0.74578448  0.49600223  0.74740476  1
  V  V3  1  0.87618055  0.37084123  0.49944173  1
  V  V4  1  0.50123032  0.87457005  0.87320263  1
  V  V5  1  0.25105158  0.37809009  0.62533444  1
  V  V6  1  0.24857786  0.50256260  0.74811081  1
  V  V7  1  0.87661370  0.12499505  0.25231720  1
  V  V8  1  0.74581269  0.25325567  0.48976407  1
  V  V9  1  0.87452932  0.63138364  0.24715750  1
  V  V10  1  0.00329659  0.87497952  0.86779795  1
  V  V11  1  0.74951531  0.62370786  0.87505870  1
  V  V12  1  -0.01356959  0.13154641  0.62970004  1
  V  V13  1  0.12909131  -0.01253197  0.12793561  1
  V  V14  1  0.37730163  0.37680202  0.48537422  1
  V  V15  1  0.00258645  0.75674600  0.24912033  1
  V  V16  1  0.00176324  0.49527148  0.49763292  1
  V  V17  1  0.62058254  0.61874578  0.00374522  1
  V  V18  1  0.37429411  0.87502581  0.50200723  1
  V  V19  1  0.12371016  0.49942080  0.12769058  1
  V  V20  1  0.24917106  0.12228477  0.37476563  1
  V  V21  1  -0.00427285  0.63177359  0.12510711  1
  V  V22  1  0.12582466  0.37634528  0.74789457  1
  V  V23  1  0.12649163  0.75546240  0.86754182  1
  V  V24  1  0.87440297  -0.00693060  0.37929386  1
  V  V25  1  0.26042555  0.49973065  0.25236118  1
  V  V26  1  0.37118513  0.24847433  0.11562063  1
  V  V27  1  0.12375035  0.75366641  0.37333718  1
  V  V28  1  0.37400294  0.12449973  0.24737688  1
  V  V29  1  0.75697087  0.13025455  0.87171212  1
  V  V30  1  0.12527904  0.62774329  -0.00020627  1
  V  V31  1  0.38173247  0.50119706  0.88466838  1
  V  V32  1  0.24539275  -0.01233598  0.24582668  1
  V  V33  1  0.62388460  0.13261481  0.49281710  1
  V  V34  1  0.74769713  0.37205349  0.12097751  1
  V  V35  1  0.48634972  0.62075697  0.12411080  1
  V  V36  1  0.75339508  0.75487823  0.01480816  1
  V  V37  1  0.24651271  0.87200992  0.62965110  1
  V  V38  1  0.38531831  0.62631763  0.74371781  1
  V  V39  1  0.74543774  0.49976325  0.24722974  1
  V  V40  1  0.87036523  0.24761943  0.11830523  1
  V  V41  1  0.37968535  0.24894565  0.63719999  1
  V  V42  1  0.25816848  0.61883047  0.36982369  1
  V  V43  1  0.00322299  0.61498155  0.62410867  1
  V  V44  1  0.49638401  0.49989911  0.47734532  1
  V  V45  1  0.50353284  0.25503612  0.26089782  1
  V  V46  1  0.62477942  -0.00219615  0.12371195  1
  V  V47  1  0.11690052  0.25215743  0.37555916  1
  V  V48  1  0.00200558  0.12611237  0.12627585  1
  V  V49  1  0.62430449  0.24995083  0.86841525  1
  V  V50  1  -0.00350112  -0.00718629  0.50117445  1
  V  V51  1  0.48752015  0.74816464  0.24204956  1
  V  V52  1  0.13338302  0.12900213  0.00160900  1
  V  V53  1  -0.00358617  0.50094712  0.00068553  1
  V  V54  1  0.87840539  0.00540985  0.86662327  1
  V  V55  1  0.49742282  0.13198342  0.63617174  1
  V  V56  1  0.25204713  0.25006749  0.50113033  1
  V  V57  1  0.87681152  0.62221190  0.74864315  1
  V  V58  1  0.25599146  0.12684598  0.87031403  1
  V  V59  1  0.87602853  0.75397386  0.61960688  1
  V  V60  1  0.25175611  0.62767695  0.87538646  1
  V  V61  1  0.62782812  0.87204596  0.24468905  1
  V  V62  1  0.74884608  0.36997026  0.62168797  1
  V  V63  1  0.11735191  0.37494964  0.25491679  1
  V  V64  1  0.63164201  0.87689786  0.74913165  1
  V  V65  1  0.12573354  0.12305317  0.50716409  1
  V  V66  1  0.75112605  0.75569939  0.50046548  1
  V  V67  1  0.24480985  -0.00438511  0.75034257  1
  V  V68  1  0.50175013  -0.00022868  -0.00091410  1
  V  V69  1  0.50133880  0.37280036  0.87804647  1
  V  V70  1  0.00243937  -0.00161051  -0.00124276  1
  V  V71  1  0.24803313  0.37030410  0.11815299  1
  V  V72  1  0.74988802  -0.00418315  0.24915126  1
  V  V73  1  0.37689356  0.00237389  0.86829834  1
  V  V74  1  0.63665654  0.13086659  0.00035589  1
  V  V75  1  0.61425181  0.50503599  0.61914821  1
  V  V76  1  0.74858196  0.62503444  0.38144427  1
  V  V77  1  0.62370820  0.74632900  0.37639662  1
  V  V78  1  0.13194973  0.25170757  0.87886123  1
  V  V79  1  0.62640975  0.00348111  0.62557367  1
  V  V80  1  0.25337896  0.75467466  0.01223409  1
  V  V81  1  0.87942945  0.49620127  0.37380410  1
  V  V82  1  0.49822941  0.00327955  0.49643788  1
  V  V83  1  0.62645797  0.74989636  0.87460815  1
  V  V84  1  0.00158688  0.37568144  0.87812950  1
  Zn  Zn85  1  0.49711599  0.87293243  0.37304133  1
  Zn  Zn86  1  0.50654601  0.74718806  0.73892240  1
  Zn  Zn87  1  -0.01616573  0.23709884  0.75562510  1
  Zn  Zn88  1  0.50225935  0.12976451  0.12192515  1
  Zn  Zn89  1  0.86829402  0.36966278  -0.00183966  1
  Zn  Zn90  1  0.75914198  0.88198877  0.61905552  1
  Zn  Zn91  1  0.87284644  0.49801947  0.87560244  1
  Zn  Zn92  1  -0.00535121  0.25630247  0.25480105  1
  Zn  Zn93  1  0.75929716  0.00728360  0.74539779  1
  Zn  Zn94  1  0.25182641  0.74645597  0.50072878  1
  Zn  Zn95  1  0.38087658  0.37665419  0.00267026  1
  Zn  Zn96  1  0.55907373  0.66618479  0.56030512  1
  Zn  Zn97  1  0.61597630  0.49280277  0.12070672  1
  Zn  Zn98  1  0.62173003  0.37014377  0.25961061  1
  Zn  Zn99  1  0.12153976  -0.00711900  0.63000305  1
  Zn  Zn100  1  0.00082034  0.87436484  0.37521873  1
  Zn  Zn101  1  0.00454174  0.75175785  0.74488818  1
  Zn  Zn102  1  0.37241267  -0.00280977  0.37235382  1
  Zn  Zn103  1  0.61234401  0.36723780  0.74159556  1
  Zn  Zn104  1  0.38308871  0.74563857  0.61986534  1
  Zn  Zn105  1  0.74629167  0.12720502  0.37253395  1
  Zn  Zn106  1  0.87420470  0.86820116  0.00869453  1
  Zn  Zn107  1  0.18689959  0.18687216  0.18925842  1
  Zn  Zn108  1  0.18940710  0.19089297  0.69211728  1
  Zn  Zn109  1  0.18514730  0.68635740  0.19045086  1
  Zn  Zn110  1  0.19221994  0.68781416  0.68505248  1
  Zn  Zn111  1  0.68787383  0.18518232  0.18670189  1
  Zn  Zn112  1  0.69046643  0.18733773  0.68614071  1
  Zn  Zn113  1  0.68150731  0.68321467  0.18812228  1
  Zn  Zn114  1  0.69289722  0.68760763  0.68859838  1
  Zn  Zn115  1  0.30668597  0.30875918  0.30468618  1
  Zn  Zn116  1  0.31491419  0.31538739  0.81694145  1
  Zn  Zn117  1  0.31008883  0.80950622  0.31790518  1
  Zn  Zn118  1  0.31540960  0.81198870  0.81537322  1
  Zn  Zn119  1  0.80886293  0.31472542  0.31087252  1
  Zn  Zn120  1  0.81109234  0.30572601  0.81439955  1
  Zn  Zn121  1  0.81277107  0.81275085  0.31183634  1
  Zn  Zn122  1  0.81701843  0.81456094  0.81576449  1
  Zn  Zn123  1  0.18910680  0.43673180  0.43711068  1
  Zn  Zn124  1  0.18859975  0.44307874  0.93692723  1
  Zn  Zn125  1  0.18726749  0.93755056  0.44050433  1
  Zn  Zn126  1  0.18966572  0.93658181  0.93934886  1
  Zn  Zn127  1  0.68267408  0.43903850  0.43451296  1
  Zn  Zn128  1  0.68420661  0.43518567  0.93623490  1
  Zn  Zn129  1  0.68495077  0.93749753  0.43355388  1
  Zn  Zn130  1  0.69243003  0.94009220  0.93621250  1
  Zn  Zn131  1  0.31278015  0.05749306  0.06115388  1
  Zn  Zn132  1  0.31464412  0.06263772  0.56843928  1
  Zn  Zn133  1  0.30699362  0.56307631  0.06491022  1
  Zn  Zn134  1  0.31713141  0.55909436  0.55881535  1
  Zn  Zn135  1  0.82221334  0.03915751  0.06947823  1
  Zn  Zn136  1  0.81151218  0.06769993  0.55997680  1
  Zn  Zn137  1  0.80896853  0.56480897  0.06272411  1
  Zn  Zn138  1  0.81279332  0.55942977  0.56408012  1
  Zn  Zn139  1  0.43725165  0.43325114  0.18727036  1
  Zn  Zn140  1  0.43421123  0.43366319  0.69098049  1
  Zn  Zn141  1  0.43936536  0.93901662  0.18963702  1
  Zn  Zn142  1  0.43941012  0.93838962  0.68678365  1
  Zn  Zn143  1  0.93307129  0.43829604  0.18566170  1
  Zn  Zn144  1  0.91722552  0.40248381  0.70485087  1
  Zn  Zn145  1  0.93541133  0.93515060  0.18227571  1
  Zn  Zn146  1  0.94297730  0.93904978  0.68558526  1
  Zn  Zn147  1  0.06286912  0.06000585  0.31343121  1
  Zn  Zn148  1  0.06710323  0.06321027  0.81176900  1
  Zn  Zn149  1  0.06578296  0.56478630  0.31293367  1
  Zn  Zn150  1  0.06486681  0.56322400  0.81274875  1
  Zn  Zn151  1  0.55996404  0.06499796  0.31059175  1
  Zn  Zn152  1  0.56688426  0.06396474  0.81482292  1
  Zn  Zn153  1  0.56081546  0.56693837  0.30616223  1
  Zn  Zn154  1  0.56295729  0.55769052  0.81440784  1
  Zn  Zn155  1  0.43451943  0.18855931  0.44255004  1
  Zn  Zn156  1  0.44443988  0.18600136  0.93561389  1
  Zn  Zn157  1  0.43563959  0.68802864  0.43121672  1
  Zn  Zn158  1  0.43720061  0.68849795  0.93815198  1
  Zn  Zn159  1  0.93496763  0.18370720  0.44229178  1
  Zn  Zn160  1  0.94160741  0.18534062  0.93789143  1
  Zn  Zn161  1  0.93732245  0.68595634  0.43681746  1
  Zn  Zn162  1  0.93569905  0.68940189  0.93566592  1
  Zn  Zn163  1  0.06123324  0.31025246  0.06610989  1
  Zn  Zn164  1  0.06303881  0.31229450  0.56347612  1
  Zn  Zn165  1  0.06447480  0.81113954  0.05725231  1
  Zn  Zn166  1  0.06495385  0.80625258  0.56205184  1
  Zn  Zn167  1  0.56111720  0.31033987  0.06509872  1
  Zn  Zn168  1  0.55938919  0.31630058  0.55533868  1
  Zn  Zn169  1  0.56169648  0.81005063  0.06063083  1
  Zn  Zn170  1  0.56467644  0.82487242  0.56185995  1
  O  O171  1  0.12204527  0.12394924  0.11618591  1
  O  O172  1  0.12768223  0.12445357  0.61379509  1
  O  O173  1  0.11439293  0.61908501  0.12073080  1
  O  O174  1  0.11738082  0.63012679  0.61383911  1
  O  O175  1  0.62425041  0.11681435  0.11628874  1
  O  O176  1  0.61944392  0.11941270  0.61599135  1
  O  O177  1  0.61640366  0.62083864  0.11721976  1
  O  O178  1  0.63182300  0.61015380  0.62655087  1
  O  O179  1  0.36093602  0.36802317  0.38724418  1
  O  O180  1  0.38066392  0.38238674  0.88057294  1
  O  O181  1  0.37615127  0.87813944  0.38769366  1
  O  O182  1  0.38293971  0.88407976  0.88066750  1
  O  O183  1  0.86876643  0.38784464  0.38298429  1
  O  O184  1  0.88820368  0.37809977  0.88151362  1
  O  O185  1  0.87723992  0.88902420  0.37058370  1
  O  O186  1  0.88477607  0.88438830  0.88251097  1
  O  O187  1  0.24617199  0.00997969  0.36753143  1
  O  O188  1  0.25738685  0.00450476  0.86871915  1
  O  O189  1  0.24337861  0.51143673  0.36803544  1
  O  O190  1  0.25854484  0.50635451  0.86722660  1
  O  O191  1  0.75601418  0.00246043  0.36733767  1
  O  O192  1  0.76270091  0.00777645  0.87338854  1
  O  O193  1  0.75810525  0.50924229  0.36869698  1
  O  O194  1  0.74931155  0.50374997  0.86449698  1
  O  O195  1  0.24235196  0.49405807  0.13347445  1
  O  O196  1  0.25885090  0.48886152  0.63499243  1
  O  O197  1  0.24039869  1.00586519  0.13392629  1
  O  O198  1  0.25110536  0.99261035  0.63492965  1
  O  O199  1  0.75104863  0.49398771  0.13434351  1
  O  O200  1  0.73829977  0.49325606  0.62707091  1
  O  O201  1  0.73242304  1.00806275  0.13893299  1
  O  O202  1  0.74152584  1.00163580  0.62491356  1
  O  O203  1  0.01256692  0.37714352  0.24667705  1
  O  O204  1  0.01757284  0.39041614  0.76393064  1
  O  O205  1  -0.00849982  0.86051944  0.24749861  1
  O  O206  1  -0.00102577  0.87194773  0.76313042  1
  O  O207  1  0.49859490  0.35874783  0.24758323  1
  O  O208  1  0.49934668  0.37952646  0.76816411  1
  O  O209  1  0.50816507  0.86450504  0.25097118  1
  O  O210  1  0.51346173  0.87353877  0.75366084  1
  O  O211  1  0.48637999  0.12844582  0.24752407  1
  O  O212  1  0.50652072  0.11981679  0.73491615  1
  O  O213  1  0.50266777  0.63913405  0.23826541  1
  O  O214  1  0.48801949  0.62321879  0.75314416  1
  O  O215  1  0.98924079  0.12272488  0.24545673  1
  O  O216  1  1.00871804  0.12451925  0.73471689  1
  O  O217  1  0.99324934  0.63101375  0.24329939  1
  O  O218  1  0.99297133  0.62131493  0.74187399  1
  O  O219  1  0.37907529  0.24691475  0.01263030  1
  O  O220  1  0.36902012  0.25889114  0.50826782  1
  O  O221  1  0.36520025  0.75995984  -0.00854314  1
  O  O222  1  0.37471470  0.76096940  0.49881299  1
  O  O223  1  0.88030862  0.24774758  0.01447726  1
  O  O224  1  0.86646898  0.26278014  0.49416921  1
  O  O225  1  0.85883191  0.74875018  -0.00252697  1
  O  O226  1  0.86639975  0.74355169  0.50849772  1
  O  O227  1  0.13149023  0.24353732  0.49428562  1
  O  O228  1  0.12091460  0.24111092  0.99092361  1
  O  O229  1  0.12725964  0.73627707  0.49183829  1
  O  O230  1  0.13303465  0.74582978  0.98995475  1
  O  O231  1  0.63145936  0.24179769  0.50324482  1
  O  O232  1  0.62352228  0.23658048  0.99421925  1
  O  O233  1  0.62814821  0.74726853  0.49155519  1
  O  O234  1  0.63368230  0.74206393  0.99268197  1
  O  O235  1  0.48711126  0.24702780  0.13428878  1
  O  O236  1  0.49242229  0.24396077  0.61847617  1
  O  O237  1  0.50352970  0.74293047  0.13628384  1
  O  O238  1  0.50295144  0.74754079  0.62121073  1
  O  O239  1  0.99038274  0.24351819  0.13082674  1
  O  O240  1  1.00527246  0.23349151  0.62330368  1
  O  O241  1  1.00673770  0.73918003  0.13090082  1
  O  O242  1  0.99286817  0.73806775  0.62457848  1
  O  O243  1  0.01308607  0.24231182  0.37677217  1
  O  O244  1  0.01094874  0.25959755  0.87446771  1
  O  O245  1  0.00525996  0.75072555  0.36821365  1
  O  O246  1  0.00796083  0.75770452  0.87546783  1
  O  O247  1  0.49033223  0.24291703  0.35963279  1
  O  O248  1  0.51272483  0.25575848  0.87702325  1
  O  O249  1  0.50906887  0.74642034  0.36199670  1
  O  O250  1  0.51501424  0.75418244  0.87440919  1
  O  O251  1  0.24458747  0.12714967  0.49360312  1
  O  O252  1  0.23960898  0.11628090  0.98792768  1
  O  O253  1  0.24301023  0.61955737  0.49054624  1
  O  O254  1  0.24476269  0.63310274  0.99467073  1
  O  O255  1  0.74156465  0.13672040  0.49983248  1
  O  O256  1  0.74168569  0.11229080  0.99068986  1
  O  O257  1  0.75449709  0.63167837  0.48721537  1
  O  O258  1  0.74224158  0.63435187  0.99546010  1
  O  O259  1  0.24669801  0.38107031  0.01541062  1
  O  O260  1  0.25472968  0.37293236  0.50945503  1
  O  O261  1  0.26044526  0.86692920  -0.00492835  1
  O  O262  1  0.26044396  0.87674387  0.50882904  1
  O  O263  1  0.75128548  0.38474598  0.01569212  1
  O  O264  1  0.75440813  0.37083855  0.50339274  1
  O  O265  1  0.74538101  0.85675436  -0.00517794  1
  O  O266  1  0.74412050  0.86044792  0.49943568  1
  O  O267  1  0.12969896  0.49251928  0.24688966  1
  O  O268  1  0.14058569  0.49311542  0.75737864  1
  O  O269  1  0.13315932  1.00743744  0.24002521  1
  O  O270  1  0.13985573  0.99796917  0.75000613  1
  O  O271  1  0.63904561  0.50335203  0.24816369  1
  O  O272  1  0.63367862  0.49938210  0.74050985  1
  O  O273  1  0.62864692  0.99272639  0.24655701  1
  O  O274  1  0.62673854  0.99364184  0.74050373  1
  O  O275  1  0.36726996  0.00901241  0.25006613  1
  O  O276  1  0.36947969  -0.00324285  0.76257651  1
  O  O277  1  0.35907085  0.49178699  0.24864328  1
  O  O278  1  0.36737583  0.50925352  0.75877616  1
  O  O279  1  0.86782670  0.00701010  0.25749170  1
  O  O280  1  0.87816755  -0.00318028  0.76199170  1
  O  O281  1  0.86872893  0.50850103  0.25647416  1
  O  O282  1  0.86406457  0.50598219  0.74715106  1
  O  O283  1  0.13341832  0.36328394  0.36713108  1
  O  O284  1  0.12368065  0.36939689  0.87134501  1
  O  O285  1  0.12438221  0.85807531  0.38418854  1
  O  O286  1  0.11703845  0.86609355  0.88124523  1
  O  O287  1  0.63290870  0.36869517  0.36936437  1
  O  O288  1  0.62003203  0.36598984  0.87329785  1
  O  O289  1  0.62178307  0.86373327  0.36544464  1
  O  O290  1  0.62263820  0.86999632  0.86756273  1
  O  O291  1  0.37179127  0.13016036  0.13258218  1
  O  O292  1  0.38509066  0.13656793  0.61856478  1
  O  O293  1  0.38726429  0.62449794  0.11919136  1
  O  O294  1  0.37163485  0.62276659  0.64037681  1
  O  O295  1  0.87890466  0.12799010  0.13357533  1
  O  O296  1  0.88725017  0.12496046  0.62448017  1
  O  O297  1  0.88474944  0.61928872  0.13523407  1
  O  O298  1  0.88146138  0.63044496  0.63078780  1
  O  O299  1  0.25809305  0.25962100  0.13372919  1
  O  O300  1  0.25766348  0.25753586  0.62095199  1
  O  O301  1  0.24239436  0.74445607  0.11132013  1
  O  O302  1  0.25850485  0.75783864  0.62183106  1
  O  O303  1  0.75929526  0.25933723  0.13374982  1
  O  O304  1  0.74323467  0.26369963  0.61416006  1
  O  O305  1  0.74469978  0.74639559  0.11387777  1
  O  O306  1  0.75761796  0.74887121  0.61532620  1
  O  O307  1  0.24076029  0.23834691  0.37910041  1
  O  O308  1  0.24182570  0.24184861  0.87043414  1
  O  O309  1  0.24100435  0.73577824  0.37499573  1
  O  O310  1  0.24277082  0.74621522  0.88047108  1
  O  O311  1  0.75254209  0.24697003  0.38548518  1
  O  O312  1  0.74237699  0.24215489  0.87798893  1
  O  O313  1  0.74468299  0.74448339  0.38087288  1
  O  O314  1  0.73995459  0.74317814  0.87625288  1
  O  O315  1  0.01409496  0.11759318  0.00303907  1
  O  O316  1  0.00676703  0.11765953  0.51096624  1
  O  O317  1  0.00300589  0.62105613  0.00656496  1
  O  O318  1  0.00609723  0.61701929  0.50469938  1
  O  O319  1  0.51348219  0.11508645  -0.00083741  1
  O  O320  1  0.50642078  0.11946898  0.50671759  1
  O  O321  1  0.50765978  0.63586773  0.01489695  1
  O  O322  1  0.49106503  0.60717640  0.49319643  1
  O  O323  1  0.49026491  0.38883334  0.49946495  1
  O  O324  1  0.50077861  0.37272576  0.98693438  1
  O  O325  1  0.49298809  0.88729844  0.49813170  1
  O  O326  1  0.49566706  0.87907742  0.99234443  1
  O  O327  1  0.99142073  0.38509023  0.50839913  1
  O  O328  1  1.00438374  0.38449601  0.99302611  1
  O  O329  1  1.00539684  0.88969841  0.50373668  1
  O  O330  1  0.99978692  0.88534903  0.99171914  1
  O  O331  1  0.50361041  0.49965615  0.37873708  1
  O  O332  1  0.48980138  0.49343509  0.87497451  1
  O  O333  1  0.49790206  0.99975401  0.38646482  1
  O  O334  1  0.49486733  0.99608764  0.87819997  1
  O  O335  1  0.98898458  0.50845563  0.38332444  1
  O  O336  1  1.00286730  0.49390149  0.88591548  1
  O  O337  1  0.99371667  0.99789495  0.38301051  1
  O  O338  1  1.00133473  0.99473440  0.87903227  1
  O  O339  1  0.01103170  0.00794637  0.11705813  1
  O  O340  1  0.00364104  0.01083987  0.61898867  1
  O  O341  1  0.00345057  0.50859865  0.11872296  1
  O  O342  1  -0.00620126  0.51173710  0.61215441  1
  O  O343  1  0.51130791  0.00375592  0.12073995  1
  O  O344  1  0.50729365  0.00813430  0.61609257  1
  O  O345  1  0.50028077  0.51567165  0.13607104  1
  O  O346  1  0.51384985  0.49691283  0.63059916  1
  O  O347  1  0.23845195  0.38141314  0.24157109  1
  O  O348  1  0.24533942  0.38243999  0.74562365  1
  O  O349  1  0.25531208  0.88928176  0.25720729  1
  O  O350  1  0.25959130  0.88222235  0.74097323  1
  O  O351  1  0.75340138  0.38608930  0.23967539  1
  O  O352  1  0.74852389  0.38498084  0.73990512  1
  O  O353  1  0.74048620  0.88474223  0.25468743  1
  O  O354  1  0.73999966  0.87807107  0.74914050  1
  O  O355  1  0.25656938  0.12022515  0.25802822  1
  O  O356  1  0.24667518  0.11555274  0.76269334  1
  O  O357  1  0.24233526  0.61565046  0.26195742  1
  O  O358  1  0.25833190  0.61841673  0.75486197  1
  O  O359  1  0.75845523  0.11548348  0.25209445  1
  O  O360  1  0.74583858  0.12331012  0.76462408  1
  O  O361  1  0.75784771  0.62040537  0.25607321  1
  O  O362  1  0.75809394  0.61547641  0.75321100  1
  O  O363  1  0.36293083  0.12397690  0.36861321  1
  O  O364  1  0.36659958  0.11498248  0.88397721  1
  O  O365  1  0.35635981  0.62740297  0.37530048  1
  O  O366  1  0.37212707  0.61925449  0.86703247  1
  O  O367  1  0.87447262  0.11605228  0.36654655  1
  O  O368  1  0.86913376  0.12258988  0.87485342  1
  O  O369  1  0.86772534  0.61769525  0.36666788  1
  O  O370  1  0.87101103  0.62142590  0.86415513  1
  O  O371  1  0.12975530  0.37764005  0.13353945  1
  O  O372  1  0.13833916  0.36758227  0.63590503  1
  O  O373  1  0.12089905  0.88865355  0.11969429  1
  O  O374  1  0.14092892  0.87389271  0.61852882  1
  O  O375  1  0.63285345  0.37531724  0.13330009  1
  O  O376  1  0.63105794  0.38620596  0.62385565  1
  O  O377  1  0.61920922  0.88317041  0.13501667  1
  O  O378  1  0.62995874  0.88750162  0.63179478  1
  O  O379  1  0.12231344  0.25638271  0.25878725  1
  O  O380  1  0.12326416  0.26154361  0.76110943  1
  O  O381  1  0.11284740  0.74104812  0.26093035  1
  O  O382  1  0.12445903  0.74206535  0.76310547  1
  O  O383  1  0.60569455  0.24032695  0.24547996  1
  O  O384  1  0.63065468  0.25147630  0.76248682  1
  O  O385  1  0.62231382  0.75767768  0.25641313  1
  O  O386  1  0.62748398  0.75683646  0.75681961  1
  O  O387  1  0.37943007  0.24069848  0.24178688  1
  O  O388  1  0.37010667  0.25559337  0.73640937  1
  O  O389  1  0.38948222  0.75628468  0.25312550  1
  O  O390  1  0.37975570  0.73527066  0.75187010  1
  O  O391  1  0.87523303  0.23978661  0.24572605  1
  O  O392  1  0.89035472  0.29372823  0.73861328  1
  O  O393  1  0.88291137  0.73778345  0.25693139  1
  O  O394  1  0.87454597  0.73570901  0.74282720  1
  O  O395  1  0.38816554  0.49127888  0.50018368  1
  O  O396  1  0.36677590  0.50063859  0.98780475  1
  O  O397  1  0.38359078  0.99494000  0.50048436  1
  O  O398  1  0.38076860  0.99258270  0.99015462  1
  O  O399  1  0.88103872  0.49583884  0.49058437  1
  O  O400  1  0.88759491  0.50139768  0.99957152  1
  O  O401  1  0.88350192  1.00887523  0.49036827  1
  O  O402  1  0.89565096  1.01423628  0.98072020  1
  O  O403  1  0.11987028  0.00779826  0.00522318  1
  O  O404  1  0.11660526  0.01008274  0.50032812  1
  O  O405  1  0.11618924  0.50775399  0.00580617  1
  O  O406  1  0.11404862  0.50761751  0.49181568  1
  O  O407  1  0.62232123  0.00247914  0.00698968  1
  O  O408  1  0.61856559  0.00568813  0.50797269  1
  O  O409  1  0.62785502  0.51478637  -0.00055633  1
  O  O410  1  0.60910173  0.49781552  0.50927967  1
  O  O411  1  0.36558970  0.36688607  0.12251354  1
  O  O412  1  0.36699634  0.36876405  0.61874410  1
  O  O413  1  0.38261164  0.88097821  0.10920484  1
  O  O414  1  0.37016669  0.87452872  0.61639020  1
  O  O415  1  0.86875038  0.36519542  0.12343275  1
  O  O416  1  0.85917139  0.39021292  0.60677389  1
  O  O417  1  0.86088653  0.92846539  0.10209703  1
  O  O418  1  0.87549788  0.85884820  0.63446946  1
  O  O419  1  0.13113644  0.13053709  0.38462355  1
  O  O420  1  0.13271906  0.13312923  0.88126251  1
  O  O421  1  0.12950669  0.63237617  0.38471557  1
  O  O422  1  0.13016916  0.63276299  0.88089908  1
  O  O423  1  0.62612191  0.11711389  0.38943124  1
  O  O424  1  0.63374359  0.13073110  0.88147183  1
  O  O425  1  0.63646233  0.63689623  0.36535366  1
  O  O426  1  0.62798566  0.63162519  0.88078905  1
