# generated using pymatgen
data_V85Zn86O256
_symmetry_space_group_name_H-M   'P 1'
_cell_length_a   16.99217889
_cell_length_b   16.98017202
_cell_length_c   16.96269453
_cell_angle_alpha   90.03434613
_cell_angle_beta   89.90038026
_cell_angle_gamma   90.09966226
_symmetry_Int_Tables_number   1
_chemical_formula_structural   V85Zn86O256
_chemical_formula_sum   'V85 Zn86 O256'
_cell_volume   4894.23262536
_cell_formula_units_Z   1
loop_
 _symmetry_equiv_pos_site_id
 _symmetry_equiv_pos_as_xyz
  1  'x, y, z'
loop_
 _atom_site_type_symbol
 _atom_site_label
 _atom_site_symmetry_multiplicity
 _atom_site_fract_x
 _atom_site_fract_y
 _atom_site_fract_z
 _atom_site_occupancy
  V  V0  1  0.24735782  0.86850345  0.61957642  1
  V  V1  1  0.24854719  0.24995294  0.50060225  1
  V  V2  1  0.24827181  -0.00183343  0.74882772  1
  V  V3  1  0.74782527  -0.00164785  0.74654804  1
  V  V4  1  0.24314188  0.12258786  0.88266185  1
  V  V5  1  0.87540567  0.24844803  0.62488080  1
  V  V6  1  0.62635160  0.25678666  0.86864590  1
  V  V7  1  0.61777090  0.12716494  0.49835691  1
  V  V8  1  0.50103245  0.00055843  -0.00218354  1
  V  V9  1  0.37227330  0.74822170  0.62064555  1
  V  V10  1  0.61895123  -0.00261208  0.61073974  1
  V  V11  1  0.75990148  0.75422560  0.49848675  1
  V  V12  1  0.75404929  0.37094309  0.12378907  1
  V  V13  1  0.85394476  0.75055580  0.11939694  1
  V  V14  1  0.12177131  0.37410826  0.75216067  1
  V  V15  1  -0.00338714  0.86916578  0.87403090  1
  V  V16  1  0.00592209  0.74491645  0.23581769  1
  V  V17  1  0.37813358  -0.00414771  0.87204716  1
  V  V18  1  0.24667378  0.00267847  0.24708755  1
  V  V19  1  0.12336957  0.24463347  0.88205283  1
  V  V20  1  0.37432837  0.25116818  0.62618822  1
  V  V21  1  0.38056899  0.87427900  -0.00389971  1
  V  V22  1  0.75053190  0.25040605  0.49898857  1
  V  V23  1  0.12099936  0.50039356  0.62757830  1
  V  V24  1  0.24837276  0.49884556  0.75223575  1
  V  V25  1  0.24810969  0.37484279  0.62649421  1
  V  V26  1  0.50824620  0.25859341  0.25360545  1
  V  V27  1  -0.00008966  0.50073342  0.50074983  1
  V  V28  1  0.87607122  0.49390621  0.87950504  1
  V  V29  1  0.13120825  0.63219143  0.49293239  1
  V  V30  1  0.62395124  0.49663073  0.63085777  1
  V  V31  1  0.60974731  0.74335359  0.37156709  1
  V  V32  1  0.75150591  0.63064684  0.87807154  1
  V  V33  1  0.49860984  0.89010630  0.37851064  1
  V  V34  1  0.37547440  0.37617434  0.49916172  1
  V  V35  1  0.74869718  0.37421463  0.62968855  1
  V  V36  1  0.87783106  0.63606814  0.74747649  1
  V  V37  1  0.37380438  0.49977252  0.87881993  1
  V  V38  1  0.62367542  0.12440891  -0.00139276  1
  V  V39  1  0.87631591  0.12268141  0.25042698  1
  V  V40  1  0.37349150  0.12546470  0.74989448  1
  V  V41  1  0.87618397  -0.00393025  0.37351930  1
  V  V42  1  0.12429077  0.00246433  0.62054004  1
  V  V43  1  0.37719961  0.62691689  0.25543591  1
  V  V44  1  0.61938673  0.75299009  0.87253711  1
  V  V45  1  0.63047938  0.62644763  0.00174761  1
  V  V46  1  0.50137207  0.37620380  0.87392246  1
  V  V47  1  0.49829393  0.12357512  0.12345852  1
  V  V48  1  0.74809459  0.49016116  0.25211478  1
  V  V49  1  -0.00475264  0.63997349  0.62850538  1
  V  V50  1  -0.00233952  -0.00486760  0.49879701  1
  V  V51  1  0.75623611  0.25458591  -0.00147355  1
  V  V52  1  0.37326041  0.62626001  0.75199842  1
  V  V53  1  0.01573692  0.23366964  0.23344709  1
  V  V54  1  0.12649810  0.38074496  0.24750939  1
  V  V55  1  0.00079913  0.86649492  0.37547024  1
  V  V56  1  0.50146377  0.49378310  0.49638244  1
  V  V57  1  0.75886242  0.87340623  0.61629053  1
  V  V58  1  0.01558619  0.00902759  0.01223542  1
  V  V59  1  0.75033250  0.12457666  0.87204649  1
  V  V60  1  0.12610270  0.25163055  0.37994531  1
  V  V61  1  0.50215943  0.25129306  0.74720537  1
  V  V62  1  0.50287207  0.62537281  0.12977519  1
  V  V63  1  -0.00034717  0.24963939  0.74928500  1
  V  V64  1  0.62559097  0.49115187  0.12797063  1
  V  V65  1  0.24446525  0.12644841  0.37893901  1
  V  V66  1  0.37435621  0.49755276  0.37591108  1
  V  V67  1  0.00271028  0.12469863  0.61820088  1
  V  V68  1  0.74803201  0.49838359  0.75215779  1
  V  V69  1  0.75134248  0.62297737  0.37537668  1
  V  V70  1  0.24252121  0.74598242  -0.00114142  1
  V  V71  1  0.37490029  0.12796268  0.24904855  1
  V  V72  1  0.62472206  0.62392235  0.50422292  1
  V  V73  1  0.75017751  0.12050670  0.37691253  1
  V  V74  1  0.87816913  0.24660875  0.12226688  1
  V  V75  1  0.38174287  0.75119971  0.12830711  1
  V  V76  1  0.24979855  0.50561487  0.25555628  1
  V  V77  1  0.87644782  0.49905624  0.37316279  1
  V  V78  1  -0.00537370  0.50956535  0.00705545  1
  V  V79  1  -0.00051483  0.37312049  0.37172373  1
  V  V80  1  0.87656488  -0.00198914  0.87772651  1
  V  V81  1  0.24762199  0.88057959  0.12514060  1
  V  V82  1  0.12415710  0.52035373  0.12017021  1
  V  V83  1  0.12935192  0.87308200  0.25663901  1
  V  V84  1  0.11796793  0.86503676  0.75013733  1
  Zn  Zn85  1  0.24883708  0.74820695  0.46739900  1
  Zn  Zn86  1  0.61898969  0.87708983  0.74934287  1
  Zn  Zn87  1  0.49936430  0.49645295  0.00246150  1
  Zn  Zn88  1  0.50014094  0.62701131  0.62890980  1
  Zn  Zn89  1  0.25026249  0.37508836  0.12018361  1
  Zn  Zn90  1  0.49304884  0.75893620  0.75419770  1
  Zn  Zn91  1  0.11031202  0.74096730  0.87852116  1
  Zn  Zn92  1  0.87629367  0.37484328  0.50036367  1
  Zn  Zn93  1  0.49126975  0.11616647  0.61608073  1
  Zn  Zn94  1  0.37544427  0.00750298  0.38575956  1
  Zn  Zn95  1  0.87594627  0.12276149  0.74740020  1
  Zn  Zn96  1  0.87214296  0.87866409  0.01416119  1
  Zn  Zn97  1  0.88297908  0.61953689  0.24124378  1
  Zn  Zn98  1  -0.00391244  0.37115213  0.88323565  1
  Zn  Zn99  1  0.68503417  -0.05970686  0.18823431  1
  Zn  Zn100  1  0.38272447  0.88843029  0.50711774  1
  Zn  Zn101  1  0.62824558  0.27166904  0.36406181  1
  Zn  Zn102  1  0.37272036  0.25594628  0.12123604  1
  Zn  Zn103  1  0.24825399  0.24960021  0.00339227  1
  Zn  Zn104  1  0.37034859  0.37134419  0.00054343  1
  Zn  Zn105  1  0.24069280  0.61969179  0.88479926  1
  Zn  Zn106  1  0.55885904  0.80584775  0.21133278  1
  Zn  Zn107  1  0.18860420  0.19117214  0.18817296  1
  Zn  Zn108  1  0.18646578  0.18635785  0.69197076  1
  Zn  Zn109  1  0.19595441  0.69580764  0.19781645  1
  Zn  Zn110  1  0.18524115  0.68226212  0.68769024  1
  Zn  Zn111  1  0.67188399  0.14641803  0.20383393  1
  Zn  Zn112  1  0.68557392  0.18305182  0.68490421  1
  Zn  Zn113  1  0.69296396  0.67678396  0.19207975  1
  Zn  Zn114  1  0.69298872  0.68835040  0.68801581  1
  Zn  Zn115  1  0.31435324  0.31476539  0.30940403  1
  Zn  Zn116  1  0.31048355  0.31175395  0.81610828  1
  Zn  Zn117  1  0.32266390  0.81669595  0.31518388  1
  Zn  Zn118  1  0.30728549  0.81249587  0.81015311  1
  Zn  Zn119  1  0.81675535  0.30692805  0.30809944  1
  Zn  Zn120  1  0.81432003  0.31251361  0.80995554  1
  Zn  Zn121  1  0.82400725  0.82707267  0.27940636  1
  Zn  Zn122  1  0.80757215  0.81716373  0.81042582  1
  Zn  Zn123  1  0.18748184  0.44215485  0.43931384  1
  Zn  Zn124  1  0.18272210  0.43503198  0.93993984  1
  Zn  Zn125  1  0.18791753  0.93893619  0.43761395  1
  Zn  Zn126  1  0.18664205  0.93311418  0.93516844  1
  Zn  Zn127  1  0.68855463  0.43375777  0.44011133  1
  Zn  Zn128  1  0.68737543  0.43871017  0.93984409  1
  Zn  Zn129  1  0.70990421  0.90804107  0.38795304  1
  Zn  Zn130  1  0.68961319  0.93882744  0.94142808  1
  Zn  Zn131  1  0.31479127  0.06368306  0.06165484  1
  Zn  Zn132  1  0.30914583  0.06318489  0.56152894  1
  Zn  Zn133  1  0.31108541  0.56156082  0.06727771  1
  Zn  Zn134  1  0.31023353  0.56247983  0.56462903  1
  Zn  Zn135  1  0.81670156  0.06486993  0.05933553  1
  Zn  Zn136  1  0.81339243  0.06026265  0.55922554  1
  Zn  Zn137  1  0.81375868  0.56463001  0.06579005  1
  Zn  Zn138  1  0.81452067  0.56438045  0.56325048  1
  Zn  Zn139  1  0.43680457  0.43670872  0.18667872  1
  Zn  Zn140  1  0.43797312  0.43649685  0.68953901  1
  Zn  Zn141  1  0.43841850  0.94143031  0.19038103  1
  Zn  Zn142  1  0.43923285  0.93140007  0.69013558  1
  Zn  Zn143  1  0.94024725  0.43109456  0.18410691  1
  Zn  Zn144  1  0.93540795  0.44036370  0.69035478  1
  Zn  Zn145  1  0.93869167  0.93706895  0.18889986  1
  Zn  Zn146  1  0.93720636  0.93364360  0.68832701  1
  Zn  Zn147  1  0.06479683  0.05892773  0.31090066  1
  Zn  Zn148  1  0.06048600  0.05944224  0.80902554  1
  Zn  Zn149  1  0.06300109  0.56525467  0.31359828  1
  Zn  Zn150  1  0.05863547  0.56589987  0.81470763  1
  Zn  Zn151  1  0.56863375  0.06120270  0.31002054  1
  Zn  Zn152  1  0.56235458  0.06493882  0.80940739  1
  Zn  Zn153  1  0.56306877  0.55391968  0.31395972  1
  Zn  Zn154  1  0.56027607  0.56642132  0.81278145  1
  Zn  Zn155  1  0.43483771  0.19217399  0.43313263  1
  Zn  Zn156  1  0.43327508  0.18796243  0.93464405  1
  Zn  Zn157  1  0.43250600  0.68090651  0.44491067  1
  Zn  Zn158  1  0.43843064  0.68348349  0.94195056  1
  Zn  Zn159  1  0.94095220  0.18580768  0.43478467  1
  Zn  Zn160  1  0.94077973  0.18133793  0.93729801  1
  Zn  Zn161  1  0.94211268  0.68384178  0.43568723  1
  Zn  Zn162  1  0.93128238  0.68558532  0.94609302  1
  Zn  Zn163  1  0.06209426  0.32377639  0.05836811  1
  Zn  Zn164  1  0.06064373  0.31539377  0.56175232  1
  Zn  Zn165  1  0.06101938  0.82561019  0.06091285  1
  Zn  Zn166  1  0.06309447  0.81288446  0.55888883  1
  Zn  Zn167  1  0.56178253  0.30846791  0.06145664  1
  Zn  Zn168  1  0.56410020  0.31276404  0.56080986  1
  Zn  Zn169  1  0.57514152  0.81817528  0.04774811  1
  Zn  Zn170  1  0.56092472  0.81316472  0.56141201  1
  O  O171  1  0.07669717  0.17251185  0.17727624  1
  O  O172  1  0.11677061  0.11254287  0.63227647  1
  O  O173  1  0.12990673  0.61754688  0.13443623  1
  O  O174  1  0.11363081  0.61847161  0.62185631  1
  O  O175  1  0.61399025  0.13303231  0.10374523  1
  O  O176  1  0.62366923  0.11403719  0.61604469  1
  O  O177  1  0.62181322  0.61690236  0.11975827  1
  O  O178  1  0.62663512  0.61539204  0.61942050  1
  O  O179  1  0.36953415  0.38841481  0.38218432  1
  O  O180  1  0.38291510  0.38501209  0.87339403  1
  O  O181  1  0.38785412  0.88230898  0.38153793  1
  O  O182  1  0.36639811  0.88581868  0.88325887  1
  O  O183  1  0.88049550  0.38270835  0.37352234  1
  O  O184  1  0.87325595  0.38963105  0.87203235  1
  O  O185  1  0.88798070  0.88789430  0.36389991  1
  O  O186  1  0.87695508  0.88361971  0.87594237  1
  O  O187  1  0.24733410  0.01105989  0.36633463  1
  O  O188  1  0.25616616  0.00378996  0.86906963  1
  O  O189  1  0.25845653  0.50147249  0.36592576  1
  O  O190  1  0.25832321  0.49924626  0.87067361  1
  O  O191  1  0.76320471  0.01237273  0.38892387  1
  O  O192  1  0.75547911  0.00271338  0.86646121  1
  O  O193  1  0.75837688  0.50136871  0.37038783  1
  O  O194  1  0.75375922  0.50642802  0.86958431  1
  O  O195  1  0.23668763  0.50027641  0.13426482  1
  O  O196  1  0.24294263  0.49324420  0.63216328  1
  O  O197  1  0.26063865  0.99175219  0.13440410  1
  O  O198  1  0.24092057  0.99147558  0.62821809  1
  O  O199  1  0.74629147  0.49110634  0.13141973  1
  O  O200  1  0.74478422  0.49415892  0.63186947  1
  O  O201  1  0.75023045  0.97381779  0.09105369  1
  O  O202  1  0.74153450  0.99487598  0.62725620  1
  O  O203  1  0.01083865  0.36379058  0.25183441  1
  O  O204  1  0.00454543  0.36752918  0.75120407  1
  O  O205  1  0.01145132  0.86767101  0.25547448  1
  O  O206  1  0.00682754  0.87907845  0.75940508  1
  O  O207  1  0.49880966  0.35694395  0.24142491  1
  O  O208  1  0.49607830  0.36295218  0.76058244  1
  O  O209  1  0.49023308  0.87476563  0.26966874  1
  O  O210  1  0.50718799  0.87144828  0.75375880  1
  O  O211  1  0.49012429  0.12691746  0.24112901  1
  O  O212  1  0.49240072  0.13651500  0.74832987  1
  O  O213  1  0.49164171  0.61544011  0.23889612  1
  O  O214  1  0.48510645  0.62797200  0.74927094  1
  O  O215  1  0.98134435  0.12874858  0.27251554  1
  O  O216  1  0.99773525  0.12929623  0.73636131  1
  O  O217  1  1.00308415  0.64209293  0.25449275  1
  O  O218  1  0.98853747  0.61966167  0.74030213  1
  O  O219  1  0.36960119  0.25144947  0.00032459  1
  O  O220  1  0.36894373  0.25644578  0.50573893  1
  O  O221  1  0.37288325  0.75751582  0.00924253  1
  O  O222  1  0.36467917  0.74490332  0.51191581  1
  O  O223  1  0.86330333  0.23837819  0.00503685  1
  O  O224  1  0.86587599  0.24910339  0.50492825  1
  O  O225  1  0.86983994  0.75526602  0.01477260  1
  O  O226  1  0.85757847  0.74192633  0.49174255  1
  O  O227  1  0.13066225  0.25905585  0.48667460  1
  O  O228  1  0.12072710  0.25347395  0.98451402  1
  O  O229  1  0.12846847  0.73596508  0.50399861  1
  O  O230  1  0.14118648  0.76119864  1.00275693  1
  O  O231  1  0.63759672  0.24332733  0.50375022  1
  O  O232  1  0.63291014  0.24362663  0.98777784  1
  O  O233  1  0.62341481  0.73481795  0.49426313  1
  O  O234  1  0.62472583  0.73504852  0.98857063  1
  O  O235  1  0.49770738  0.23776285  0.13152324  1
  O  O236  1  0.49442750  0.25192681  0.63433086  1
  O  O237  1  0.49567633  0.74053136  0.12381044  1
  O  O238  1  0.48541139  0.74863035  0.62617696  1
  O  O239  1  0.98171166  0.26679080  0.12185732  1
  O  O240  1  0.99690152  0.24240608  0.62652536  1
  O  O241  1  1.00530285  0.75376919  0.13508785  1
  O  O242  1  0.99928301  0.73911810  0.62038342  1
  O  O243  1  0.01064230  0.25217326  0.36490562  1
  O  O244  1  0.00522893  0.24898276  0.86793759  1
  O  O245  1  -0.00784107  0.76234912  0.36595422  1
  O  O246  1  -0.00623595  0.76520282  0.88719785  1
  O  O247  1  0.50204332  0.24451431  0.35708761  1
  O  O248  1  0.50724200  0.25542344  0.86720763  1
  O  O249  1  0.50876317  0.73682808  0.37769663  1
  O  O250  1  0.51560313  0.74221511  0.87672425  1
  O  O251  1  0.25088499  0.13376116  0.48711235  1
  O  O252  1  0.25109919  0.12129543  0.98563841  1
  O  O253  1  0.23418645  0.62440158  0.50694442  1
  O  O254  1  0.25556636  0.64308311  1.00553680  1
  O  O255  1  0.74372423  0.13385101  0.49642267  1
  O  O256  1  0.74100975  0.13280048  0.99264855  1
  O  O257  1  0.74126635  0.62946266  0.49799037  1
  O  O258  1  0.74084711  0.61601547  0.99038536  1
  O  O259  1  0.25032208  0.37052073  0.00155345  1
  O  O260  1  0.25500797  0.37111952  0.50664076  1
  O  O261  1  0.26172743  0.87036747  0.00794880  1
  O  O262  1  0.24539281  0.86973939  0.51196497  1
  O  O263  1  0.74642305  0.36292191  0.00644573  1
  O  O264  1  0.75416441  0.36647378  0.51168889  1
  O  O265  1  0.75418417  0.90990793  0.03199771  1
  O  O266  1  0.74505220  0.85946338  0.49583671  1
  O  O267  1  0.12998565  0.49906474  0.24474136  1
  O  O268  1  0.12863157  0.49303279  0.74686592  1
  O  O269  1  0.13783728  0.99169294  0.25029455  1
  O  O270  1  0.12814619  0.98933511  0.73973131  1
  O  O271  1  0.63637728  0.50474944  0.23864484  1
  O  O272  1  0.63567418  0.50870217  0.74208170  1
  O  O273  1  0.64325268  1.03764311  0.23221095  1
  O  O274  1  0.63619861  1.00247586  0.74246401  1
  O  O275  1  0.36598038  0.01230791  0.25588653  1
  O  O276  1  0.36964230  0.00319246  0.75519009  1
  O  O277  1  0.36950354  0.50551298  0.25715070  1
  O  O278  1  0.37004094  0.50589223  0.75814246  1
  O  O279  1  0.88030413  0.00975060  0.26111748  1
  O  O280  1  0.86268186  -0.00171669  0.75625877  1
  O  O281  1  0.87044257  0.49761988  0.25664743  1
  O  O282  1  0.86484683  0.50773801  0.75934575  1
  O  O283  1  0.11956505  0.37510111  0.36859638  1
  O  O284  1  0.12295836  0.36406517  0.86672374  1
  O  O285  1  0.11640716  0.88131868  0.36500818  1
  O  O286  1  0.11533268  0.87020788  0.86638174  1
  O  O287  1  0.61945160  0.38037542  0.37716409  1
  O  O288  1  0.61831952  0.36540136  0.87805872  1
  O  O289  1  0.60690603  0.85244987  0.37853074  1
  O  O290  1  0.63809714  0.85444538  0.88214572  1
  O  O291  1  0.38132112  0.12684363  0.13338072  1
  O  O292  1  0.37378225  0.13299430  0.63148645  1
  O  O293  1  0.38507660  0.63033993  0.13067681  1
  O  O294  1  0.37366746  0.63097843  0.63426397  1
  O  O295  1  0.86517721  0.13428672  0.13731665  1
  O  O296  1  0.88435346  0.12908953  0.62456051  1
  O  O297  1  0.87030980  0.64209284  0.12700224  1
  O  O298  1  0.88260817  0.61904622  0.63486932  1
  O  O299  1  0.25155123  0.25256722  0.12176773  1
  O  O300  1  0.25342077  0.25432916  0.62121395  1
  O  O301  1  0.26119644  0.75993272  0.11782007  1
  O  O302  1  0.25647256  0.75880402  0.63080693  1
  O  O303  1  0.75772022  0.25643923  0.11554322  1
  O  O304  1  0.75348789  0.25566568  0.62097987  1
  O  O305  1  0.75481304  0.75223466  0.13407033  1
  O  O306  1  0.73988527  0.75811702  0.60779178  1
  O  O307  1  0.24480143  0.24656663  0.37916171  1
  O  O308  1  0.24000009  0.23845044  0.87263335  1
  O  O309  1  0.24998990  0.74797384  0.35758311  1
  O  O310  1  0.25399122  0.75256867  0.89398783  1
  O  O311  1  0.75193565  0.24391337  0.38577388  1
  O  O312  1  0.74507411  0.24742082  0.87813722  1
  O  O313  1  0.73228765  0.74033198  0.38951249  1
  O  O314  1  0.74196888  0.73503312  0.87090387  1
  O  O315  1  0.00323395  0.10819651  -0.00504095  1
  O  O316  1  0.00059811  0.11620814  0.51046190  1
  O  O317  1  0.00231901  0.60978164  -0.00507122  1
  O  O318  1  0.00714556  0.61991334  0.50875084  1
  O  O319  1  0.50310495  0.12041678  0.00293108  1
  O  O320  1  0.51302385  0.13804259  0.50020172  1
  O  O321  1  0.50946576  0.62037152  0.01320594  1
  O  O322  1  0.50761509  0.61120199  0.50668765  1
  O  O323  1  0.49141166  0.38645856  0.50986130  1
  O  O324  1  0.49858612  0.37507759  0.98545663  1
  O  O325  1  0.49734514  0.86723239  0.48368313  1
  O  O326  1  0.48870051  0.88518398  1.00107193  1
  O  O327  1  0.99729433  0.38153431  0.49128684  1
  O  O328  1  1.00747506  0.39930167  0.99489408  1
  O  O329  1  1.00531999  0.88409404  0.48941136  1
  O  O330  1  0.99460385  0.88881484  0.99051451  1
  O  O331  1  0.49036447  0.50250780  0.38752804  1
  O  O332  1  0.49320466  0.49215658  0.87332527  1
  O  O333  1  0.50632029  0.99180710  0.37654293  1
  O  O334  1  0.48595811  1.00993540  0.88184760  1
  O  O335  1  0.99264821  0.49462576  0.37723324  1
  O  O336  1  0.98961018  0.50069830  0.88330108  1
  O  O337  1  0.99685576  0.99388785  0.38184067  1
  O  O338  1  0.99128513  0.99149261  0.87495258  1
  O  O339  1  -0.00302584  -0.00426634  0.11105671  1
  O  O340  1  0.00398452  0.00382742  0.61849539  1
  O  O341  1  0.00978589  0.50133603  0.11858663  1
  O  O342  1  0.00357717  0.50303788  0.61875698  1
  O  O343  1  0.49031539  0.01278174  0.11068723  1
  O  O344  1  0.51621676  -0.00012382  0.62976974  1
  O  O345  1  0.51050896  0.50552426  0.12520586  1
  O  O346  1  0.51020970  0.49979089  0.62164498  1
  O  O347  1  0.24206467  0.38921894  0.25135813  1
  O  O348  1  0.24346950  0.37880427  0.74545943  1
  O  O349  1  0.24906656  0.88464508  0.24423040  1
  O  O350  1  0.24056500  0.88030524  0.74118003  1
  O  O351  1  0.75348099  0.38203023  0.24158499  1
  O  O352  1  0.75345103  0.38624437  0.74145507  1
  O  O353  1  0.73397851  0.88578345  0.27778816  1
  O  O354  1  0.74157671  0.88185993  0.73778105  1
  O  O355  1  0.25559725  0.12028063  0.25423177  1
  O  O356  1  0.25521487  0.11713910  0.75662140  1
  O  O357  1  0.26566862  0.61502455  0.24183016  1
  O  O358  1  0.26106785  0.61706268  0.75001351  1
  O  O359  1  0.76712560  0.14117077  0.26843878  1
  O  O360  1  0.75159368  0.11525342  0.75300620  1
  O  O361  1  0.75649651  0.60725293  0.25825379  1
  O  O362  1  0.75695247  0.61532878  0.75652300  1
  O  O363  1  0.36245205  0.12854370  0.36544283  1
  O  O364  1  0.36437262  0.11515828  0.86884789  1
  O  O365  1  0.38163762  0.61331747  0.36430408  1
  O  O366  1  0.37214395  0.61696050  0.86932209  1
  O  O367  1  0.86761868  0.11764533  0.37429347  1
  O  O368  1  0.86823455  0.11432683  0.87022835  1
  O  O369  1  0.87194061  0.61190921  0.37188783  1
  O  O370  1  0.86708275  0.61636827  0.87085680  1
  O  O371  1  0.12500284  0.38407366  0.13919998  1
  O  O372  1  0.12916768  0.37926054  0.63133963  1
  O  O373  1  0.14179470  0.87162855  0.13662702  1
  O  O374  1  0.12829028  0.88125126  0.63071089  1
  O  O375  1  0.63467269  0.38411948  0.11731054  1
  O  O376  1  0.63680537  0.38570284  0.62077113  1
  O  O377  1  0.60697663  0.87378867  0.13659843  1
  O  O378  1  0.63339025  0.88789438  0.61882032  1
  O  O379  1  0.13084477  0.26881284  0.26684167  1
  O  O380  1  0.11819528  0.25495833  0.75629134  1
  O  O381  1  0.11585109  0.76075303  0.24849002  1
  O  O382  1  0.12956687  0.76346846  0.74963945  1
  O  O383  1  0.61162030  0.23830303  0.24710772  1
  O  O384  1  0.61694727  0.24280065  0.75878552  1
  O  O385  1  0.62303744  0.72978280  0.26819937  1
  O  O386  1  0.62524266  0.74568825  0.76409051  1
  O  O387  1  0.38298233  0.24052964  0.24893751  1
  O  O388  1  0.38167858  0.24591394  0.74656033  1
  O  O389  1  0.37356869  0.74164606  0.23524569  1
  O  O390  1  0.37115618  0.74159200  0.74395598  1
  O  O391  1  0.89130255  0.24291204  0.24065721  1
  O  O392  1  0.88110655  0.24697659  0.74272731  1
  O  O393  1  0.88995985  0.74646890  0.23907383  1
  O  O394  1  0.86571242  0.73477155  0.75582016  1
  O  O395  1  0.38097847  0.49808724  0.49533267  1
  O  O396  1  0.37661940  0.50358537  0.98799821  1
  O  O397  1  0.37562802  1.00182982  0.49884253  1
  O  O398  1  0.38076511  0.99358215  0.99144329  1
  O  O399  1  0.87910802  0.49931729  0.48859796  1
  O  O400  1  0.88537278  0.50514978  0.99590090  1
  O  O401  1  0.88865697  1.00336135  0.48942919  1
  O  O402  1  0.88441964  1.00172848  0.98670590  1
  O  O403  1  0.11503588  -0.00699045  -0.00120318  1
  O  O404  1  0.11570109  -0.00359568  0.51226461  1
  O  O405  1  0.12173841  0.50608331  0.01588564  1
  O  O406  1  0.11916878  0.50741610  0.50824085  1
  O  O407  1  0.60996528  0.01251468  -0.01611393  1
  O  O408  1  0.62676912  0.01065879  0.51001333  1
  O  O409  1  0.62452150  0.50852863  0.00995474  1
  O  O410  1  0.62054500  0.50660059  0.51010237  1
  O  O411  1  0.36990989  0.37629491  0.11991611  1
  O  O412  1  0.36729110  0.37071525  0.62116665  1
  O  O413  1  0.37156412  0.86917129  0.11859652  1
  O  O414  1  0.36399943  0.86639933  0.62567530  1
  O  O415  1  0.86142799  0.36576198  0.12757164  1
  O  O416  1  0.86467504  0.36940514  0.62436626  1
  O  O417  1  0.87830216  0.85622264  0.13369940  1
  O  O418  1  0.85828547  0.88116975  0.62394601  1
  O  O419  1  0.13581301  0.13838110  0.36327015  1
  O  O420  1  0.13317363  0.13188835  0.86366265  1
  O  O421  1  0.12029592  0.61953690  0.39440632  1
  O  O422  1  0.13137274  0.63281333  0.86457206  1
  O  O423  1  0.63650795  0.12747827  0.38542172  1
  O  O424  1  0.62896267  0.13567753  0.88024661  1
  O  O425  1  0.62883949  0.62359838  0.38614870  1
  O  O426  1  0.63217064  0.62823287  0.88232263  1
