# generated using pymatgen
data_V85Zn86O256
_symmetry_space_group_name_H-M   'P 1'
_cell_length_a   16.96431956
_cell_length_b   16.96087669
_cell_length_c   16.94905519
_cell_angle_alpha   89.96321960
_cell_angle_beta   89.96875662
_cell_angle_gamma   89.99511370
_symmetry_Int_Tables_number   1
_chemical_formula_structural   V85Zn86O256
_chemical_formula_sum   'V85 Zn86 O256'
_cell_volume   4876.74536342
_cell_formula_units_Z   1
loop_
 _symmetry_equiv_pos_site_id
 _symmetry_equiv_pos_as_xyz
  1  'x, y, z'
loop_
 _atom_site_type_symbol
 _atom_site_label
 _atom_site_symmetry_multiplicity
 _atom_site_fract_x
 _atom_site_fract_y
 _atom_site_fract_z
 _atom_site_occupancy
  V  V0  1  0.37551435  0.87600021  -0.00494726  1
  V  V1  1  0.36883902  0.62408799  0.74571841  1
  V  V2  1  0.88083553  0.50082528  0.37158881  1
  V  V3  1  0.75070772  0.86685391  0.11883803  1
  V  V4  1  0.37810651  0.37241385  -0.00558640  1
  V  V5  1  0.75095120  0.88251508  0.62707429  1
  V  V6  1  0.87655061  0.00647239  0.36627953  1
  V  V7  1  0.87637658  0.37853329  0.49555053  1
  V  V8  1  0.12953462  0.49579958  0.62682747  1
  V  V9  1  0.35873126  0.25329176  0.62404613  1
  V  V10  1  0.37700423  0.74438330  0.12653817  1
  V  V11  1  0.87000820  0.00071086  0.87913662  1
  V  V12  1  0.87745089  0.63144440  0.25022484  1
  V  V13  1  0.01176997  0.26346303  0.25741367  1
  V  V14  1  -0.00571150  0.49367103  -0.01214689  1
  V  V15  1  0.75022077  0.25177899  0.49994398  1
  V  V16  1  0.49681715  0.25638422  0.75334837  1
  V  V17  1  0.50467553  0.87520403  0.36900311  1
  V  V18  1  0.87767269  0.75283104  0.10693073  1
  V  V19  1  0.49945604  0.37752236  0.38193817  1
  V  V20  1  0.37570914  0.24854537  0.12400712  1
  V  V21  1  0.49933641  0.74304149  0.74084724  1
  V  V22  1  0.12409432  0.87949997  0.75031365  1
  V  V23  1  0.00003553  0.75186595  0.75216549  1
  V  V24  1  0.13511534  0.37394487  0.75157336  1
  V  V25  1  0.62579631  0.12040492  -0.00502993  1
  V  V26  1  0.37302451  0.11888609  0.75394259  1
  V  V27  1  0.62518148  0.87613386  0.74875974  1
  V  V28  1  0.12119233  0.25147043  0.88598333  1
  V  V29  1  0.61760193  0.62640394  0.50401461  1
  V  V30  1  0.25720076  0.50955067  0.25097128  1
  V  V31  1  0.74688754  0.37826040  0.62609988  1
  V  V32  1  -0.00137148  0.25839082  0.75681401  1
  V  V33  1  0.25154325  0.74101909  -0.00664996  1
  V  V34  1  0.86870552  0.12571649  0.75671888  1
  V  V35  1  0.49829761  0.12694252  0.62502480  1
  V  V36  1  0.62636370  0.74988069  0.87758002  1
  V  V37  1  0.75200761  0.75309286  0.49733647  1
  V  V38  1  0.37298263  -0.00058350  0.37345918  1
  V  V39  1  0.62388565  0.12642287  0.50103641  1
  V  V40  1  0.62362131  0.24836464  0.87547792  1
  V  V41  1  -0.00312240  0.87485691  0.88297694  1
  V  V42  1  0.75119836  0.50242873  0.74923877  1
  V  V43  1  0.49914033  0.12306292  0.12498330  1
  V  V44  1  0.24869782  0.87323587  0.12528066  1
  V  V45  1  0.00732423  0.62732020  0.62277839  1
  V  V46  1  0.87463643  0.25303220  0.62646789  1
  V  V47  1  0.62686303  0.49770856  0.12608459  1
  V  V48  1  0.24887976  0.37209182  0.13332789  1
  V  V49  1  0.24576303  0.63674515  0.38455865  1
  V  V50  1  0.74939965  0.24166133  -0.00036981  1
  V  V51  1  0.12704066  0.00356666  0.12204712  1
  V  V52  1  0.75040114  0.37167687  0.12609639  1
  V  V53  1  0.49647072  0.87793928  0.87312771  1
  V  V54  1  0.25046819  0.87355611  0.62378469  1
  V  V55  1  0.35900022  0.37340059  0.50470198  1
  V  V56  1  0.50242419  0.49444871  -0.00706346  1
  V  V57  1  0.37345155  0.86736185  0.49885608  1
  V  V58  1  0.24192450  0.13447499  0.38754583  1
  V  V59  1  0.87454399  0.62335348  0.75235933  1
  V  V60  1  0.24697707  0.11819512  0.88180340  1
  V  V61  1  0.37397562  0.12549562  0.25077600  1
  V  V62  1  0.50500999  0.75079862  0.24662359  1
  V  V63  1  0.87404077  0.24210089  0.13298934  1
  V  V64  1  0.36685531  0.50403925  0.87660227  1
  V  V65  1  0.62947995  0.62622502  0.00007362  1
  V  V66  1  0.62365390  0.25206440  0.37411848  1
  V  V67  1  0.62665873  -0.00664698  0.13295847  1
  V  V68  1  0.87571541  0.87956099  0.49913416  1
  V  V69  1  0.00240712  0.50221870  0.50053490  1
  V  V70  1  0.75098976  0.62746926  0.87494703  1
  V  V71  1  0.00593714  0.00885332  0.50038436  1
  V  V72  1  0.13012889  0.61962861  -0.00789776  1
  V  V73  1  0.87557646  0.75265893  0.62503324  1
  V  V74  1  0.62154334  0.37676663  0.75432386  1
  V  V75  1  0.00166052  0.00589659  0.00051941  1
  V  V76  1  0.62955580  0.75381785  0.36913549  1
  V  V77  1  0.75397832  0.12506000  0.36759894  1
  V  V78  1  0.00632773  0.87171478  0.37180946  1
  V  V79  1  0.49843448  -0.00309611  -0.00150772  1
  V  V80  1  0.12319253  0.49473473  0.12943479  1
  V  V81  1  0.49877486  0.62276629  0.12843782  1
  V  V82  1  0.00506179  0.12747942  0.62400034  1
  V  V83  1  0.50080456  0.00104218  0.50017761  1
  V  V84  1  -0.00003666  0.12360683  0.13342575  1
  Zn  Zn85  1  0.62546833  0.00307714  0.62626764  1
  Zn  Zn86  1  0.62275494  0.37877711  0.25352080  1
  Zn  Zn87  1  0.37596786  0.73880504  0.61598086  1
  Zn  Zn88  1  0.00789434  0.74570895  0.25067803  1
  Zn  Zn89  1  0.61613609  0.51225159  0.63011249  1
  Zn  Zn90  1  0.12898493  0.74562570  0.87265808  1
  Zn  Zn91  1  0.13039957  0.00830854  0.62373718  1
  Zn  Zn92  1  0.74518243  0.00720272  0.75948966  1
  Zn  Zn93  1  0.13214332  0.86652759  0.25565576  1
  Zn  Zn94  1  0.00134325  0.62315414  0.12324598  1
  Zn  Zn95  1  0.37879379  0.50425480  0.37096089  1
  Zn  Zn96  1  0.24611174  -0.00044417  0.25037499  1
  Zn  Zn97  1  0.75252241  0.62543897  0.37482486  1
  Zn  Zn98  1  0.49165591  0.50704387  0.50623469  1
  Zn  Zn99  1  0.24705790  0.50451035  0.75372248  1
  Zn  Zn100  1  0.24602874  0.24645654  0.00454587  1
  Zn  Zn101  1  0.75329527  0.50050160  0.24977392  1
  Zn  Zn102  1  0.75010925  -0.00558300  0.25011698  1
  Zn  Zn103  1  0.49924940  0.25388220  0.25008614  1
  Zn  Zn104  1  0.21398424  0.75026120  0.49671272  1
  Zn  Zn105  1  0.88608212  0.36797924  -0.00945021  1
  Zn  Zn106  1  0.25454232  -0.00365774  0.75467788  1
  Zn  Zn107  1  0.18749496  0.18654156  0.19394928  1
  Zn  Zn108  1  0.18610740  0.18770899  0.69734874  1
  Zn  Zn109  1  0.18439077  0.68373216  0.18437584  1
  Zn  Zn110  1  0.18889661  0.69116698  0.68566694  1
  Zn  Zn111  1  0.68366517  0.18375380  0.18752536  1
  Zn  Zn112  1  0.68647817  0.19044563  0.68635558  1
  Zn  Zn113  1  0.69257838  0.68751392  0.18777509  1
  Zn  Zn114  1  0.68855260  0.69438966  0.68598370  1
  Zn  Zn115  1  0.31128033  0.31278238  0.31551195  1
  Zn  Zn116  1  0.31057934  0.30879212  0.81694637  1
  Zn  Zn117  1  0.31636170  0.80707235  0.30965995  1
  Zn  Zn118  1  0.31287272  0.80872785  0.80946788  1
  Zn  Zn119  1  0.81606242  0.31258413  0.31135546  1
  Zn  Zn120  1  0.81285592  0.31031859  0.81570090  1
  Zn  Zn121  1  0.81621699  0.81878863  0.30512805  1
  Zn  Zn122  1  0.81377449  0.81407990  0.81411074  1
  Zn  Zn123  1  0.18472408  0.44052492  0.43680734  1
  Zn  Zn124  1  0.18759570  0.43164841  0.94176496  1
  Zn  Zn125  1  0.18793259  0.94240282  0.44075914  1
  Zn  Zn126  1  0.18466045  0.93430295  0.94004331  1
  Zn  Zn127  1  0.69108275  0.44221571  0.43633752  1
  Zn  Zn128  1  0.72581915  0.41879042  0.91938398  1
  Zn  Zn129  1  0.68848543  0.94028530  0.43775689  1
  Zn  Zn130  1  0.68840124  0.93314400  0.94199826  1
  Zn  Zn131  1  0.31270659  0.06025139  0.06087336  1
  Zn  Zn132  1  0.31403405  0.06176459  0.56477520  1
  Zn  Zn133  1  0.31290591  0.55813149  0.06354670  1
  Zn  Zn134  1  0.31109618  0.56207526  0.55973164  1
  Zn  Zn135  1  0.81470489  0.05824187  0.06373286  1
  Zn  Zn136  1  0.81766944  0.06746000  0.56006747  1
  Zn  Zn137  1  0.81389797  0.56454468  0.06280801  1
  Zn  Zn138  1  0.80986414  0.56638589  0.56245210  1
  Zn  Zn139  1  0.43766040  0.43425151  0.18737292  1
  Zn  Zn140  1  0.43602004  0.44072330  0.68334150  1
  Zn  Zn141  1  0.43678195  0.93591728  0.18567386  1
  Zn  Zn142  1  0.43824033  0.93581555  0.68488967  1
  Zn  Zn143  1  0.93668214  0.43503958  0.18189980  1
  Zn  Zn144  1  0.93772734  0.43888887  0.68839782  1
  Zn  Zn145  1  0.93516831  0.93435151  0.18531618  1
  Zn  Zn146  1  0.93762223  0.94221748  0.69060660  1
  Zn  Zn147  1  0.06555546  0.05957278  0.30808230  1
  Zn  Zn148  1  0.06057930  0.06611906  0.81304076  1
  Zn  Zn149  1  0.06574642  0.56205900  0.31051532  1
  Zn  Zn150  1  0.06153737  0.56050326  0.81202188  1
  Zn  Zn151  1  0.56185913  0.06535490  0.31366251  1
  Zn  Zn152  1  0.55943170  0.06271762  0.80998247  1
  Zn  Zn153  1  0.56265004  0.56459649  0.31557664  1
  Zn  Zn154  1  0.55938067  0.56225509  0.81220047  1
  Zn  Zn155  1  0.43248316  0.19112965  0.43978745  1
  Zn  Zn156  1  0.43685603  0.18565991  0.93628865  1
  Zn  Zn157  1  0.43278090  0.68339129  0.42584402  1
  Zn  Zn158  1  0.43976030  0.68450031  0.93485993  1
  Zn  Zn159  1  0.93924607  0.19005001  0.43618641  1
  Zn  Zn160  1  0.93797699  0.18173385  0.94338047  1
  Zn  Zn161  1  0.94388916  0.68886556  0.43956949  1
  Zn  Zn162  1  0.94425877  0.68048185  0.93604731  1
  Zn  Zn163  1  0.05964929  0.31384353  0.06867678  1
  Zn  Zn164  1  0.05902639  0.31863264  0.56751553  1
  Zn  Zn165  1  0.06556549  0.80913494  0.06258738  1
  Zn  Zn166  1  0.06108200  0.81896598  0.56211668  1
  Zn  Zn167  1  0.56276798  0.31141567  0.06308437  1
  Zn  Zn168  1  0.55759539  0.31501928  0.56693275  1
  Zn  Zn169  1  0.56562000  0.81315998  0.06147957  1
  Zn  Zn170  1  0.56371761  0.81345241  0.55924337  1
  O  O171  1  0.12065524  0.11106483  0.12986936  1
  O  O172  1  0.10965454  0.12653616  0.63638869  1
  O  O173  1  0.12543527  0.61123406  0.11239048  1
  O  O174  1  0.11164796  0.61608386  0.63831411  1
  O  O175  1  0.61860323  0.11606420  0.11543488  1
  O  O176  1  0.61757137  0.12679991  0.61879819  1
  O  O177  1  0.62139960  0.62020091  0.11769214  1
  O  O178  1  0.62844326  0.63427116  0.60794932  1
  O  O179  1  0.38224953  0.37248819  0.38853411  1
  O  O180  1  0.37208754  0.38083218  0.88757585  1
  O  O181  1  0.38326750  0.88003520  0.37877638  1
  O  O182  1  0.38507609  0.86561172  0.88352929  1
  O  O183  1  0.86969310  0.38505145  0.38596373  1
  O  O184  1  0.83412566  0.38535844  0.89330050  1
  O  O185  1  0.88285200  0.88750381  0.38025083  1
  O  O186  1  0.88870347  0.88487343  0.86642711  1
  O  O187  1  0.26327925  0.00134415  0.37246456  1
  O  O188  1  0.24231142  0.01372314  0.87591979  1
  O  O189  1  0.24793485  0.49642236  0.35844736  1
  O  O190  1  0.26260275  0.49609021  0.87671556  1
  O  O191  1  0.75754483  0.00753149  0.37454243  1
  O  O192  1  0.76430342  -0.00848711  0.87761008  1
  O  O193  1  0.76546459  0.50376092  0.37152217  1
  O  O194  1  0.73961474  0.51809858  0.85980380  1
  O  O195  1  0.24634122  0.49274152  0.13312445  1
  O  O196  1  0.23201252  0.50824124  0.62734495  1
  O  O197  1  0.24481798  0.99024897  0.12257577  1
  O  O198  1  0.24902829  0.98737278  0.62710442  1
  O  O199  1  0.74278650  0.48975381  0.12101667  1
  O  O200  1  0.74185994  0.49930536  0.63438281  1
  O  O201  1  0.74363300  0.99167489  0.12585434  1
  O  O202  1  0.75227051  0.99040579  0.62447615  1
  O  O203  1  -0.00174452  0.36303013  0.24489538  1
  O  O204  1  0.00194435  0.36294253  0.75055981  1
  O  O205  1  -0.00206537  0.87846185  0.26594794  1
  O  O206  1  0.00725553  0.87195122  0.75624509  1
  O  O207  1  0.50008407  0.37404491  0.26543611  1
  O  O208  1  0.50710540  0.36458657  0.74690481  1
  O  O209  1  0.49607410  0.86593690  0.25897115  1
  O  O210  1  0.50296138  0.86813822  0.75699181  1
  O  O211  1  0.48861042  0.12567882  0.24535946  1
  O  O212  1  0.49183742  0.13465086  0.74712163  1
  O  O213  1  0.50571620  0.63369510  0.23670344  1
  O  O214  1  0.49157625  0.63510482  0.75404252  1
  O  O215  1  1.00311058  0.12960857  0.23686054  1
  O  O216  1  0.98966446  0.13591352  0.74449764  1
  O  O217  1  0.99090495  0.62425957  0.24507296  1
  O  O218  1  0.99118476  0.62939064  0.74528544  1
  O  O219  1  0.37685619  0.25733051  0.00536761  1
  O  O220  1  0.37818776  0.26265896  0.51073729  1
  O  O221  1  0.37282843  0.75483816  0.00631443  1
  O  O222  1  0.38280305  0.76295970  0.49744752  1
  O  O223  1  0.86437849  0.24629717  0.00790602  1
  O  O224  1  0.87087325  0.26070228  0.50487778  1
  O  O225  1  0.87552127  0.74117784  0.00860064  1
  O  O226  1  0.87212362  0.75863579  0.50531043  1
  O  O227  1  0.12003990  0.28615644  0.46931724  1
  O  O228  1  0.12232527  0.25256949  0.98867832  1
  O  O229  1  0.10483957  0.74051889  0.50135272  1
  O  O230  1  0.13510226  0.73808785  1.00121379  1
  O  O231  1  0.62978038  0.24774303  0.49195745  1
  O  O232  1  0.62591953  0.23896434  0.99517673  1
  O  O233  1  0.62974718  0.74514096  0.48903735  1
  O  O234  1  0.61705367  0.73783723  0.98942041  1
  O  O235  1  0.49491150  0.24135739  0.12751858  1
  O  O236  1  0.49265140  0.24503250  0.63650819  1
  O  O237  1  0.49775534  0.74353661  0.12773887  1
  O  O238  1  0.49623807  0.75965418  0.63699216  1
  O  O239  1  0.99324477  0.24219522  0.13025480  1
  O  O240  1  0.99443331  0.24633991  0.63404213  1
  O  O241  1  0.98551627  0.75023216  0.12288920  1
  O  O242  1  0.99373792  0.74463978  0.63329734  1
  O  O243  1  -0.00832934  0.24471723  0.35503575  1
  O  O244  1  0.01210623  0.23952287  0.86982521  1
  O  O245  1  -0.00629673  0.76995777  0.37592814  1
  O  O246  1  0.00162498  0.75846434  0.87041596  1
  O  O247  1  0.50964791  0.25671962  0.37695753  1
  O  O248  1  0.51079491  0.24504193  0.86561611  1
  O  O249  1  0.50688153  0.75588545  0.36460683  1
  O  O250  1  0.50860993  0.75754088  0.86694381  1
  O  O251  1  0.25489721  0.11816933  0.48690293  1
  O  O252  1  0.25679997  0.12730904  0.98622448  1
  O  O253  1  0.24997673  0.63019910  0.48950350  1
  O  O254  1  0.24488495  0.63121926  1.00596962  1
  O  O255  1  0.74435508  0.13269133  0.49329091  1
  O  O256  1  0.73817678  0.13235476  1.00903851  1
  O  O257  1  0.74369173  0.63693566  0.49631296  1
  O  O258  1  0.73887472  0.61696491  0.98919876  1
  O  O259  1  0.26251372  0.37235680  0.01170057  1
  O  O260  1  0.26100880  0.37575818  0.49668052  1
  O  O261  1  0.25818877  0.86602693  0.00620741  1
  O  O262  1  0.25684654  0.87219179  0.50475962  1
  O  O263  1  0.73345395  0.35465454  0.01742906  1
  O  O264  1  0.75686233  0.37277054  0.50590837  1
  O  O265  1  0.75156752  0.87656287  0.01723879  1
  O  O266  1  0.75523622  0.87308582  0.50755841  1
  O  O267  1  0.13666018  0.50094706  0.23652895  1
  O  O268  1  0.12478680  0.49055723  0.74678841  1
  O  O269  1  0.12764665  0.98764085  0.23568747  1
  O  O270  1  0.12448401  0.98910851  0.74886970  1
  O  O271  1  0.62792242  0.50428579  0.23661450  1
  O  O272  1  0.62993783  0.49352164  0.75015056  1
  O  O273  1  0.62337925  1.00549225  0.23602689  1
  O  O274  1  0.62791674  0.99410439  0.74719252  1
  O  O275  1  0.37680651  0.00642057  0.25781764  1
  O  O276  1  0.37690943  0.01448772  0.74641549  1
  O  O277  1  0.36116664  0.49645625  0.24746189  1
  O  O278  1  0.37401790  0.50819384  0.75738563  1
  O  O279  1  0.87655671  0.00023387  0.26323419  1
  O  O280  1  0.87453314  0.00991160  0.76008237  1
  O  O281  1  0.87821730  0.50760697  0.25590601  1
  O  O282  1  0.86387254  0.51201438  0.74285364  1
  O  O283  1  0.12074971  0.33811525  0.41214841  1
  O  O284  1  0.12872141  0.35902843  0.86922604  1
  O  O285  1  0.10982176  0.88565861  0.37539684  1
  O  O286  1  0.11674885  0.87294126  0.86648705  1
  O  O287  1  0.62048327  0.36883929  0.37664859  1
  O  O288  1  0.63235445  0.36529686  0.86225423  1
  O  O289  1  0.61455695  0.86711839  0.38108592  1
  O  O290  1  0.61845675  0.86670713  0.87181318  1
  O  O291  1  0.37883589  0.12671133  0.13147538  1
  O  O292  1  0.37873636  0.13353874  0.63301017  1
  O  O293  1  0.38854920  0.63311678  0.11405453  1
  O  O294  1  0.37382355  0.62202927  0.63921010  1
  O  O295  1  0.88463696  0.13193413  0.12120607  1
  O  O296  1  0.88300022  0.13377435  0.63416256  1
  O  O297  1  0.87309495  0.63827153  0.13132417  1
  O  O298  1  0.88144040  0.63167897  0.63428497  1
  O  O299  1  0.25558375  0.25441560  0.12451946  1
  O  O300  1  0.25973885  0.24603265  0.63208437  1
  O  O301  1  0.26067402  0.75406127  0.11587486  1
  O  O302  1  0.25347048  0.76195164  0.61890632  1
  O  O303  1  0.75452689  0.25027541  0.12212130  1
  O  O304  1  0.75577149  0.25717646  0.61966398  1
  O  O305  1  0.76004807  0.75842787  0.12566528  1
  O  O306  1  0.75635571  0.76334606  0.61947396  1
  O  O307  1  0.25556701  0.23337188  0.37338528  1
  O  O308  1  0.23693138  0.24113682  0.87841921  1
  O  O309  1  0.25200699  0.74107253  0.37571738  1
  O  O310  1  0.24991066  0.75483720  0.88985200  1
  O  O311  1  0.74425775  0.24535030  0.37938866  1
  O  O312  1  0.73397384  0.24671817  0.88640950  1
  O  O313  1  0.74262380  0.75765977  0.37752864  1
  O  O314  1  0.73682297  0.74121671  0.86671000  1
  O  O315  1  0.00321695  0.11416160  0.01267252  1
  O  O316  1  -0.00734822  0.12176075  0.51229691  1
  O  O317  1  0.01107401  0.61290131  0.00259842  1
  O  O318  1  -0.01001213  0.61407472  0.51431877  1
  O  O319  1  0.50494373  0.11698606  0.00440663  1
  O  O320  1  0.50285632  0.12148554  0.50420109  1
  O  O321  1  0.50996997  0.61638460  0.00758142  1
  O  O322  1  0.51438081  0.62987220  0.49120265  1
  O  O323  1  0.49680004  0.37592251  0.49016559  1
  O  O324  1  0.49079599  0.38454338  1.00906523  1
  O  O325  1  0.49367242  0.87978181  0.48933035  1
  O  O326  1  0.49393132  0.87520670  0.99220959  1
  O  O327  1  0.98314201  0.38837935  0.51107751  1
  O  O328  1  1.00081987  0.38767254  1.00246343  1
  O  O329  1  0.99357586  0.88881779  0.49155348  1
  O  O330  1  1.00680342  0.88274435  0.98885865  1
  O  O331  1  0.49857253  0.49312041  0.38023317  1
  O  O332  1  0.49355606  0.50206901  0.88818296  1
  O  O333  1  0.49327398  0.99320300  0.37762759  1
  O  O334  1  0.50602750  0.98484392  0.88017321  1
  O  O335  1  0.99146236  0.50709172  0.38651861  1
  O  O336  1  1.00056020  0.50082613  0.88802625  1
  O  O337  1  0.99339250  1.00059381  0.38208263  1
  O  O338  1  0.99592828  0.99560723  0.88265148  1
  O  O339  1  0.00473692  0.00305248  0.11982161  1
  O  O340  1  -0.00260887  0.01101404  0.61791069  1
  O  O341  1  0.01166891  0.49871253  0.11838356  1
  O  O342  1  0.00544219  0.50871576  0.62156734  1
  O  O343  1  0.50708571  0.00100314  0.11857642  1
  O  O344  1  0.50047937  0.00778182  0.61782407  1
  O  O345  1  0.50621063  0.50630361  0.11958648  1
  O  O346  1  0.50726386  0.49451610  0.61732691  1
  O  O347  1  0.25526031  0.38046778  0.23815280  1
  O  O348  1  0.23846089  0.37640557  0.75377464  1
  O  O349  1  0.25703871  0.87487418  0.23523495  1
  O  O350  1  0.24429845  0.87527287  0.74385690  1
  O  O351  1  0.74737670  0.37591270  0.23737127  1
  O  O352  1  0.74320927  0.38481542  0.74582608  1
  O  O353  1  0.75455815  0.87944257  0.23130961  1
  O  O354  1  0.74482144  0.87606035  0.74117569  1
  O  O355  1  0.26357134  0.12000199  0.25642252  1
  O  O356  1  0.25712147  0.12121142  0.75992429  1
  O  O357  1  0.25288635  0.61238142  0.24883116  1
  O  O358  1  0.26393814  0.62771907  0.75146054  1
  O  O359  1  0.74422516  0.12166614  0.26445805  1
  O  O360  1  0.76368700  0.12648063  0.74440347  1
  O  O361  1  0.76369985  0.62279958  0.25202649  1
  O  O362  1  0.75490804  0.62242376  0.75263875  1
  O  O363  1  0.37216206  0.11629075  0.36957521  1
  O  O364  1  0.36002569  0.13492212  0.86506133  1
  O  O365  1  0.35697418  0.61797860  0.37449481  1
  O  O366  1  0.38031175  0.61432721  0.86530181  1
  O  O367  1  0.86282607  0.11850155  0.38343555  1
  O  O368  1  0.88124822  0.11529243  0.86710495  1
  O  O369  1  0.87745373  0.61960466  0.36774699  1
  O  O370  1  0.86421859  0.63436660  0.86268395  1
  O  O371  1  0.13908601  0.38343367  0.11516058  1
  O  O372  1  0.11789677  0.38457440  0.63899401  1
  O  O373  1  0.13880419  0.88079541  0.11888390  1
  O  O374  1  0.13242482  0.87840087  0.63447824  1
  O  O375  1  0.62785991  0.38248613  0.13014831  1
  O  O376  1  0.63170128  0.36971676  0.63966666  1
  O  O377  1  0.63580395  0.88067468  0.12105323  1
  O  O378  1  0.63493669  0.87643543  0.62867288  1
  O  O379  1  0.11149025  0.25131737  0.24544853  1
  O  O380  1  0.11605646  0.25816384  0.75822705  1
  O  O381  1  0.11911028  0.75642395  0.23633495  1
  O  O382  1  0.11977906  0.76087900  0.75147864  1
  O  O383  1  0.62292664  0.25061531  0.26359977  1
  O  O384  1  0.61814317  0.25432224  0.75717196  1
  O  O385  1  0.61709640  0.74628830  0.25677197  1
  O  O386  1  0.61719818  0.75462175  0.75716216  1
  O  O387  1  0.37655428  0.24001626  0.24404449  1
  O  O388  1  0.38096668  0.24623250  0.74548576  1
  O  O389  1  0.38861055  0.75181147  0.23494957  1
  O  O390  1  0.38162344  0.73795290  0.74958754  1
  O  O391  1  0.88126122  0.25309136  0.23647740  1
  O  O392  1  0.87998458  0.24620138  0.74929360  1
  O  O393  1  0.88209037  0.74140915  0.24610765  1
  O  O394  1  0.87904337  0.74292567  0.74488783  1
  O  O395  1  0.37368525  0.48487832  0.49928534  1
  O  O396  1  0.38289530  0.49375316  0.99534664  1
  O  O397  1  0.38079116  0.98949409  0.49062876  1
  O  O398  1  0.38137036  0.98351766  1.00570361  1
  O  O399  1  0.87889858  0.49683354  0.49404872  1
  O  O400  1  0.89298209  0.50346103  1.00816418  1
  O  O401  1  0.88403085  0.99862380  0.49145915  1
  O  O402  1  0.88836370  1.00457772  0.99116954  1
  O  O403  1  0.11497937  -0.00501800  0.01049098  1
  O  O404  1  0.11012118  -0.00066538  0.50474142  1
  O  O405  1  0.11954377  0.50281039  0.00501062  1
  O  O406  1  0.11078013  0.49011340  0.51031880  1
  O  O407  1  0.61941657  0.00458760  0.00766130  1
  O  O408  1  0.61801294  0.00793160  0.50065773  1
  O  O409  1  0.61756948  0.50734987  0.01129344  1
  O  O410  1  0.63009143  0.52110388  0.49653763  1
  O  O411  1  0.36930638  0.36851109  0.11747481  1
  O  O412  1  0.37572590  0.36821203  0.61340985  1
  O  O413  1  0.37117601  0.86448229  0.11478327  1
  O  O414  1  0.36717082  0.87471004  0.61504380  1
  O  O415  1  0.86358005  0.36454260  0.11625826  1
  O  O416  1  0.86659883  0.37318879  0.61938599  1
  O  O417  1  0.86854432  0.86147225  0.12328867  1
  O  O418  1  0.86994948  0.87305426  0.62168642  1
  O  O419  1  0.14502446  0.11432452  0.36774018  1
  O  O420  1  0.13719776  0.13727893  0.86726373  1
  O  O421  1  0.14735443  0.61635280  0.36765544  1
  O  O422  1  0.12377693  0.62513946  0.88652686  1
  O  O423  1  0.63094887  0.13319408  0.38137934  1
  O  O424  1  0.61910907  0.12881558  0.88738224  1
  O  O425  1  0.62947832  0.63866922  0.38099766  1
  O  O426  1  0.62899265  0.63212244  0.88042552  1
