# generated using pymatgen
data_V85Zn86O256
_symmetry_space_group_name_H-M   'P 1'
_cell_length_a   16.95522104
_cell_length_b   16.95353496
_cell_length_c   16.95330440
_cell_angle_alpha   90.11609617
_cell_angle_beta   89.99312523
_cell_angle_gamma   90.02193621
_symmetry_Int_Tables_number   1
_chemical_formula_structural   V85Zn86O256
_chemical_formula_sum   'V85 Zn86 O256'
_cell_volume   4873.23276532
_cell_formula_units_Z   1
loop_
 _symmetry_equiv_pos_site_id
 _symmetry_equiv_pos_as_xyz
  1  'x, y, z'
loop_
 _atom_site_type_symbol
 _atom_site_label
 _atom_site_symmetry_multiplicity
 _atom_site_fract_x
 _atom_site_fract_y
 _atom_site_fract_z
 _atom_site_occupancy
  V  V0  1  0.24936908  0.24913674  0.49908835  1
  V  V1  1  0.62088838  0.75995824  0.87416167  1
  V  V2  1  0.62553848  0.50316625  0.62288423  1
  V  V3  1  0.12501492  0.87371560  0.74656518  1
  V  V4  1  0.49683132  0.75822185  0.74570016  1
  V  V5  1  0.36631166  0.87765475  0.51757150  1
  V  V6  1  0.87069691  0.11173834  0.25160647  1
  V  V7  1  0.50107043  0.11902762  0.11857631  1
  V  V8  1  0.87626524  0.49662385  0.37596348  1
  V  V9  1  0.50422100  0.50412940  0.50119003  1
  V  V10  1  0.12294631  0.37204283  0.76300885  1
  V  V11  1  0.87280850  0.62611056  0.25115886  1
  V  V12  1  0.12669003  -0.00131372  0.62220820  1
  V  V13  1  0.25093612  0.75456048  0.51470134  1
  V  V14  1  0.11802865  0.62452695  0.50492985  1
  V  V15  1  0.11871952  0.75071837  0.86994358  1
  V  V16  1  0.74705205  0.62641238  0.87415138  1
  V  V17  1  0.50087025  0.36734741  0.37197818  1
  V  V18  1  0.38272347  0.12882633  0.24883666  1
  V  V19  1  0.12686324  0.87373115  0.24816461  1
  V  V20  1  0.24918124  0.25306722  0.00351867  1
  V  V21  1  0.50483396  0.36286643  0.87008808  1
  V  V22  1  0.87897688  0.24639399  0.62492211  1
  V  V23  1  0.00458335  0.25244851  0.76384213  1
  V  V24  1  0.75646155  -0.00270096  0.76029707  1
  V  V25  1  0.37653768  0.62760280  0.74077847  1
  V  V26  1  0.12494621  0.12859980  -0.00378439  1
  V  V27  1  0.38069564  0.62905514  0.24924961  1
  V  V28  1  0.74921463  0.36747319  0.62075534  1
  V  V29  1  0.24799036  0.12926747  0.87497726  1
  V  V30  1  0.89621403  0.74381693  0.62428521  1
  V  V31  1  0.50146835  -0.00287504  0.49448348  1
  V  V32  1  0.00076969  0.37348352  0.37469293  1
  V  V33  1  0.75016999  0.37055684  0.11662334  1
  V  V34  1  -0.00204243  0.49314792  -0.00226883  1
  V  V35  1  0.37590535  0.49978465  0.37560348  1
  V  V36  1  0.25010508  0.49584171  0.24693299  1
  V  V37  1  0.86968502  0.87767146  -0.00450210  1
  V  V38  1  0.37477956  0.37784473  0.00176620  1
  V  V39  1  -0.00485566  0.87483238  0.86960063  1
  V  V40  1  0.75358650  0.11128501  0.37089556  1
  V  V41  1  -0.00899826  -0.00132528  0.49804589  1
  V  V42  1  0.25031009  0.75758097  -0.00121948  1
  V  V43  1  0.74709115  0.86160528  0.62105876  1
  V  V44  1  0.37979934  0.25227717  0.12649139  1
  V  V45  1  0.37576113  0.25077397  0.62629676  1
  V  V46  1  0.62362947  0.13507782  -0.00644340  1
  V  V47  1  0.25010717  0.12636039  0.37420992  1
  V  V48  1  0.73969657  0.62963731  0.39302156  1
  V  V49  1  0.62922629  0.00323062  0.62602849  1
  V  V50  1  0.87770068  0.49589232  0.87570676  1
  V  V51  1  0.37876137  0.13046981  0.75136077  1
  V  V52  1  0.75426109  0.14484145  0.87956449  1
  V  V53  1  0.38912570  -0.00107061  0.87556141  1
  V  V54  1  0.25034402  0.62651002  0.37701969  1
  V  V55  1  0.87099844  0.25038588  0.12110078  1
  V  V56  1  0.11577906  0.50043931  0.62672010  1
  V  V57  1  0.63388016  0.13209963  0.49959440  1
  V  V58  1  0.74903239  0.49973633  0.25013961  1
  V  V59  1  -0.00239729  0.62641098  0.12618402  1
  V  V60  1  0.39079610  0.87940207  -0.00616415  1
  V  V61  1  0.63468893  -0.00302625  0.12673762  1
  V  V62  1  -0.00832836  0.87854302  0.37394490  1
  V  V63  1  0.63483311  0.25065951  0.37576165  1
  V  V64  1  0.50179636  0.13146130  0.62796589  1
  V  V65  1  0.37813069  -0.00777933  0.37233013  1
  V  V66  1  0.25118244  0.49840430  0.75016644  1
  V  V67  1  0.25159699  0.62629014  0.87307565  1
  V  V68  1  0.12484800  0.62630272  -0.00011173  1
  V  V69  1  0.12594565  0.75018578  0.37538308  1
  V  V70  1  0.37448971  0.37370218  0.50002944  1
  V  V71  1  -0.00055447  0.12421003  0.12414254  1
  V  V72  1  0.74914613  0.49838052  0.74994166  1
  V  V73  1  0.62258813  0.36078646  0.75134318  1
  V  V74  1  0.87333033  0.36797691  0.49896662  1
  V  V75  1  0.25066251  -0.00016252  0.24693321  1
  V  V76  1  0.74907837  0.75293061  0.00494612  1
  V  V77  1  0.88772659  0.62808650  0.74770843  1
  V  V78  1  -0.00336132  -0.00035309  -0.00656670  1
  V  V79  1  0.25090276  -0.00339547  0.74627083  1
  V  V80  1  0.62105538  0.36864607  0.24811326  1
  V  V81  1  0.62230702  0.50314740  0.12133631  1
  V  V82  1  0.12518581  0.24993815  0.37497388  1
  V  V83  1  0.12848533  0.49462444  0.12588781  1
  V  V84  1  0.00092434  0.24907758  0.24978849  1
  Zn  Zn85  1  0.87043246  0.86702150  0.49430241  1
  Zn  Zn86  1  0.50086888  0.50253876  -0.00538613  1
  Zn  Zn87  1  0.12227992  0.12494781  0.50027168  1
  Zn  Zn88  1  0.87133221  0.75229711  0.12648801  1
  Zn  Zn89  1  0.49869959  0.62858123  0.11932517  1
  Zn  Zn90  1  0.61961871  0.62722417  -0.00122186  1
  Zn  Zn91  1  0.88235304  0.11815392  0.75702333  1
  Zn  Zn92  1  0.37845531  0.75423317  0.12410263  1
  Zn  Zn93  1  0.50254009  0.62871272  0.62165604  1
  Zn  Zn94  1  0.12659490  -0.00132055  0.12098094  1
  Zn  Zn95  1  -0.00006510  0.12406323  0.62563944  1
  Zn  Zn96  1  0.61829521  0.88149379  0.75610161  1
  Zn  Zn97  1  -0.00172803  0.50104802  0.50337325  1
  Zn  Zn98  1  0.87387042  0.36781326  -0.00768179  1
  Zn  Zn99  1  0.25252373  0.87615452  0.12199473  1
  Zn  Zn100  1  0.61964890  0.86654673  0.28415464  1
  Zn  Zn101  1  0.76097835  0.89168717  0.15538850  1
  Zn  Zn102  1  0.12889579  0.37239095  0.24702840  1
  Zn  Zn103  1  0.38142341  0.50172478  0.87378459  1
  Zn  Zn104  1  -0.00119210  0.75066544  0.25106493  1
  Zn  Zn105  1  0.50193790  0.76311197  0.24440678  1
  Zn  Zn106  1  0.24714630  0.37215586  0.62653379  1
  Zn  Zn107  1  0.18907995  0.18682491  0.18468949  1
  Zn  Zn108  1  0.18615617  0.18579494  0.68780401  1
  Zn  Zn109  1  0.19162731  0.68591730  0.18583898  1
  Zn  Zn110  1  0.18349413  0.68454896  0.68836770  1
  Zn  Zn111  1  0.68746460  0.18446380  0.18747492  1
  Zn  Zn112  1  0.69435278  0.18410114  0.69100298  1
  Zn  Zn113  1  0.67995636  0.69302571  0.19486887  1
  Zn  Zn114  1  0.68496689  0.68470861  0.69437395  1
  Zn  Zn115  1  0.31295526  0.31251970  0.31157152  1
  Zn  Zn116  1  0.31321083  0.31458810  0.81621480  1
  Zn  Zn117  1  0.31323741  0.81150290  0.31718968  1
  Zn  Zn118  1  0.31408923  0.81334502  0.81298585  1
  Zn  Zn119  1  0.81321800  0.30780843  0.30704929  1
  Zn  Zn120  1  0.81558457  0.31391991  0.80530490  1
  Zn  Zn121  1  0.80141862  0.80662878  0.31763905  1
  Zn  Zn122  1  0.81129884  0.81052537  0.80756443  1
  Zn  Zn123  1  0.18750230  0.43726891  0.43739308  1
  Zn  Zn124  1  0.18918040  0.43878353  0.93944835  1
  Zn  Zn125  1  0.18649501  0.93790334  0.43502542  1
  Zn  Zn126  1  0.18826158  0.94181981  0.93086625  1
  Zn  Zn127  1  0.68949553  0.43945927  0.43789981  1
  Zn  Zn128  1  0.68564999  0.43530845  0.93485279  1
  Zn  Zn129  1  0.69220015  0.93600932  0.43990080  1
  Zn  Zn130  1  0.67817443  0.94311238  0.94660960  1
  Zn  Zn131  1  0.31528826  0.06102820  0.06065063  1
  Zn  Zn132  1  0.31143955  0.06434713  0.56217490  1
  Zn  Zn133  1  0.31253350  0.56577727  0.06310695  1
  Zn  Zn134  1  0.30788414  0.56095204  0.56289672  1
  Zn  Zn135  1  0.81178290  0.06516787  0.05789095  1
  Zn  Zn136  1  0.81225572  0.06220010  0.56350146  1
  Zn  Zn137  1  0.80947884  0.56206811  0.06128616  1
  Zn  Zn138  1  0.81762243  0.55844549  0.56745875  1
  Zn  Zn139  1  0.43809201  0.43984355  0.18646873  1
  Zn  Zn140  1  0.43951662  0.43647093  0.68917403  1
  Zn  Zn141  1  0.44467993  0.93460743  0.18220261  1
  Zn  Zn142  1  0.43854742  0.94430442  0.68704657  1
  Zn  Zn143  1  0.93848804  0.43613843  0.18658372  1
  Zn  Zn144  1  0.93726748  0.43359996  0.69177588  1
  Zn  Zn145  1  0.94139798  0.93525180  0.18100086  1
  Zn  Zn146  1  0.93681818  0.93304465  0.68284187  1
  Zn  Zn147  1  0.06076568  0.06210050  0.31305117  1
  Zn  Zn148  1  0.06285122  0.06285206  0.81148914  1
  Zn  Zn149  1  0.06288003  0.56178967  0.31458453  1
  Zn  Zn150  1  0.06410646  0.55952908  0.81446831  1
  Zn  Zn151  1  0.56525104  0.06049767  0.31027387  1
  Zn  Zn152  1  0.56820022  0.07022122  0.81199554  1
  Zn  Zn153  1  0.56320965  0.56230329  0.31377604  1
  Zn  Zn154  1  0.55978370  0.55867471  0.80960946  1
  Zn  Zn155  1  0.43984293  0.18461316  0.43765916  1
  Zn  Zn156  1  0.43711601  0.18781141  0.93852195  1
  Zn  Zn157  1  0.42848742  0.68697691  0.44823167  1
  Zn  Zn158  1  0.43894115  0.68869047  0.93241799  1
  Zn  Zn159  1  0.93703099  0.18366689  0.43614161  1
  Zn  Zn160  1  0.93462399  0.18505840  0.93740447  1
  Zn  Zn161  1  0.93439389  0.68941155  0.43532687  1
  Zn  Zn162  1  0.93481069  0.68630187  0.93760663  1
  Zn  Zn163  1  0.06151387  0.31056088  0.06156303  1
  Zn  Zn164  1  0.06236789  0.31421567  0.56621829  1
  Zn  Zn165  1  0.06082707  0.81285387  0.06083327  1
  Zn  Zn166  1  0.06507040  0.81557232  0.55969034  1
  Zn  Zn167  1  0.55964785  0.31076904  0.06014130  1
  Zn  Zn168  1  0.56224840  0.31512299  0.56059608  1
  Zn  Zn169  1  0.56433763  0.81129322  0.06679029  1
  Zn  Zn170  1  0.55660218  0.81786700  0.56211639  1
  O  O171  1  0.11881538  0.12278351  0.11390286  1
  O  O172  1  0.12274752  0.11160446  0.62387725  1
  O  O173  1  0.11641803  0.61833491  0.12073560  1
  O  O174  1  0.12898941  0.61416323  0.61630120  1
  O  O175  1  0.61962553  0.12199443  0.11717421  1
  O  O176  1  0.62174617  0.12375190  0.61984634  1
  O  O177  1  0.62726036  0.61187138  0.12567805  1
  O  O178  1  0.62715538  0.60626048  0.63158848  1
  O  O179  1  0.38368292  0.37830969  0.37807102  1
  O  O180  1  0.38629406  0.37617599  0.88225262  1
  O  O181  1  0.37213793  0.88998450  0.38195012  1
  O  O182  1  0.37061045  0.88522668  0.88437265  1
  O  O183  1  0.87762701  0.37501323  0.38123092  1
  O  O184  1  0.86670154  0.39131132  0.87490922  1
  O  O185  1  0.88839320  0.86410816  0.37478703  1
  O  O186  1  0.88583676  0.86573871  0.88048602  1
  O  O187  1  0.25771306  0.00532308  0.36534717  1
  O  O188  1  0.25834060  0.01141337  0.86514382  1
  O  O189  1  0.25573800  0.50633754  0.36876732  1
  O  O190  1  0.24924755  0.50696648  0.86332130  1
  O  O191  1  0.74941547  0.01231655  0.37692791  1
  O  O192  1  0.74486416  -0.00735271  0.86018611  1
  O  O193  1  0.75662332  0.50102662  0.36465094  1
  O  O194  1  0.75608289  0.50838507  0.87155552  1
  O  O195  1  0.23884433  0.50963212  0.13392741  1
  O  O196  1  0.24090186  0.49760283  0.63729803  1
  O  O197  1  0.24955681  0.99990626  0.13614708  1
  O  O198  1  0.24263714  1.00740483  0.63729360  1
  O  O199  1  0.74453243  0.49208299  0.13299480  1
  O  O200  1  0.74521079  0.48733038  0.62995030  1
  O  O201  1  0.74075354  1.00381370  0.12345940  1
  O  O202  1  0.74058490  0.99946692  0.63444177  1
  O  O203  1  0.00086616  0.36768416  0.25656239  1
  O  O204  1  0.00720939  0.36133006  0.74874081  1
  O  O205  1  0.00919879  0.87474053  0.25524806  1
  O  O206  1  0.01023458  0.88295884  0.75997302  1
  O  O207  1  0.51013563  0.38312290  0.26057209  1
  O  O208  1  0.50608673  0.37556749  0.76155518  1
  O  O209  1  0.50496406  0.87757415  0.25422608  1
  O  O210  1  0.49899810  0.86320483  0.74257209  1
  O  O211  1  0.48716219  0.12224099  0.24195940  1
  O  O212  1  0.49198446  0.12181195  0.73853911  1
  O  O213  1  0.48647071  0.62063576  0.25244718  1
  O  O214  1  0.49208665  0.63188406  0.74614550  1
  O  O215  1  0.99303116  0.12898363  0.24465778  1
  O  O216  1  0.99994455  0.13612181  0.74893087  1
  O  O217  1  0.99063854  0.62319454  0.24359609  1
  O  O218  1  0.98703666  0.62229602  0.75658131  1
  O  O219  1  0.36873936  0.25625942  0.00701592  1
  O  O220  1  0.37060779  0.25276364  0.50657774  1
  O  O221  1  0.36578649  0.76490660  -0.00970903  1
  O  O222  1  0.36785237  0.76930378  0.50000904  1
  O  O223  1  0.88251984  0.25162380  0.01546022  1
  O  O224  1  0.88101628  0.25942737  0.50940447  1
  O  O225  1  0.86669211  0.75833512  0.00061818  1
  O  O226  1  0.88015965  0.74871843  0.51901548  1
  O  O227  1  0.13129161  0.24880892  0.49486153  1
  O  O228  1  0.13385064  0.23979211  1.00505777  1
  O  O229  1  0.13190015  0.74422614  0.49645358  1
  O  O230  1  0.13119120  0.74681770  0.99135824  1
  O  O231  1  0.62014730  0.24015896  0.49175163  1
  O  O232  1  0.62929805  0.23496104  1.00829139  1
  O  O233  1  0.58167346  0.77299412  0.44634316  1
  O  O234  1  0.63307316  0.74924836  0.99099212  1
  O  O235  1  0.48768007  0.23830733  0.12062974  1
  O  O236  1  0.48958139  0.24093003  0.61728293  1
  O  O237  1  0.49476717  0.74501364  0.12574060  1
  O  O238  1  0.51288296  0.74489969  0.63856090  1
  O  O239  1  0.99368227  0.24371393  0.13002927  1
  O  O240  1  0.99177525  0.24715207  0.63160443  1
  O  O241  1  0.99836354  0.73679461  0.12595618  1
  O  O242  1  0.99433222  0.75547553  0.63032732  1
  O  O243  1  0.00555964  0.25335193  0.36931801  1
  O  O244  1  -0.00408471  0.24791886  0.86286982  1
  O  O245  1  0.00827700  0.75853902  0.37287796  1
  O  O246  1  0.01123659  0.75789826  0.88214953  1
  O  O247  1  0.50952823  0.26132760  0.37987620  1
  O  O248  1  0.49701333  0.26326305  0.87622188  1
  O  O249  1  0.52212250  0.74766728  0.40444669  1
  O  O250  1  0.51103380  0.74525756  0.85967656  1
  O  O251  1  0.24929213  0.13087446  0.49173188  1
  O  O252  1  0.24454261  0.12982296  0.99394951  1
  O  O253  1  0.24362358  0.63359639  0.49632002  1
  O  O254  1  0.24597883  0.63542509  0.99342795  1
  O  O255  1  0.73957087  0.12102582  0.49260478  1
  O  O256  1  0.74391609  0.12531050  0.98534369  1
  O  O257  1  0.75226734  0.60873757  0.49054165  1
  O  O258  1  0.75069527  0.63451485  0.98920886  1
  O  O259  1  0.26014724  0.36322524  -0.00977143  1
  O  O260  1  0.25762407  0.36840916  0.50176368  1
  O  O261  1  0.24766498  0.86720059  -0.00226316  1
  O  O262  1  0.25883174  0.87129983  0.49708061  1
  O  O263  1  0.75206898  0.37982933  0.01311028  1
  O  O264  1  0.75940221  0.37734709  0.50996789  1
  O  O265  1  0.75962882  0.86787875  -0.00772893  1
  O  O266  1  0.75607406  0.88336457  0.51846200  1
  O  O267  1  0.13323528  0.50204137  0.24298780  1
  O  O268  1  0.13078854  0.49441817  0.74529612  1
  O  O269  1  0.13466227  0.99223370  0.25009315  1
  O  O270  1  0.13208313  0.99404110  0.74422374  1
  O  O271  1  0.63243222  0.49017160  0.24266311  1
  O  O272  1  0.63016071  0.48803709  0.74146243  1
  O  O273  1  0.62041761  1.00530908  0.22902776  1
  O  O274  1  0.63234013  1.00049971  0.74115802  1
  O  O275  1  0.36865060  0.00726628  0.25452685  1
  O  O276  1  0.36859198  0.01023893  0.75401899  1
  O  O277  1  0.36839218  0.50660467  0.25475602  1
  O  O278  1  0.36544186  0.50597097  0.74930143  1
  O  O279  1  0.88099162  0.01283068  0.24184030  1
  O  O280  1  0.85982458  -0.00026557  0.74220003  1
  O  O281  1  0.86721721  0.50524804  0.25320000  1
  O  O282  1  0.87027920  0.50591179  0.75603767  1
  O  O283  1  0.11921623  0.36850933  0.37247508  1
  O  O284  1  0.12676100  0.38003374  0.86268954  1
  O  O285  1  0.11886666  0.87068366  0.36483120  1
  O  O286  1  0.11635855  0.86959464  0.86738377  1
  O  O287  1  0.62113074  0.36944750  0.36892290  1
  O  O288  1  0.61425506  0.37571308  0.86753227  1
  O  O289  1  0.60416229  0.88934153  0.39607717  1
  O  O290  1  0.62884474  0.86458673  0.87500138  1
  O  O291  1  0.38190610  0.12966008  0.12812631  1
  O  O292  1  0.38259640  0.13027994  0.63101273  1
  O  O293  1  0.37462072  0.62809020  0.13729438  1
  O  O294  1  0.37473186  0.62167164  0.63681127  1
  O  O295  1  0.87845912  0.13195710  0.12970410  1
  O  O296  1  0.87272536  0.13611928  0.63024434  1
  O  O297  1  0.88152585  0.62258788  0.13314212  1
  O  O298  1  0.87396433  0.63537715  0.63206702  1
  O  O299  1  0.26222954  0.24315869  0.11220542  1
  O  O300  1  0.26077066  0.24725861  0.61945145  1
  O  O301  1  0.25413198  0.75140326  0.11108890  1
  O  O302  1  0.24424469  0.74895017  0.61376899  1
  O  O303  1  0.75925553  0.25957819  0.13306352  1
  O  O304  1  0.76214987  0.25960559  0.63343111  1
  O  O305  1  0.74679874  0.74843825  0.11074289  1
  O  O306  1  0.73594792  0.76220268  0.62456480  1
  O  O307  1  0.24578481  0.24603901  0.37910488  1
  O  O308  1  0.25908477  0.23643425  0.88570489  1
  O  O309  1  0.24431180  0.74566121  0.38564352  1
  O  O310  1  0.23984682  0.74714096  0.88069256  1
  O  O311  1  0.73807441  0.24673411  0.37384417  1
  O  O312  1  0.75162808  0.24348445  0.87033832  1
  O  O313  1  0.75515091  0.72884418  0.38598790  1
  O  O314  1  0.74307717  0.74396373  0.87936662  1
  O  O315  1  0.00626781  0.11852515  0.00071205  1
  O  O316  1  0.00187774  0.11282678  0.50093751  1
  O  O317  1  0.00348481  0.61758850  0.00814224  1
  O  O318  1  0.01464437  0.62320425  0.49301239  1
  O  O319  1  0.51290705  0.12940572  0.00321147  1
  O  O320  1  0.50731607  0.11752262  0.50942511  1
  O  O321  1  0.50154259  0.62086659  -0.00027741  1
  O  O322  1  0.49253788  0.60848978  0.50421406  1
  O  O323  1  0.49388525  0.38194410  0.49137008  1
  O  O324  1  0.49318164  0.37599238  0.98875034  1
  O  O325  1  0.48162773  0.89129888  0.51271373  1
  O  O326  1  0.48831459  0.87165673  0.99614919  1
  O  O327  1  0.99102340  0.37537611  0.49311598  1
  O  O328  1  0.99626530  0.38953753  1.00636333  1
  O  O329  1  1.00011406  0.88130304  0.49026346  1
  O  O330  1  0.99268175  0.88065742  0.99196214  1
  O  O331  1  0.49663904  0.48967013  0.38306467  1
  O  O332  1  0.49879765  0.48751183  0.87625152  1
  O  O333  1  0.48944231  1.01504127  0.38667315  1
  O  O334  1  0.48815962  1.00586869  0.86513500  1
  O  O335  1  0.99331064  0.49197918  0.37575352  1
  O  O336  1  0.98983175  0.50779831  0.88628119  1
  O  O337  1  1.00621615  0.98952549  0.38490992  1
  O  O338  1  1.00442223  0.99039927  0.88415641  1
  O  O339  1  0.00360489  0.00543484  0.11019426  1
  O  O340  1  0.00852340  -0.00086003  0.61778821  1
  O  O341  1  0.00578827  0.50960547  0.11959588  1
  O  O342  1  0.01150864  0.49420133  0.62555681  1
  O  O343  1  0.50570824  0.01478165  0.12066036  1
  O  O344  1  0.50955336  0.01129239  0.61909663  1
  O  O345  1  0.51183492  0.50099411  0.12194177  1
  O  O346  1  0.50880304  0.49578979  0.61753953  1
  O  O347  1  0.25073811  0.39150141  0.25379201  1
  O  O348  1  0.24408867  0.38204664  0.75074734  1
  O  O349  1  0.24433973  0.88299415  0.25012267  1
  O  O350  1  0.23979871  0.88745641  0.75958838  1
  O  O351  1  0.74234505  0.38294583  0.24308385  1
  O  O352  1  0.74299896  0.37925495  0.74138514  1
  O  O353  1  0.73297708  0.86974889  0.25960711  1
  O  O354  1  0.74605718  0.88455362  0.73798744  1
  O  O355  1  0.25843863  0.11673041  0.25273008  1
  O  O356  1  0.25731847  0.11901632  0.75714013  1
  O  O357  1  0.25884104  0.61815783  0.25684839  1
  O  O358  1  0.25551214  0.61876473  0.75319199  1
  O  O359  1  0.75910511  0.12990362  0.25854482  1
  O  O360  1  0.74780990  0.11329598  0.76481387  1
  O  O361  1  0.75718453  0.61418697  0.25266278  1
  O  O362  1  0.75739904  0.61853181  0.75819909  1
  O  O363  1  0.37055604  0.12022773  0.36639998  1
  O  O364  1  0.36999753  0.11950710  0.86890835  1
  O  O365  1  0.37045973  0.62046820  0.37090504  1
  O  O366  1  0.36804777  0.62358839  0.86217355  1
  O  O367  1  0.86463668  0.13237387  0.36431103  1
  O  O368  1  0.85858808  0.12538627  0.87460590  1
  O  O369  1  0.86894132  0.61676144  0.36735193  1
  O  O370  1  0.86562393  0.61960708  0.86836417  1
  O  O371  1  0.11951315  0.39039739  0.12605904  1
  O  O372  1  0.12828585  0.38322218  0.63537419  1
  O  O373  1  0.12580021  0.87578870  0.13613532  1
  O  O374  1  0.12108526  0.88480041  0.63641857  1
  O  O375  1  0.62971260  0.37880153  0.13085101  1
  O  O376  1  0.63206574  0.37824209  0.63001814  1
  O  O377  1  0.62882147  0.89458221  0.11169258  1
  O  O378  1  0.63346114  0.88635925  0.62160120  1
  O  O379  1  0.12081274  0.25092499  0.25393437  1
  O  O380  1  0.11360455  0.25588617  0.74629694  1
  O  O381  1  0.12786633  0.75811266  0.25500696  1
  O  O382  1  0.13231724  0.75994064  0.75996288  1
  O  O383  1  0.62742200  0.26195888  0.25706272  1
  O  O384  1  0.62729401  0.26142296  0.74309331  1
  O  O385  1  0.61340367  0.74915567  0.26074080  1
  O  O386  1  0.61597869  0.75402967  0.75754516  1
  O  O387  1  0.36535596  0.23970960  0.23891057  1
  O  O388  1  0.36793447  0.23870502  0.74177016  1
  O  O389  1  0.37876376  0.74134968  0.25365134  1
  O  O390  1  0.38836636  0.74463225  0.75475621  1
  O  O391  1  0.88218161  0.24231583  0.23931670  1
  O  O392  1  0.88953571  0.25100977  0.74220402  1
  O  O393  1  0.87421020  0.73593786  0.24781961  1
  O  O394  1  0.86774349  0.74007931  0.73562653  1
  O  O395  1  0.38023449  0.49325113  0.49563466  1
  O  O396  1  0.37090501  0.48837527  0.99904979  1
  O  O397  1  0.37817313  0.99511499  0.49382917  1
  O  O398  1  0.37063347  0.98864120  0.98975225  1
  O  O399  1  0.87865274  0.48571342  0.49667485  1
  O  O400  1  0.88131077  0.50081157  0.99249683  1
  O  O401  1  0.88761394  0.99182413  0.51111806  1
  O  O402  1  0.88428973  0.99005392  1.00173680  1
  O  O403  1  0.11803550  0.00913695  -0.00094662  1
  O  O404  1  0.11966151  -0.00211296  0.50914421  1
  O  O405  1  0.11941672  0.50600171  0.00590691  1
  O  O406  1  0.12613279  0.50687714  0.50905852  1
  O  O407  1  0.62790215  0.01985250  0.01267671  1
  O  O408  1  0.61870592  0.01331020  0.51029093  1
  O  O409  1  0.62765476  0.50152452  0.01099179  1
  O  O410  1  0.61467860  0.48798737  0.51008487  1
  O  O411  1  0.38475628  0.36544866  0.11424558  1
  O  O412  1  0.37537504  0.36427054  0.62145375  1
  O  O413  1  0.37226538  0.87735613  0.10605973  1
  O  O414  1  0.36533986  0.88760839  0.61631114  1
  O  O415  1  0.86639494  0.36783685  0.12612052  1
  O  O416  1  0.86883005  0.36804639  0.61957635  1
  O  O417  1  0.87065021  0.87176039  0.11404299  1
  O  O418  1  0.86303857  0.85667548  0.63045416  1
  O  O419  1  0.13242362  0.13153419  0.37481279  1
  O  O420  1  0.13622754  0.11967444  0.88423928  1
  O  O421  1  0.13097487  0.62924617  0.38313428  1
  O  O422  1  0.12944809  0.63319833  0.87860891  1
  O  O423  1  0.63177971  0.13163329  0.37938160  1
  O  O424  1  0.63565887  0.12489793  0.88556530  1
  O  O425  1  0.64135110  0.61235508  0.37619339  1
  O  O426  1  0.63658948  0.63111724  0.87118351  1
