# generated using pymatgen
data_V85Zn86O256
_symmetry_space_group_name_H-M   'P 1'
_cell_length_a   16.98451690
_cell_length_b   16.98061750
_cell_length_c   16.97636469
_cell_angle_alpha   89.92563173
_cell_angle_beta   89.97832168
_cell_angle_gamma   89.98169630
_symmetry_Int_Tables_number   1
_chemical_formula_structural   V85Zn86O256
_chemical_formula_sum   'V85 Zn86 O256'
_cell_volume   4896.10761707
_cell_formula_units_Z   1
loop_
 _symmetry_equiv_pos_site_id
 _symmetry_equiv_pos_as_xyz
  1  'x, y, z'
loop_
 _atom_site_type_symbol
 _atom_site_label
 _atom_site_symmetry_multiplicity
 _atom_site_fract_x
 _atom_site_fract_y
 _atom_site_fract_z
 _atom_site_occupancy
  V  V0  1  0.62638804  0.12568421  0.00127629  1
  V  V1  1  0.87233787  0.62624575  0.75351410  1
  V  V2  1  0.75053894  0.88031971  0.62631806  1
  V  V3  1  0.75135466  0.75618565  0.00265279  1
  V  V4  1  0.75090436  0.62112324  0.87663768  1
  V  V5  1  0.76043745  0.37170049  0.62813705  1
  V  V6  1  0.13298526  0.87781138  0.74762430  1
  V  V7  1  -0.00110053  0.24808359  0.24827864  1
  V  V8  1  0.38009248  0.49222321  0.88591069  1
  V  V9  1  0.75031564  0.74986453  0.49876586  1
  V  V10  1  0.62368775  0.74926005  0.87556721  1
  V  V11  1  0.00334661  0.37355844  0.37389358  1
  V  V12  1  0.25803236  0.12094330  0.37381344  1
  V  V13  1  0.87581163  0.88226855  0.49371918  1
  V  V14  1  0.49555715  0.12527931  0.12872804  1
  V  V15  1  0.25094843  0.50195675  0.75249613  1
  V  V16  1  0.37330667  0.87986083  0.50567427  1
  V  V17  1  0.62707382  0.49553382  0.13309013  1
  V  V18  1  0.87696739  0.49832886  0.37780802  1
  V  V19  1  -0.00323544  0.88404561  0.37149167  1
  V  V20  1  0.49578045  0.88076191  0.37484864  1
  V  V21  1  0.62827590  0.87709908  0.74688612  1
  V  V22  1  0.25023804  0.75634257  0.50701369  1
  V  V23  1  0.25557401  -0.00275934  0.24864669  1
  V  V24  1  0.37187020  0.62410057  0.75829696  1
  V  V25  1  0.75185044  0.24882203  0.50439667  1
  V  V26  1  0.49812782  0.62666292  0.62524159  1
  V  V27  1  0.87033023  0.10592772  0.75053395  1
  V  V28  1  0.75411746  -0.00273324  0.25647416  1
  V  V29  1  0.12376961  0.11915296  -0.00072961  1
  V  V30  1  0.12702129  0.25178605  0.36917360  1
  V  V31  1  0.62795482  0.25754602  0.37113676  1
  V  V32  1  0.49872759  0.74973124  0.74964586  1
  V  V33  1  0.49976693  0.50106313  0.50029156  1
  V  V34  1  0.62453781  0.62454441  0.50039288  1
  V  V35  1  0.61823950  0.37304086  0.75131231  1
  V  V36  1  0.62560963  0.00599450  0.61789551  1
  V  V37  1  0.49929545  -0.00074915  0.00183921  1
  V  V38  1  0.25337054  0.12503170  0.86826505  1
  V  V39  1  -0.01114096  0.88074375  0.87866654  1
  V  V40  1  0.75440684  0.36787305  0.13400602  1
  V  V41  1  0.25230201  0.25939337  0.00644046  1
  V  V42  1  0.12586585  0.12448323  0.50003059  1
  V  V43  1  0.62413345  0.74933324  0.37423051  1
  V  V44  1  0.00515012  0.62280701  0.62522040  1
  V  V45  1  0.49788857  0.12824706  0.63706858  1
  V  V46  1  0.24730892  0.38032341  0.62351441  1
  V  V47  1  -0.00051097  0.75335065  0.74918261  1
  V  V48  1  -0.01717886  -0.00142900  -0.00351803  1
  V  V49  1  0.74462537  0.12265675  0.38181330  1
  V  V50  1  0.24650052  0.62824399  0.37695372  1
  V  V51  1  0.37165467  0.62457686  0.24944567  1
  V  V52  1  0.87220843  0.39506390  -0.00887094  1
  V  V53  1  0.74737379  0.50094043  0.75109452  1
  V  V54  1  0.00125444  0.74071525  0.25204638  1
  V  V55  1  -0.00881122  0.25053212  0.74651825  1
  V  V56  1  0.37260006  0.26184443  0.12480915  1
  V  V57  1  0.76034439  0.24708835  0.00210205  1
  V  V58  1  0.87632404  0.12046444  0.25862356  1
  V  V59  1  0.49957572  0.74973834  0.25100955  1
  V  V60  1  0.88274168  0.74867017  0.11976762  1
  V  V61  1  0.37028737  0.87391950  0.00117385  1
  V  V62  1  0.37340789  0.49916334  0.37425240  1
  V  V63  1  0.13208657  -0.00238571  0.62411479  1
  V  V64  1  -0.00351256  0.12787873  0.62369367  1
  V  V65  1  0.49910988  0.62065683  0.12362785  1
  V  V66  1  0.50338607  0.26159938  0.24959071  1
  V  V67  1  0.00756756  0.49976515  0.50735697  1
  V  V68  1  0.37685699  0.00641488  0.86890132  1
  V  V69  1  0.49933539  0.00967291  0.49481034  1
  V  V70  1  0.75245267  0.62329515  0.37239195  1
  V  V71  1  0.50025567  0.87518274  0.87483510  1
  V  V72  1  0.24815416  0.74026975  -0.00278258  1
  V  V73  1  0.62629564  0.25140630  0.87940778  1
  V  V74  1  0.37958621  0.37261948  0.50223509  1
  V  V75  1  0.24052941  0.48606950  0.24172915  1
  V  V76  1  0.62101198  0.61898911  0.00204668  1
  V  V77  1  0.12155550  0.25204641  0.87367204  1
  V  V78  1  0.25194018  0.25072773  0.49862965  1
  V  V79  1  0.87463543  0.75113695  0.62337264  1
  V  V80  1  0.10982562  0.61514570  0.00717095  1
  V  V81  1  0.62494678  -0.00336038  0.12829312  1
  V  V82  1  -0.00757333  0.12518817  0.12388113  1
  V  V83  1  0.12459942  0.37908916  0.74767313  1
  V  V84  1  0.12791981  0.74665100  0.87497402  1
  Zn  Zn85  1  0.12214613  0.87583389  0.24774787  1
  Zn  Zn86  1  0.75554538  0.87726244  0.12336394  1
  Zn  Zn87  1  0.24456715  0.87226767  0.12450101  1
  Zn  Zn88  1  0.50858482  0.38044284  0.36918165  1
  Zn  Zn89  1  0.12219722  -0.00474922  0.12437548  1
  Zn  Zn90  1  0.12382313  0.75286057  0.37784065  1
  Zn  Zn91  1  0.36946415  0.24236421  0.63940464  1
  Zn  Zn92  1  0.49877920  0.37669990  0.90091521  1
  Zn  Zn93  1  0.37838317  0.12333943  0.25484973  1
  Zn  Zn94  1  0.88128240  0.36932394  0.51251641  1
  Zn  Zn95  1  0.76227351  0.10968045  0.87772581  1
  Zn  Zn96  1  0.37246781  0.74917781  0.12435303  1
  Zn  Zn97  1  -0.00107976  0.00333715  0.49490522  1
  Zn  Zn98  1  0.87867284  0.61711824  0.24281701  1
  Zn  Zn99  1  0.12894046  0.62580524  0.50668336  1
  Zn  Zn100  1  0.49243101  0.24180018  0.76655327  1
  Zn  Zn101  1  0.36902509  0.75720666  0.63099235  1
  Zn  Zn102  1  0.00936857  0.40876410  0.89461689  1
  Zn  Zn103  1  0.62639919  0.87312979  0.25069930  1
  Zn  Zn104  1  0.74714189  0.48976067  0.25646885  1
  Zn  Zn105  1  0.62380118  0.49637936  0.62348426  1
  Zn  Zn106  1  0.25827264  0.00159506  0.74304237  1
  Zn  Zn107  1  0.18538888  0.18190082  0.18575453  1
  Zn  Zn108  1  0.18599177  0.18966504  0.68463021  1
  Zn  Zn109  1  0.18398753  0.68350328  0.18168322  1
  Zn  Zn110  1  0.18779267  0.68861909  0.69030836  1
  Zn  Zn111  1  0.68774073  0.18628571  0.19054960  1
  Zn  Zn112  1  0.68669576  0.18922784  0.68867094  1
  Zn  Zn113  1  0.68886313  0.68698012  0.18731125  1
  Zn  Zn114  1  0.68564329  0.69052585  0.68539131  1
  Zn  Zn115  1  0.31853893  0.31064920  0.30972310  1
  Zn  Zn116  1  0.31303017  0.31319749  0.81581430  1
  Zn  Zn117  1  0.31450203  0.81366929  0.31735514  1
  Zn  Zn118  1  0.31264682  0.81360918  0.81574822  1
  Zn  Zn119  1  0.82038022  0.30660390  0.31870109  1
  Zn  Zn120  1  0.80732662  0.31138087  0.81623885  1
  Zn  Zn121  1  0.81632336  0.81088844  0.30910839  1
  Zn  Zn122  1  0.80971850  0.81128434  0.81281013  1
  Zn  Zn123  1  0.18779360  0.43793474  0.43501112  1
  Zn  Zn124  1  0.19377021  0.44145858  0.93423923  1
  Zn  Zn125  1  0.18500427  0.93678758  0.43343523  1
  Zn  Zn126  1  0.18666031  0.93606212  0.93191231  1
  Zn  Zn127  1  0.68929638  0.43466334  0.44269967  1
  Zn  Zn128  1  0.68775294  0.43506531  0.94200072  1
  Zn  Zn129  1  0.68423624  0.93575443  0.43782036  1
  Zn  Zn130  1  0.69099169  0.93920355  0.93572920  1
  Zn  Zn131  1  0.31068490  0.06447988  0.06052615  1
  Zn  Zn132  1  0.31752423  0.06334728  0.55979383  1
  Zn  Zn133  1  0.30131388  0.56375789  0.06435073  1
  Zn  Zn134  1  0.31346288  0.56470591  0.56491081  1
  Zn  Zn135  1  0.81060201  0.06504504  0.06919072  1
  Zn  Zn136  1  0.81389648  0.06441111  0.56409094  1
  Zn  Zn137  1  0.80926961  0.56460148  0.06712837  1
  Zn  Zn138  1  0.81544807  0.55839358  0.56491418  1
  Zn  Zn139  1  0.43523060  0.44245252  0.06696760  1
  Zn  Zn140  1  0.43455061  0.43796319  0.68778159  1
  Zn  Zn141  1  0.43471065  0.93648201  0.18911534  1
  Zn  Zn142  1  0.44289267  0.94067812  0.68473603  1
  Zn  Zn143  1  0.93125434  0.42678687  0.18977189  1
  Zn  Zn144  1  0.94819554  0.45120743  0.71391387  1
  Zn  Zn145  1  0.93662181  0.93350137  0.18352562  1
  Zn  Zn146  1  0.94406600  0.93771476  0.68353248  1
  Zn  Zn147  1  0.07022280  0.06176767  0.31036927  1
  Zn  Zn148  1  0.06140160  0.06188501  0.81013909  1
  Zn  Zn149  1  0.06545393  0.56057827  0.31524465  1
  Zn  Zn150  1  0.06356998  0.56413465  0.81593343  1
  Zn  Zn151  1  0.56667599  0.06642312  0.31311933  1
  Zn  Zn152  1  0.58902708  0.05098717  0.82185546  1
  Zn  Zn153  1  0.56147062  0.56256655  0.31141418  1
  Zn  Zn154  1  0.56003690  0.56014438  0.81436136  1
  Zn  Zn155  1  0.44253620  0.19115655  0.43850104  1
  Zn  Zn156  1  0.43825100  0.19017306  0.94086396  1
  Zn  Zn157  1  0.43394967  0.69214486  0.43870081  1
  Zn  Zn158  1  0.43669910  0.68612793  0.93737787  1
  Zn  Zn159  1  0.93403440  0.18655025  0.43804707  1
  Zn  Zn160  1  0.93780973  0.18523853  0.93030065  1
  Zn  Zn161  1  0.93752644  0.68845962  0.43848884  1
  Zn  Zn162  1  0.93824662  0.68993387  0.93603493  1
  Zn  Zn163  1  0.05277915  0.30879177  0.05768683  1
  Zn  Zn164  1  0.06494674  0.31153045  0.56246794  1
  Zn  Zn165  1  0.06386770  0.81215471  0.06123566  1
  Zn  Zn166  1  0.06308567  0.81361747  0.56041724  1
  Zn  Zn167  1  0.56993482  0.31040210  0.06960994  1
  Zn  Zn168  1  0.57130979  0.30972117  0.56140751  1
  Zn  Zn169  1  0.56151287  0.80946253  0.06312804  1
  Zn  Zn170  1  0.56014605  0.81349964  0.55959303  1
  O  O171  1  0.11343468  0.12204559  0.11339455  1
  O  O172  1  0.11804698  0.11868178  0.62004364  1
  O  O173  1  0.12395941  0.62210359  0.10689974  1
  O  O174  1  0.10879201  0.62888992  0.62885780  1
  O  O175  1  0.61671141  0.11680415  0.12262550  1
  O  O176  1  0.62016637  0.11205758  0.62919763  1
  O  O177  1  0.61989083  0.61873900  0.12023158  1
  O  O178  1  0.61417790  0.62509443  0.61995597  1
  O  O179  1  0.37715417  0.38395595  0.38558181  1
  O  O180  1  0.37696744  0.38881413  0.87763459  1
  O  O181  1  0.38987066  0.87085556  0.38531056  1
  O  O182  1  0.38030636  0.88337880  0.88385084  1
  O  O183  1  0.88629171  0.38273269  0.37975145  1
  O  O184  1  0.86299109  0.37820470  0.89044509  1
  O  O185  1  0.88230097  0.86965660  0.38429584  1
  O  O186  1  0.89009471  0.87024162  0.86862966  1
  O  O187  1  0.24409766  0.01054688  0.36269417  1
  O  O188  1  0.25918859  0.00874368  0.87401447  1
  O  O189  1  0.25793024  0.50998070  0.37494841  1
  O  O190  1  0.26685506  0.49599715  0.86226423  1
  O  O191  1  0.73918391  0.00845426  0.36584253  1
  O  O192  1  0.69967948  0.01893498  0.86181701  1
  O  O193  1  0.75895044  0.50454482  0.37714425  1
  O  O194  1  0.74197875  0.51434215  0.86814211  1
  O  O195  1  0.25372108  0.50018465  0.14276475  1
  O  O196  1  0.25874061  0.48902314  0.63520650  1
  O  O197  1  0.24850197  1.00120593  0.13638971  1
  O  O198  1  0.23759001  1.01037368  0.62665094  1
  O  O199  1  0.74488467  0.49064155  0.13218095  1
  O  O200  1  0.74449001  0.49345004  0.63314682  1
  O  O201  1  0.74106183  0.99863187  0.13422073  1
  O  O202  1  0.74137531  0.98753149  0.61602175  1
  O  O203  1  -0.00673878  0.36091499  0.26347815  1
  O  O204  1  0.01758510  0.36092854  0.73315934  1
  O  O205  1  -0.00363398  0.86560349  0.25799908  1
  O  O206  1  0.00841108  0.87263717  0.75896701  1
  O  O207  1  0.49723766  0.36048488  0.25019311  1
  O  O208  1  0.51525581  0.37799477  0.74611349  1
  O  O209  1  0.49944256  0.86967475  0.25833445  1
  O  O210  1  0.50715671  0.86791615  0.75386708  1
  O  O211  1  0.49916768  0.12890568  0.24070888  1
  O  O212  1  0.50890763  0.12230578  0.73859594  1
  O  O213  1  0.49047474  0.62919563  0.24481804  1
  O  O214  1  0.49386119  0.62935854  0.74392444  1
  O  O215  1  0.99487880  0.12588556  0.24478706  1
  O  O216  1  0.99130938  0.13031564  0.74383230  1
  O  O217  1  0.99886320  0.63701487  0.25807502  1
  O  O218  1  0.98966163  0.63377938  0.74349885  1
  O  O219  1  0.35862891  0.24669863  0.00607567  1
  O  O220  1  0.37126055  0.26133401  0.49981012  1
  O  O221  1  0.36614407  0.75714200  -0.00407389  1
  O  O222  1  0.36767746  0.75978161  0.50386199  1
  O  O223  1  0.86206834  0.24528883  -0.00534149  1
  O  O224  1  0.85944894  0.25413767  0.49274015  1
  O  O225  1  0.86686969  0.74377944  0.01161500  1
  O  O226  1  0.86942180  0.75872685  0.50473360  1
  O  O227  1  0.13198673  0.24467199  0.49024826  1
  O  O228  1  0.12864774  0.24172006  0.99397314  1
  O  O229  1  0.13554985  0.74892298  0.49861243  1
  O  O230  1  0.12920799  0.74221352  0.99267188  1
  O  O231  1  0.64066535  0.25337272  0.48696042  1
  O  O232  1  0.63725747  0.24608617  0.99742588  1
  O  O233  1  0.63032797  0.74429460  0.49418226  1
  O  O234  1  0.63176736  0.74028909  0.99672988  1
  O  O235  1  0.49500138  0.24205935  0.13112894  1
  O  O236  1  0.50798041  0.23165008  0.62098061  1
  O  O237  1  0.49829503  0.73866971  0.13194195  1
  O  O238  1  0.49838082  0.74112807  0.63003663  1
  O  O239  1  1.00800210  0.23809971  0.13684673  1
  O  O240  1  1.01014356  0.23636262  0.63286243  1
  O  O241  1  0.98911620  0.75263246  0.13386936  1
  O  O242  1  0.99345452  0.74440704  0.62883729  1
  O  O243  1  0.00774889  0.25367050  0.37099828  1
  O  O244  1  0.01334166  0.24712616  0.86513552  1
  O  O245  1  -0.00178634  0.75660000  0.36354837  1
  O  O246  1  0.00668298  0.76281587  0.87015339  1
  O  O247  1  0.51047132  0.25151679  0.36790226  1
  O  O248  1  0.50894865  0.25987692  0.88257300  1
  O  O249  1  0.50477833  0.75632689  0.37066382  1
  O  O250  1  0.50463853  0.75478851  0.86988748  1
  O  O251  1  0.24650088  0.13021647  0.49263468  1
  O  O252  1  0.23899566  0.13091370  0.99129918  1
  O  O253  1  0.25202330  0.63273369  0.49375713  1
  O  O254  1  0.24183142  0.63666488  0.99828338  1
  O  O255  1  0.75729481  0.13134675  0.49020072  1
  O  O256  1  0.74418071  0.13064549  1.00172176  1
  O  O257  1  0.74642470  0.62862864  0.49249051  1
  O  O258  1  0.74207156  0.63414202  0.99310317  1
  O  O259  1  0.23863390  0.35759513  -0.00000241  1
  O  O260  1  0.25761781  0.37314938  0.50539096  1
  O  O261  1  0.25830221  0.86950384  -0.00150183  1
  O  O262  1  0.26105512  0.86777544  0.48916414  1
  O  O263  1  0.75881762  0.36754737  0.00761021  1
  O  O264  1  0.75483106  0.36965970  0.51201027  1
  O  O265  1  0.74315139  0.86061607  -0.00193605  1
  O  O266  1  0.75641281  0.86979598  0.50533170  1
  O  O267  1  0.14223395  0.50215420  0.25949433  1
  O  O268  1  0.14017983  0.48968432  0.75774058  1
  O  O269  1  0.13923798  0.99893480  0.24495857  1
  O  O270  1  0.12700679  0.99401928  0.74256250  1
  O  O271  1  0.62804099  0.50390629  0.23883978  1
  O  O272  1  0.63378441  0.49410567  0.75024804  1
  O  O273  1  0.63430461  1.00110692  0.24162178  1
  O  O274  1  0.61318409  0.98188224  0.73109435  1
  O  O275  1  0.36137952  0.00433836  0.24706045  1
  O  O276  1  0.37629488  -0.00773911  0.76450423  1
  O  O277  1  0.36247697  0.51304319  0.26352650  1
  O  O278  1  0.37031267  0.50589361  0.75771120  1
  O  O279  1  0.86334698  0.00685907  0.24370796  1
  O  O280  1  0.87518830  0.00656785  0.74601392  1
  O  O281  1  0.87665115  0.49994793  0.26390829  1
  O  O282  1  0.85473209  0.51593783  0.74329047  1
  O  O283  1  0.11497070  0.36327137  0.38156311  1
  O  O284  1  0.12381276  0.36756353  0.86671401  1
  O  O285  1  0.11271960  0.87040056  0.37025709  1
  O  O286  1  0.11618534  0.86804155  0.86649526  1
  O  O287  1  0.62715202  0.36486075  0.37479533  1
  O  O288  1  0.62685369  0.36756524  0.86965094  1
  O  O289  1  0.61371872  0.86677145  0.37482528  1
  O  O290  1  0.61948982  0.86809002  0.86543166  1
  O  O291  1  0.38663803  0.13154527  0.12172162  1
  O  O292  1  0.39240250  0.12497317  0.62388138  1
  O  O293  1  0.38198290  0.62396893  0.13321145  1
  O  O294  1  0.38589112  0.62585233  0.63531944  1
  O  O295  1  0.88631383  0.12358483  0.13688082  1
  O  O296  1  0.88764874  0.11950132  0.63448807  1
  O  O297  1  0.86690145  0.64057049  0.12951618  1
  O  O298  1  0.87905868  0.63225224  0.63336326  1
  O  O299  1  0.25498707  0.24117704  0.11381421  1
  O  O300  1  0.25200536  0.25854532  0.61689755  1
  O  O301  1  0.25280409  0.75197055  0.11303303  1
  O  O302  1  0.25122839  0.74532866  0.61229542  1
  O  O303  1  0.74415323  0.26094487  0.11841178  1
  O  O304  1  0.74283636  0.25877879  0.61580054  1
  O  O305  1  0.75473130  0.75225835  0.11776041  1
  O  O306  1  0.75368342  0.75924358  0.61839712  1
  O  O307  1  0.24296197  0.24477692  0.37708262  1
  O  O308  1  0.24193469  0.24460403  0.88633012  1
  O  O309  1  0.25135720  0.74168370  0.38435131  1
  O  O310  1  0.23832005  0.75778687  0.88443038  1
  O  O311  1  0.74518938  0.24303486  0.37904306  1
  O  O312  1  0.74019711  0.24271675  0.88389870  1
  O  O313  1  0.74649753  0.74188418  0.37925275  1
  O  O314  1  0.74367479  0.74143178  0.88147493  1
  O  O315  1  0.00356714  0.11946586  0.00407310  1
  O  O316  1  0.00480747  0.12532349  0.50634218  1
  O  O317  1  0.01031036  0.62745188  -0.00506536  1
  O  O318  1  0.00016490  0.61888288  0.50889902  1
  O  O319  1  0.50533271  0.12036051  0.01164682  1
  O  O320  1  0.49866911  0.11396755  0.50320225  1
  O  O321  1  0.51072679  0.63266099  0.00969047  1
  O  O322  1  0.50229021  0.62226550  0.50683550  1
  O  O323  1  0.49309842  0.38073704  0.50132282  1
  O  O324  1  0.51087773  0.38318787  1.01169279  1
  O  O325  1  0.49353093  0.88275545  0.49335392  1
  O  O326  1  0.49237295  0.87762255  0.99474392  1
  O  O327  1  0.99922748  0.38045019  0.49545603  1
  O  O328  1  0.97822286  0.36901818  0.99556858  1
  O  O329  1  0.99170670  0.87443628  0.49012336  1
  O  O330  1  1.00337392  0.88252106  0.98612548  1
  O  O331  1  0.48970138  0.50056265  0.37954125  1
  O  O332  1  0.48532662  0.49684126  0.87376300  1
  O  O333  1  0.51005168  0.99162311  0.38165348  1
  O  O334  1  0.49631980  0.99558077  0.88206068  1
  O  O335  1  0.99575767  0.49245612  0.38331060  1
  O  O336  1  0.98586230  0.48707634  0.82325506  1
  O  O337  1  1.00437442  0.98918796  0.37410459  1
  O  O338  1  1.00314685  0.98846073  0.88034875  1
  O  O339  1  -0.00014948  0.00725745  0.11468314  1
  O  O340  1  0.01222291  0.01131838  0.62217987  1
  O  O341  1  0.03364471  0.46045527  0.12935144  1
  O  O342  1  -0.00970436  0.51119967  0.61853399  1
  O  O343  1  0.50489643  0.00669562  0.12346922  1
  O  O344  1  0.50612916  0.01111107  0.61582056  1
  O  O345  1  0.50848520  0.51495127  0.12625662  1
  O  O346  1  0.50033483  0.51095264  0.61976739  1
  O  O347  1  0.25326945  0.38773875  0.25925385  1
  O  O348  1  0.24390322  0.38010456  0.74283972  1
  O  O349  1  0.25231905  0.88733047  0.25219954  1
  O  O350  1  0.23696097  0.87789543  0.75467099  1
  O  O351  1  0.76335750  0.36910097  0.23722367  1
  O  O352  1  0.74169967  0.38209414  0.74770547  1
  O  O353  1  0.74753771  0.88481591  0.25102481  1
  O  O354  1  0.73983106  0.86691164  0.73841128  1
  O  O355  1  0.25128426  0.11628063  0.25649769  1
  O  O356  1  0.24417650  0.12637899  0.76491441  1
  O  O357  1  0.25631529  0.62531213  0.25888201  1
  O  O358  1  0.26129694  0.61531487  0.74148966  1
  O  O359  1  0.75843351  0.11878764  0.25703786  1
  O  O360  1  0.77062436  0.13182605  0.74326158  1
  O  O361  1  0.75127819  0.62324351  0.26562154  1
  O  O362  1  0.75123435  0.62311857  0.75655400  1
  O  O363  1  0.36133655  0.13345514  0.37611955  1
  O  O364  1  0.36718343  0.11596720  0.88480496  1
  O  O365  1  0.36814255  0.61939165  0.37080149  1
  O  O366  1  0.38087023  0.61471626  0.86411310  1
  O  O367  1  0.86536341  0.12341497  0.36565524  1
  O  O368  1  0.87694922  0.12250327  0.85660666  1
  O  O369  1  0.86738669  0.61537009  0.37755661  1
  O  O370  1  0.86338930  0.63612155  0.86317660  1
  O  O371  1  0.08789368  0.40650754  0.12247942  1
  O  O372  1  0.13908746  0.37045976  0.63177523  1
  O  O373  1  0.12724681  0.87808166  0.12829783  1
  O  O374  1  0.11551266  0.88629697  0.63485325  1
  O  O375  1  0.64443981  0.38429269  0.12238215  1
  O  O376  1  0.63527635  0.37567466  0.63547112  1
  O  O377  1  0.62327076  0.88694962  0.12686279  1
  O  O378  1  0.63243153  0.87714403  0.62806810  1
  O  O379  1  0.11503381  0.23991869  0.26116917  1
  O  O380  1  0.12384342  0.25763407  0.75873814  1
  O  O381  1  0.10983139  0.74971255  0.24747261  1
  O  O382  1  0.12047952  0.75825609  0.75509761  1
  O  O383  1  0.61682156  0.24524198  0.25857589  1
  O  O384  1  0.62285217  0.25686723  0.76184996  1
  O  O385  1  0.61806924  0.74985044  0.25611807  1
  O  O386  1  0.61888847  0.75762968  0.75422969  1
  O  O387  1  0.38336799  0.24365064  0.24160067  1
  O  O388  1  0.38320550  0.25924081  0.74934675  1
  O  O389  1  0.37886504  0.73891404  0.25069532  1
  O  O390  1  0.37835659  0.74205980  0.75191814  1
  O  O391  1  0.88967732  0.23567756  0.25702056  1
  O  O392  1  0.89037358  0.25424689  0.75621289  1
  O  O393  1  0.88529542  0.74484667  0.24172107  1
  O  O394  1  0.87775368  0.74397687  0.74338269  1
  O  O395  1  0.37896154  0.49393330  0.49269579  1
  O  O396  1  0.36918272  0.50494715  0.99052533  1
  O  O397  1  0.38641883  0.99177111  0.50134122  1
  O  O398  1  0.37932158  0.99236788  0.99234474  1
  O  O399  1  0.88592599  0.49745995  0.49193047  1
  O  O400  1  0.86789636  0.49450574  0.99758209  1
  O  O401  1  0.87795639  0.98578046  0.50587229  1
  O  O402  1  0.88342973  1.00558704  1.00080974  1
  O  O403  1  0.11771686  0.01083151  -0.00415818  1
  O  O404  1  0.12437493  0.00580045  0.50699471  1
  O  O405  1  0.12568050  0.51737597  -0.01972919  1
  O  O406  1  0.11162741  0.50280497  0.49631884  1
  O  O407  1  0.61843249  0.00426935  0.01279772  1
  O  O408  1  0.61332887  -0.00821215  0.51004310  1
  O  O409  1  0.63530748  0.51363494  0.01181019  1
  O  O410  1  0.61764818  0.50686217  0.50003652  1
  O  O411  1  0.37536640  0.36048120  0.12449947  1
  O  O412  1  0.36784344  0.37420575  0.61433330  1
  O  O413  1  0.37489086  0.87265262  0.11092300  1
  O  O414  1  0.38188386  0.87468363  0.61239957  1
  O  O415  1  0.86121358  0.38019790  0.11079879  1
  O  O416  1  0.86213988  0.38187460  0.63457452  1
  O  O417  1  0.87083531  0.85602878  0.12807990  1
  O  O418  1  0.86878585  0.87066132  0.61880524  1
  O  O419  1  0.13385199  0.13359065  0.38090822  1
  O  O420  1  0.13021377  0.13239922  0.88082643  1
  O  O421  1  0.13732590  0.62899144  0.37961818  1
  O  O422  1  0.11900542  0.64245249  0.87536899  1
  O  O423  1  0.63843518  0.13657194  0.37167267  1
  O  O424  1  0.61205577  0.14431014  0.88615059  1
  O  O425  1  0.63243075  0.62840009  0.38074762  1
  O  O426  1  0.62939042  0.62936350  0.88247921  1
