# generated using pymatgen
data_V85Zn86O256
_symmetry_space_group_name_H-M   'P 1'
_cell_length_a   16.96449747
_cell_length_b   16.97857394
_cell_length_c   16.95724494
_cell_angle_alpha   89.91907308
_cell_angle_beta   89.93455124
_cell_angle_gamma   89.93117749
_symmetry_Int_Tables_number   1
_chemical_formula_structural   V85Zn86O256
_chemical_formula_sum   'V85 Zn86 O256'
_cell_volume   4884.23413107
_cell_formula_units_Z   1
loop_
 _symmetry_equiv_pos_site_id
 _symmetry_equiv_pos_as_xyz
  1  'x, y, z'
loop_
 _atom_site_type_symbol
 _atom_site_label
 _atom_site_symmetry_multiplicity
 _atom_site_fract_x
 _atom_site_fract_y
 _atom_site_fract_z
 _atom_site_occupancy
  V  V0  1  0.25056801  0.24096644  0.48923730  1
  V  V1  1  0.24894107  0.00851810  0.76743155  1
  V  V2  1  0.49961402  0.87282408  0.86901096  1
  V  V3  1  0.62641728  0.37708093  0.74430164  1
  V  V4  1  0.63162550  0.25399051  0.87657799  1
  V  V5  1  0.74805613  0.49947094  0.74646781  1
  V  V6  1  0.50009500  0.62359617  0.12503019  1
  V  V7  1  0.38194082  0.74648521  0.64312100  1
  V  V8  1  0.50803982  0.24977460  0.25418705  1
  V  V9  1  0.62221355  0.49868564  0.60995058  1
  V  V10  1  0.50045113  0.37647276  0.87294821  1
  V  V11  1  0.12081272  0.61600251  0.51281815  1
  V  V12  1  0.87176891  0.00720976  0.37234889  1
  V  V13  1  0.86904233  0.75476861  0.12430958  1
  V  V14  1  0.37467364  0.37521626  0.00022264  1
  V  V15  1  -0.00530149  0.37304764  0.88341827  1
  V  V16  1  0.62787710  0.12309245  0.49000872  1
  V  V17  1  0.62174152  0.74935106  0.86602593  1
  V  V18  1  0.74524312  0.74511313  0.49847943  1
  V  V19  1  0.49959672  0.50088788  -0.00033528  1
  V  V20  1  0.25102744  0.75065512  0.50317350  1
  V  V21  1  0.86753391  0.25753169  0.11459687  1
  V  V22  1  0.49626295  0.00108609  -0.00729654  1
  V  V23  1  0.24859239  0.88533387  0.62592848  1
  V  V24  1  0.88091458  0.62989751  0.73809074  1
  V  V25  1  0.38370551  0.50049924  0.37994047  1
  V  V26  1  0.50668611  0.37138765  0.37359590  1
  V  V27  1  0.12376134  0.37719039  0.74612369  1
  V  V28  1  0.37470356  0.50358402  0.86818284  1
  V  V29  1  0.01095178  0.00902419  0.50244320  1
  V  V30  1  0.25048652  0.24824747  0.00211026  1
  V  V31  1  0.12265487  0.88081008  0.74845521  1
  V  V32  1  0.50830042  0.62504421  0.62595015  1
  V  V33  1  0.50125093  0.12706134  0.12421555  1
  V  V34  1  0.37250065  0.12310303  0.76346953  1
  V  V35  1  0.50148641  0.74917238  0.24984196  1
  V  V36  1  0.25125398  0.62382636  0.37786709  1
  V  V37  1  -0.00498045  0.24147905  0.75025885  1
  V  V38  1  -0.00838856  0.12496750  0.13224916  1
  V  V39  1  0.87681640  0.50058412  0.87559264  1
  V  V40  1  0.63219972  0.49244532  0.12469924  1
  V  V41  1  0.49949533  0.11467475  0.61996042  1
  V  V42  1  0.38104448  0.87644225  0.50160288  1
  V  V43  1  0.12884968  0.12524975  0.00488554  1
  V  V44  1  0.37379474  0.25090935  0.62746946  1
  V  V45  1  0.12759534  0.87276219  0.24879193  1
  V  V46  1  0.12212931  0.50097357  0.12287120  1
  V  V47  1  0.86761405  0.24056506  0.62550016  1
  V  V48  1  0.37589810  0.62486625  0.25116331  1
  V  V49  1  0.63024812  0.87185969  0.24667417  1
  V  V50  1  0.25096116  0.49920948  0.25130348  1
  V  V51  1  0.75263397  0.00229890  0.25099141  1
  V  V52  1  0.63212050  -0.00561765  0.12283514  1
  V  V53  1  0.12597445  0.74722237  0.37696895  1
  V  V54  1  0.37467652  0.12417227  0.25427470  1
  V  V55  1  0.74953619  0.00045412  0.74585169  1
  V  V56  1  0.63093799  0.12722791  -0.00339749  1
  V  V57  1  0.37578133  0.74947206  0.12387566  1
  V  V58  1  0.37469179  0.87876996  -0.00304234  1
  V  V59  1  0.87557208  0.00193868  0.86973781  1
  V  V60  1  0.37816565  0.00066462  0.37815162  1
  V  V61  1  0.24625193  0.50029513  0.74533562  1
  V  V62  1  0.86677448  0.38040306  0.50868316  1
  V  V63  1  0.25232483  0.62629970  0.86990516  1
  V  V64  1  0.24961806  0.75003786  -0.00022666  1
  V  V65  1  0.87291416  0.62460716  0.25880849  1
  V  V66  1  0.12702190  0.24657588  0.87676608  1
  V  V67  1  -0.00376386  0.38560468  0.38390042  1
  V  V68  1  0.87593435  0.87105131  0.50252780  1
  V  V69  1  -0.00115715  0.74806297  0.24987148  1
  V  V70  1  0.62394500  0.62644698  -0.00185384  1
  V  V71  1  -0.00272666  0.75133956  0.73856824  1
  V  V72  1  0.75440657  0.86998058  0.62654442  1
  V  V73  1  -0.00844135  0.24946064  0.25322209  1
  V  V74  1  0.38063594  0.37858238  0.50168077  1
  V  V75  1  0.12303814  0.37355218  0.25715996  1
  V  V76  1  -0.00173408  -0.00197899  0.00107753  1
  V  V77  1  0.74757857  0.75766379  0.00319148  1
  V  V78  1  0.50356388  0.87581497  0.37754009  1
  V  V79  1  0.25199697  -0.00124885  0.25305832  1
  V  V80  1  0.00025568  0.87450625  0.37601746  1
  V  V81  1  0.75610252  0.49415834  0.25178734  1
  V  V82  1  0.24934400  0.37444373  0.12457917  1
  V  V83  1  0.75339619  0.12638420  0.86840982  1
  V  V84  1  0.12292364  0.62432928  -0.00403334  1
  Zn  Zn85  1  0.01007600  0.12259671  0.62622662  1
  Zn  Zn86  1  0.63837254  0.36590356  0.25083951  1
  Zn  Zn87  1  -0.00844560  0.49983642  0.00178709  1
  Zn  Zn88  1  0.73984430  0.25630207  0.49389404  1
  Zn  Zn89  1  -0.00295822  0.87256967  0.87460085  1
  Zn  Zn90  1  0.37493345  0.25119314  0.12643708  1
  Zn  Zn91  1  -0.00366447  0.62499741  0.12334549  1
  Zn  Zn92  1  0.62039535  -0.00573439  0.62014375  1
  Zn  Zn93  1  0.11317356  0.22196019  0.39510325  1
  Zn  Zn94  1  -0.00136776  0.50258177  0.52005655  1
  Zn  Zn95  1  0.12408079  -0.00057126  0.12736541  1
  Zn  Zn96  1  0.74452221  0.61889078  0.38119390  1
  Zn  Zn97  1  0.62097843  0.73945871  0.38044199  1
  Zn  Zn98  1  0.75243987  0.62858575  0.87360384  1
  Zn  Zn99  1  0.61962805  0.87115298  0.74497273  1
  Zn  Zn100  1  0.49993152  0.24726770  0.75026276  1
  Zn  Zn101  1  0.25108776  0.87473096  0.12407363  1
  Zn  Zn102  1  0.24663833  0.37901023  0.62180852  1
  Zn  Zn103  1  0.11906297  0.74958159  0.87366118  1
  Zn  Zn104  1  0.86759830  0.87840270  0.00314128  1
  Zn  Zn105  1  0.75077347  0.13911578  0.36696366  1
  Zn  Zn106  1  0.83754440  0.37877286  0.00496526  1
  Zn  Zn107  1  0.16668265  0.16832325  0.22102816  1
  Zn  Zn108  1  0.18591859  0.18690085  0.68409021  1
  Zn  Zn109  1  0.18936668  0.68657994  0.18621091  1
  Zn  Zn110  1  0.19140495  0.69672296  0.68954073  1
  Zn  Zn111  1  0.68967348  0.18468610  0.18548494  1
  Zn  Zn112  1  0.68457080  0.18686559  0.68604214  1
  Zn  Zn113  1  0.68834540  0.68239815  0.18782176  1
  Zn  Zn114  1  0.69218218  0.68439115  0.68392114  1
  Zn  Zn115  1  0.31804667  0.31307509  0.31111913  1
  Zn  Zn116  1  0.31087856  0.31276803  0.81368837  1
  Zn  Zn117  1  0.31394404  0.81138332  0.31495823  1
  Zn  Zn118  1  0.30823738  0.81849317  0.81676607  1
  Zn  Zn119  1  0.81704394  0.31434356  0.31647893  1
  Zn  Zn120  1  0.81187239  0.31497088  0.80921126  1
  Zn  Zn121  1  0.81295714  0.81431133  0.31550170  1
  Zn  Zn122  1  0.81219528  0.81298052  0.81569885  1
  Zn  Zn123  1  0.19211594  0.43384279  0.43910989  1
  Zn  Zn124  1  0.18533754  0.43690111  0.93381643  1
  Zn  Zn125  1  0.19199600  0.93759379  0.43589282  1
  Zn  Zn126  1  0.18395746  0.93649036  0.93764787  1
  Zn  Zn127  1  0.69093021  0.43678569  0.43020952  1
  Zn  Zn128  1  0.68807137  0.44136618  0.93403465  1
  Zn  Zn129  1  0.68654417  0.93979502  0.43979148  1
  Zn  Zn130  1  0.68469873  0.93769338  0.93299119  1
  Zn  Zn131  1  0.31202408  0.06158885  0.06797829  1
  Zn  Zn132  1  0.31197534  0.06429938  0.56412117  1
  Zn  Zn133  1  0.31145037  0.56194628  0.06082494  1
  Zn  Zn134  1  0.31629966  0.56662505  0.56381987  1
  Zn  Zn135  1  0.81337541  0.06619176  0.06148817  1
  Zn  Zn136  1  0.81426933  0.06183316  0.55894992  1
  Zn  Zn137  1  0.81051920  0.56929265  0.06346423  1
  Zn  Zn138  1  0.81039672  0.55925253  0.56463589  1
  Zn  Zn139  1  0.43981046  0.43679293  0.18803098  1
  Zn  Zn140  1  0.44169634  0.44140153  0.68562324  1
  Zn  Zn141  1  0.44196527  0.93705682  0.18539282  1
  Zn  Zn142  1  0.42844577  0.94017834  0.69086904  1
  Zn  Zn143  1  0.93583737  0.43483945  0.18758208  1
  Zn  Zn144  1  0.93450298  0.42912612  0.69079731  1
  Zn  Zn145  1  0.93647180  0.93529061  0.18802330  1
  Zn  Zn146  1  0.93714559  0.94053666  0.68470293  1
  Zn  Zn147  1  0.06072794  0.06062981  0.31937407  1
  Zn  Zn148  1  0.06639039  0.06284778  0.81521927  1
  Zn  Zn149  1  0.06177059  0.56414194  0.31531225  1
  Zn  Zn150  1  0.06335609  0.56135931  0.69377346  1
  Zn  Zn151  1  0.56260678  0.05837506  0.31127445  1
  Zn  Zn152  1  0.56328112  0.06232647  0.80721612  1
  Zn  Zn153  1  0.56877935  0.56116985  0.31293618  1
  Zn  Zn154  1  0.55788415  0.56830438  0.80608173  1
  Zn  Zn155  1  0.43897033  0.18915272  0.43956288  1
  Zn  Zn156  1  0.44298607  0.19281627  0.93860467  1
  Zn  Zn157  1  0.44075517  0.68877035  0.44286637  1
  Zn  Zn158  1  0.43708916  0.68921056  0.93446752  1
  Zn  Zn159  1  0.93177268  0.19184477  0.43782956  1
  Zn  Zn160  1  0.93774004  0.18551495  0.94092798  1
  Zn  Zn161  1  0.93811882  0.68703509  0.44111613  1
  Zn  Zn162  1  0.93763552  0.68751009  0.93182435  1
  Zn  Zn163  1  0.06061425  0.31078001  0.06795432  1
  Zn  Zn164  1  0.06295729  0.30441172  0.56606750  1
  Zn  Zn165  1  0.06011070  0.80984120  0.06468174  1
  Zn  Zn166  1  0.06490262  0.81513838  0.56187004  1
  Zn  Zn167  1  0.57067028  0.31460098  0.05986099  1
  Zn  Zn168  1  0.55966994  0.30760771  0.56254272  1
  Zn  Zn169  1  0.56138598  0.81209772  0.05985370  1
  Zn  Zn170  1  0.56328983  0.81026047  0.56605613  1
  O  O171  1  0.11311075  0.12390671  0.12084311  1
  O  O172  1  0.11958726  0.13521363  0.61601688  1
  O  O173  1  0.12680001  0.61552824  0.11681421  1
  O  O174  1  0.12900687  0.62798209  0.61661458  1
  O  O175  1  0.61912628  0.11763529  0.11539424  1
  O  O176  1  0.60848970  0.12111850  0.62625613  1
  O  O177  1  0.61799238  0.61658525  0.11867654  1
  O  O178  1  0.61707660  0.61544125  0.62605935  1
  O  O179  1  0.38293709  0.38322918  0.38132064  1
  O  O180  1  0.38007885  0.38239530  0.88075448  1
  O  O181  1  0.38324450  0.87958324  0.38170537  1
  O  O182  1  0.38340108  0.87029311  0.88935090  1
  O  O183  1  0.89073162  0.37178019  0.39083697  1
  O  O184  1  0.87891426  0.38011689  0.87759150  1
  O  O185  1  0.88120364  0.88314992  0.38221543  1
  O  O186  1  0.87551041  0.88896844  0.88026497  1
  O  O187  1  0.26453783  -0.00775599  0.36286469  1
  O  O188  1  0.24866097  0.00241030  0.86643230  1
  O  O189  1  0.26107733  0.50356633  0.37003492  1
  O  O190  1  0.25674917  0.50622497  0.86897956  1
  O  O191  1  0.75694376  -0.00123619  0.36741127  1
  O  O192  1  0.75526399  0.00565663  0.86713287  1
  O  O193  1  0.74983938  0.50203955  0.35700259  1
  O  O194  1  0.75708020  0.50380870  0.86295793  1
  O  O195  1  0.24184005  0.49521318  0.13076374  1
  O  O196  1  0.26295686  0.49860539  0.64143316  1
  O  O197  1  0.24782040  0.99440461  0.13906099  1
  O  O198  1  0.25613281  0.98800227  0.62925024  1
  O  O199  1  0.74017822  0.50710141  0.13345565  1
  O  O200  1  0.73284715  0.50741385  0.63520227  1
  O  O201  1  0.73881000  1.00554271  0.13026144  1
  O  O202  1  0.75210368  0.99347066  0.63321418  1
  O  O203  1  0.00319554  0.37302044  0.26424957  1
  O  O204  1  0.00559840  0.36310681  0.76345709  1
  O  O205  1  0.00897258  0.86958304  0.25590213  1
  O  O206  1  0.00782189  0.87449383  0.74912375  1
  O  O207  1  0.49687162  0.36380278  0.25725329  1
  O  O208  1  0.50961452  0.37595589  0.75542915  1
  O  O209  1  0.50813181  0.86937569  0.25672212  1
  O  O210  1  0.49822646  0.88685025  0.76554894  1
  O  O211  1  0.49642276  0.12902266  0.24250291  1
  O  O212  1  0.49142674  0.12479871  0.74007146  1
  O  O213  1  0.49441636  0.62939574  0.24495494  1
  O  O214  1  0.49501494  0.62256646  0.72985546  1
  O  O215  1  1.00183168  0.13467481  0.24059117  1
  O  O216  1  1.00319587  0.13820143  0.75432572  1
  O  O217  1  0.99232424  0.63028070  0.24990345  1
  O  O218  1  0.98896515  0.63361369  0.74731479  1
  O  O219  1  0.36730406  0.25518965  0.00058907  1
  O  O220  1  0.36938511  0.25791218  0.50683367  1
  O  O221  1  0.37062296  0.75790575  0.00493348  1
  O  O222  1  0.36919759  0.76291044  0.50487528  1
  O  O223  1  0.87663262  0.25245612  0.01107831  1
  O  O224  1  0.87697608  0.26076501  0.51226869  1
  O  O225  1  0.86595467  0.74967471  0.00568106  1
  O  O226  1  0.86833454  0.76480247  0.49439116  1
  O  O227  1  0.14475375  0.25970050  0.49784509  1
  O  O228  1  0.13004289  0.24432141  0.99743690  1
  O  O229  1  0.13077055  0.74135824  0.49691322  1
  O  O230  1  0.13010080  0.74173758  1.00066224  1
  O  O231  1  0.62626335  0.23096995  0.51232845  1
  O  O232  1  0.61806447  0.23684434  0.98906206  1
  O  O233  1  0.64121077  0.75483079  0.50063774  1
  O  O234  1  0.62958510  0.74548306  0.99394587  1
  O  O235  1  0.50095705  0.23916500  0.12913298  1
  O  O236  1  0.48747916  0.24019443  0.62854922  1
  O  O237  1  0.49513342  0.74344065  0.12921517  1
  O  O238  1  0.48946813  0.74643656  0.62909591  1
  O  O239  1  0.99108428  0.24364149  0.13176058  1
  O  O240  1  0.99039867  0.24961887  0.63600956  1
  O  O241  1  0.99058902  0.74688135  0.13248146  1
  O  O242  1  0.99906611  0.75975557  0.63835969  1
  O  O243  1  0.00217902  0.25772358  0.36931988  1
  O  O244  1  0.00484810  0.25419096  0.87227636  1
  O  O245  1  0.00604308  0.75522998  0.37026149  1
  O  O246  1  -0.00036567  0.75496418  0.86173988  1
  O  O247  1  0.49409283  0.25829684  0.36469968  1
  O  O248  1  0.51347970  0.25714227  0.87151164  1
  O  O249  1  0.49930299  0.75993159  0.36880839  1
  O  O250  1  0.50954877  0.76086586  0.88144112  1
  O  O251  1  0.26042897  0.14175603  0.50035990  1
  O  O252  1  0.23898429  0.13277525  1.01141277  1
  O  O253  1  0.24188112  0.63045578  0.49769437  1
  O  O254  1  0.24447348  0.62992458  0.99386694  1
  O  O255  1  0.73679055  0.12508502  0.49660229  1
  O  O256  1  0.73691744  0.11668049  0.98724427  1
  O  O257  1  0.76303189  0.64240948  0.50119943  1
  O  O258  1  0.74071413  0.63606928  0.99574527  1
  O  O259  1  0.25355435  0.36921274  0.00417303  1
  O  O260  1  0.26467886  0.36882571  0.50330766  1
  O  O261  1  0.25800690  0.87127960  0.00044240  1
  O  O262  1  0.25713284  0.87104100  0.50750722  1
  O  O263  1  0.72882381  0.36243266  -0.00313144  1
  O  O264  1  0.76431839  0.37560362  0.49570047  1
  O  O265  1  0.74638497  0.86294537  -0.00292129  1
  O  O266  1  0.75685631  0.87006527  0.50723198  1
  O  O267  1  0.12930182  0.49340634  0.24370715  1
  O  O268  1  0.13525620  0.48970072  0.75367613  1
  O  O269  1  0.13391994  0.98724036  0.25304472  1
  O  O270  1  0.13727139  0.99496722  0.75351639  1
  O  O271  1  0.63874617  0.49888883  0.24069865  1
  O  O272  1  0.63080034  0.49364677  0.74715921  1
  O  O273  1  0.62942230  0.99114055  0.24157147  1
  O  O274  1  0.63818727  0.99455749  0.74834391  1
  O  O275  1  0.37225369  0.00306712  0.25582301  1
  O  O276  1  0.35806401  0.00827024  0.75042597  1
  O  O277  1  0.37024415  0.50516331  0.25768906  1
  O  O278  1  0.36764280  0.49203443  0.76348471  1
  O  O279  1  0.86337430  -0.01033936  0.25826481  1
  O  O280  1  0.86600783  -0.00219489  0.76013630  1
  O  O281  1  0.86378190  0.50966080  0.23905211  1
  O  O282  1  0.86703955  0.50586670  0.75453791  1
  O  O283  1  0.11732087  0.37594655  0.36710140  1
  O  O284  1  0.11657602  0.36567468  0.86950461  1
  O  O285  1  0.12271701  0.86708348  0.36663037  1
  O  O286  1  0.12260921  0.87349620  0.86207337  1
  O  O287  1  0.61059163  0.38154563  0.36989791  1
  O  O288  1  0.61944171  0.37014115  0.86400406  1
  O  O289  1  0.61581735  0.87518838  0.36725345  1
  O  O290  1  0.61606808  0.86642755  0.87268695  1
  O  O291  1  0.38889210  0.12363425  0.13277896  1
  O  O292  1  0.38386205  0.13087144  0.63157898  1
  O  O293  1  0.37963189  0.62831452  0.13048511  1
  O  O294  1  0.37593090  0.64342688  0.62639249  1
  O  O295  1  0.88563378  0.13590526  0.11846757  1
  O  O296  1  0.88476622  0.13804340  0.61518348  1
  O  O297  1  0.87653960  0.63671734  0.13446904  1
  O  O298  1  0.87255712  0.62043486  0.64000128  1
  O  O299  1  0.25045864  0.25781047  0.11236698  1
  O  O300  1  0.26396740  0.25358083  0.61856501  1
  O  O301  1  0.25788222  0.75153160  0.11853905  1
  O  O302  1  0.26309109  0.76196321  0.62346702  1
  O  O303  1  0.76974891  0.24353035  0.13370245  1
  O  O304  1  0.76422378  0.24239428  0.62378942  1
  O  O305  1  0.75651870  0.74413943  0.11526880  1
  O  O306  1  0.74855647  0.76014303  0.61431644  1
  O  O307  1  0.25802673  0.25399281  0.38798330  1
  O  O308  1  0.23866443  0.25654868  0.88969542  1
  O  O309  1  0.24677221  0.74393163  0.38228609  1
  O  O310  1  0.24900817  0.74157840  0.88087578  1
  O  O311  1  0.75354547  0.25019545  0.37936744  1
  O  O312  1  0.73990127  0.24023930  0.86418631  1
  O  O313  1  0.74776523  0.75415884  0.39030957  1
  O  O314  1  0.74016443  0.74922639  0.88379748  1
  O  O315  1  0.00826164  0.11690867  0.00950799  1
  O  O316  1  -0.00022808  0.11051728  0.48896427  1
  O  O317  1  0.01062083  0.62211517  0.00062187  1
  O  O318  1  0.01648868  0.62229292  0.49682304  1
  O  O319  1  0.50721792  0.11871743  0.00494915  1
  O  O320  1  0.50551125  0.12795570  0.51377332  1
  O  O321  1  0.50320287  0.62019992  0.00508638  1
  O  O322  1  0.49274907  0.63136893  0.52291710  1
  O  O323  1  0.48883122  0.36579835  0.48908208  1
  O  O324  1  0.49608828  0.38077968  0.99341298  1
  O  O325  1  0.49203781  0.86856484  0.49106276  1
  O  O326  1  0.49425529  0.88313226  0.99309035  1
  O  O327  1  1.00133009  0.37481746  0.49175654  1
  O  O328  1  1.00613898  0.37616014  0.98811660  1
  O  O329  1  0.99405601  0.88158282  0.49532182  1
  O  O330  1  1.00306426  0.88966367  0.99981530  1
  O  O331  1  0.48857847  0.49082873  0.36538060  1
  O  O332  1  0.49228305  0.49793203  0.87895276  1
  O  O333  1  0.48980427  0.98594226  0.36756228  1
  O  O334  1  0.50900748  0.99366055  0.88770288  1
  O  O335  1  1.00350499  0.48720192  0.38039727  1
  O  O336  1  0.98443864  0.48682238  0.87512776  1
  O  O337  1  0.99100741  0.99338096  0.37959321  1
  O  O338  1  0.99107829  1.00410579  0.88397620  1
  O  O339  1  -0.00184749  0.00723559  0.11947626  1
  O  O340  1  -0.00613271  0.00341970  0.60643050  1
  O  O341  1  0.01112624  0.50068138  0.12371873  1
  O  O342  1  0.00607208  0.48966301  0.63134064  1
  O  O343  1  0.51053840  0.00925640  0.11759233  1
  O  O344  1  0.49478586  0.01163631  0.62750146  1
  O  O345  1  0.50633862  0.50535436  0.11972962  1
  O  O346  1  0.51165137  0.51049287  0.62328329  1
  O  O347  1  0.24236533  0.37840998  0.24687259  1
  O  O348  1  0.24076736  0.38312251  0.75336169  1
  O  O349  1  0.24404796  0.87905631  0.24998590  1
  O  O350  1  0.24479138  0.88871709  0.74695852  1
  O  O351  1  0.75580795  0.38962547  0.25059959  1
  O  O352  1  0.73809465  0.38623581  0.75166950  1
  O  O353  1  0.73657354  0.88295485  0.25495080  1
  O  O354  1  0.75230559  0.88130355  0.74094830  1
  O  O355  1  0.26901486  0.11399203  0.23919122  1
  O  O356  1  0.25496579  0.11431089  0.74761011  1
  O  O357  1  0.25603334  0.61983987  0.25698767  1
  O  O358  1  0.24035547  0.61736142  0.76224581  1
  O  O359  1  0.73887779  0.10667282  0.25431250  1
  O  O360  1  0.74406298  0.11475258  0.75919381  1
  O  O361  1  0.75879792  0.61696610  0.25165888  1
  O  O362  1  0.76091285  0.61796141  0.75172566  1
  O  O363  1  0.38830419  0.11290736  0.36483392  1
  O  O364  1  0.38288754  0.13208855  0.86229794  1
  O  O365  1  0.37261206  0.61861362  0.37289493  1
  O  O366  1  0.36447999  0.61517692  0.88176805  1
  O  O367  1  0.87202980  0.11042129  0.37883205  1
  O  O368  1  0.86283240  0.11601990  0.88317305  1
  O  O369  1  0.87226401  0.63091179  0.36279470  1
  O  O370  1  0.87483495  0.61346372  0.86540740  1
  O  O371  1  0.12810571  0.38510353  0.13228493  1
  O  O372  1  0.12848333  0.36321487  0.64311717  1
  O  O373  1  0.12571216  0.87456940  0.13855041  1
  O  O374  1  0.13771314  0.86986398  0.63636309  1
  O  O375  1  0.61674958  0.38860981  0.13195640  1
  O  O376  1  0.61359206  0.38864727  0.63182003  1
  O  O377  1  0.61568688  0.88530286  0.13307922  1
  O  O378  1  0.63537677  0.87731890  0.62708002  1
  O  O379  1  0.10947639  0.26872173  0.23913630  1
  O  O380  1  0.12002153  0.25492305  0.76286373  1
  O  O381  1  0.12170366  0.75428439  0.25526337  1
  O  O382  1  0.11710046  0.76058265  0.75192488  1
  O  O383  1  0.61281789  0.24967365  0.24286607  1
  O  O384  1  0.62413892  0.26064070  0.75511172  1
  O  O385  1  0.62009458  0.75891740  0.24703890  1
  O  O386  1  0.63317121  0.74997941  0.76222538  1
  O  O387  1  0.38486934  0.23974703  0.24689773  1
  O  O388  1  0.37285825  0.24313109  0.74356846  1
  O  O389  1  0.38055946  0.74448620  0.24514236  1
  O  O390  1  0.37110117  0.75853408  0.74111318  1
  O  O391  1  0.88860051  0.25984852  0.24057406  1
  O  O392  1  0.88148723  0.25689057  0.73633841  1
  O  O393  1  0.87713540  0.74539887  0.24456267  1
  O  O394  1  0.87825467  0.73609955  0.75498676  1
  O  O395  1  0.37030049  0.49209738  0.49063555  1
  O  O396  1  0.37890577  0.49456792  0.99089632  1
  O  O397  1  0.36809694  0.98765486  0.49036575  1
  O  O398  1  0.38595508  0.99236853  1.00856724  1
  O  O399  1  0.87869095  0.48491898  0.50969318  1
  O  O400  1  0.87046062  0.49847712  0.99103482  1
  O  O401  1  0.88053494  0.98992161  0.49004777  1
  O  O402  1  0.88251279  0.99970434  0.99405303  1
  O  O403  1  0.11794713  0.00864035  0.00245540  1
  O  O404  1  0.10940344  -0.00685033  0.48930088  1
  O  O405  1  0.12628700  0.50653343  0.00843227  1
  O  O406  1  0.13094564  0.51440993  0.49990774  1
  O  O407  1  0.61780657  0.00630062  0.00525043  1
  O  O408  1  0.62664403  0.01527684  0.50501279  1
  O  O409  1  0.61840362  0.50756839  0.00470948  1
  O  O410  1  0.63353979  0.49437783  0.51239360  1
  O  O411  1  0.36851464  0.37543357  0.11849036  1
  O  O412  1  0.38064568  0.36827707  0.61781039  1
  O  O413  1  0.37858112  0.86879591  0.11380077  1
  O  O414  1  0.37157181  0.86755798  0.61905938  1
  O  O415  1  0.88175454  0.36287462  0.11745906  1
  O  O416  1  0.87702841  0.36278762  0.61362591  1
  O  O417  1  0.87766828  0.86000067  0.12320295  1
  O  O418  1  0.86491193  0.88129171  0.61492636  1
  O  O419  1  0.13974462  0.13634991  0.33159445  1
  O  O420  1  0.11860090  0.13711457  0.89097264  1
  O  O421  1  0.13261928  0.62911257  0.38357276  1
  O  O422  1  0.13847291  0.62579259  0.88959079  1
  O  O423  1  0.61872775  0.12203256  0.38774631  1
  O  O424  1  0.63093586  0.13255052  0.87829836  1
  O  O425  1  0.63038048  0.62768216  0.37492157  1
  O  O426  1  0.62125617  0.63363777  0.88028447  1
