# generated using pymatgen
data_V85Zn86O256
_symmetry_space_group_name_H-M   'P 1'
_cell_length_a   16.99692938
_cell_length_b   16.99553721
_cell_length_c   16.97424102
_cell_angle_alpha   89.97935448
_cell_angle_beta   90.03454487
_cell_angle_gamma   90.07378290
_symmetry_Int_Tables_number   1
_chemical_formula_structural   V85Zn86O256
_chemical_formula_sum   'V85 Zn86 O256'
_cell_volume   4903.37675523
_cell_formula_units_Z   1
loop_
 _symmetry_equiv_pos_site_id
 _symmetry_equiv_pos_as_xyz
  1  'x, y, z'
loop_
 _atom_site_type_symbol
 _atom_site_label
 _atom_site_symmetry_multiplicity
 _atom_site_fract_x
 _atom_site_fract_y
 _atom_site_fract_z
 _atom_site_occupancy
  V  V0  1  0.74419515  0.62477869  0.38311339  1
  V  V1  1  0.25010823  0.37409642  0.61916092  1
  V  V2  1  -0.00539386  0.87900206  0.88299482  1
  V  V3  1  0.62314602  0.25168275  0.87197164  1
  V  V4  1  0.50354935  0.62139240  0.12499603  1
  V  V5  1  0.87608353  0.75200574  0.62127143  1
  V  V6  1  0.87467825  0.12480035  0.74837389  1
  V  V7  1  0.62519825  0.00251455  0.61993149  1
  V  V8  1  0.50194363  0.75652610  0.25222415  1
  V  V9  1  0.49988801  0.24979307  0.24992650  1
  V  V10  1  0.50551062  0.62180522  0.61974907  1
  V  V11  1  0.00837550  0.01326854  0.51730776  1
  V  V12  1  0.87802106  0.50105539  0.37669453  1
  V  V13  1  0.25250854  0.74701576  -0.00014458  1
  V  V14  1  0.00193628  0.62176632  0.61056689  1
  V  V15  1  0.74647838  0.50336035  0.24637695  1
  V  V16  1  0.50329587  0.49973047  0.00313699  1
  V  V17  1  0.12431105  0.49702650  0.12435581  1
  V  V18  1  0.74632472  0.00133567  0.26212969  1
  V  V19  1  0.37711666  0.74829318  0.12510336  1
  V  V20  1  -0.00471221  0.62544376  0.12655346  1
  V  V21  1  0.75197505  0.88037607  0.12222869  1
  V  V22  1  0.62365425  0.37963165  0.24586493  1
  V  V23  1  0.24937261  0.49769107  0.25056183  1
  V  V24  1  0.63178461  0.12689389  0.49851632  1
  V  V25  1  -0.00703373  0.24967190  0.23964837  1
  V  V26  1  0.74731796  0.37784827  0.12359678  1
  V  V27  1  0.00364446  0.74709123  0.74847939  1
  V  V28  1  0.37633444  0.62426155  0.25057026  1
  V  V29  1  0.25307144  0.11627502  0.85993928  1
  V  V30  1  0.62928574  0.38416635  0.74575428  1
  V  V31  1  0.12574773  0.74666790  0.87376043  1
  V  V32  1  0.88052852  0.37638526  0.49995566  1
  V  V33  1  0.12537936  0.62136929  -0.00136900  1
  V  V34  1  0.00019737  0.37294240  0.87477322  1
  V  V35  1  0.37260494  0.12218521  0.25930830  1
  V  V36  1  0.24821745  0.37150710  0.12431618  1
  V  V37  1  0.11967604  0.50183149  0.61097961  1
  V  V38  1  0.00857951  0.88141251  0.37776521  1
  V  V39  1  0.74951143  0.62210884  0.87201068  1
  V  V40  1  0.24850559  0.89574780  0.63150066  1
  V  V41  1  0.37434123  0.36750116  0.50007484  1
  V  V42  1  0.50119139  0.37651103  0.37559525  1
  V  V43  1  0.00105762  0.37124704  0.37467485  1
  V  V44  1  0.74808109  0.25076406  0.00300370  1
  V  V45  1  -0.00097982  0.24384474  0.74894798  1
  V  V46  1  0.37578395  0.50188447  0.37896946  1
  V  V47  1  0.37412538  0.62560757  0.74415177  1
  V  V48  1  0.75260006  0.87467914  0.62507516  1
  V  V49  1  0.00524519  0.74786998  0.25896831  1
  V  V50  1  0.37536725  0.00152046  0.85202462  1
  V  V51  1  0.37265787  0.24739804  0.12525137  1
  V  V52  1  0.87225376  0.61816327  0.74806867  1
  V  V53  1  0.62693289  0.62123431  0.00550317  1
  V  V54  1  0.49936099  0.87616931  0.87176745  1
  V  V55  1  0.38843139  -0.00826141  0.38376268  1
  V  V56  1  0.24448591  0.74471430  0.51611518  1
  V  V57  1  0.63278129  0.24671770  0.37446024  1
  V  V58  1  0.37642633  0.87344181  -0.00292642  1
  V  V59  1  0.37479381  0.49979126  0.87458821  1
  V  V60  1  0.61903068  0.75205849  0.38277394  1
  V  V61  1  0.75723240  0.75381562  0.00189368  1
  V  V62  1  0.25135750  0.62234713  0.87519261  1
  V  V63  1  0.24789321  0.23903074  -0.00100034  1
  V  V64  1  0.75287308  0.37995293  0.62803488  1
  V  V65  1  0.12265149  0.36688198  0.25314210  1
  V  V66  1  0.62537437  0.87426152  0.75007268  1
  V  V67  1  0.50017300  0.37508427  0.87309199  1
  V  V68  1  0.12471505  0.24370156  0.87919997  1
  V  V69  1  0.12429409  0.89340079  0.74724686  1
  V  V70  1  0.49475484  0.74887075  0.74670421  1
  V  V71  1  0.49328604  0.24950502  0.74662283  1
  V  V72  1  0.24890707  0.87657269  0.12591002  1
  V  V73  1  -0.00083126  0.49840353  -0.00080671  1
  V  V74  1  0.87390241  0.49908001  0.87172616  1
  V  V75  1  0.24773472  -0.00193865  0.26021285  1
  V  V76  1  0.49733831  0.00055752  -0.00105062  1
  V  V77  1  0.37552371  0.37370032  -0.00038180  1
  V  V78  1  0.49411984  0.12517568  0.62374485  1
  V  V79  1  0.86370925  0.13572535  0.25171996  1
  V  V80  1  0.87879160  0.24554731  0.62300798  1
  V  V81  1  0.87306877  0.37177467  0.00395520  1
  V  V82  1  0.74700331  0.12457658  0.87313999  1
  V  V83  1  0.49901128  0.12319022  0.12372254  1
  V  V84  1  0.23681287  0.63299207  0.37682933  1
  Zn  Zn85  1  0.62584699  0.75033782  0.87629867  1
  Zn  Zn86  1  0.12517327  0.37681908  0.74881237  1
  Zn  Zn87  1  0.11579976  0.00004349  0.11028008  1
  Zn  Zn88  1  0.93835725  0.94164192  0.04784132  1
  Zn  Zn89  1  -0.00723214  0.11824585  0.11143206  1
  Zn  Zn90  1  0.87877818  0.75938052  0.12541180  1
  Zn  Zn91  1  0.87337281  0.87817716  0.49374701  1
  Zn  Zn92  1  0.74156064  0.74597925  0.50401974  1
  Zn  Zn93  1  0.62186308  0.12540855  -0.00229713  1
  Zn  Zn94  1  0.87558212  0.00633651  0.38153015  1
  Zn  Zn95  1  0.63775279  0.50756934  0.61431495  1
  Zn  Zn96  1  0.87191424  0.62930669  0.25059484  1
  Zn  Zn97  1  0.24570703  0.49829163  0.74913512  1
  Zn  Zn98  1  0.37082382  0.24665752  0.62282918  1
  Zn  Zn99  1  0.13373576  0.86298343  0.25825206  1
  Zn  Zn100  1  0.62216856  0.87781825  0.25271482  1
  Zn  Zn101  1  0.75680466  0.24547733  0.49450502  1
  Zn  Zn102  1  0.75222346  -0.00107562  0.75187417  1
  Zn  Zn103  1  0.51130774  0.50322407  0.49720790  1
  Zn  Zn104  1  0.38087411  0.86709042  0.50382656  1
  Zn  Zn105  1  0.62267674  -0.00222009  0.12622498  1
  Zn  Zn106  1  0.87689700  0.00248064  0.88239801  1
  Zn  Zn107  1  0.18170721  0.17936880  0.18372988  1
  Zn  Zn108  1  0.20060317  0.20516469  0.70139306  1
  Zn  Zn109  1  0.18752211  0.68465176  0.18788679  1
  Zn  Zn110  1  0.18462362  0.68030988  0.68800100  1
  Zn  Zn111  1  0.68530760  0.18834106  0.18593218  1
  Zn  Zn112  1  0.68801291  0.19407246  0.68588754  1
  Zn  Zn113  1  0.68751337  0.69210432  0.18861558  1
  Zn  Zn114  1  0.68582094  0.68903378  0.68892969  1
  Zn  Zn115  1  0.31592432  0.31476250  0.31071211  1
  Zn  Zn116  1  0.31103311  0.31498080  0.81066156  1
  Zn  Zn117  1  0.31833618  0.81222711  0.31831004  1
  Zn  Zn118  1  0.31081915  0.81379728  0.80694638  1
  Zn  Zn119  1  0.81194095  0.31698560  0.31150921  1
  Zn  Zn120  1  0.81139639  0.31212004  0.81245964  1
  Zn  Zn121  1  0.81599185  0.81260025  0.31318630  1
  Zn  Zn122  1  0.81382625  0.80661933  0.81146064  1
  Zn  Zn123  1  0.18832206  0.43777162  0.43582476  1
  Zn  Zn124  1  0.18781658  0.43292860  0.93661320  1
  Zn  Zn125  1  0.18675126  0.93692501  0.44584142  1
  Zn  Zn126  1  0.19064907  0.93187677  0.93243809  1
  Zn  Zn127  1  0.69082673  0.43489378  0.43897870  1
  Zn  Zn128  1  0.68632696  0.43976303  0.93353435  1
  Zn  Zn129  1  0.67981609  0.93222224  0.44133820  1
  Zn  Zn130  1  0.68749712  0.93952710  0.93994747  1
  Zn  Zn131  1  0.31176408  0.05785226  0.06230877  1
  Zn  Zn132  1  0.30452873  0.06971409  0.56036623  1
  Zn  Zn133  1  0.31471025  0.55982427  0.06332400  1
  Zn  Zn134  1  0.31041876  0.56098989  0.56077912  1
  Zn  Zn135  1  0.81219198  0.06666136  0.06763076  1
  Zn  Zn136  1  0.81570471  0.05940912  0.55990050  1
  Zn  Zn137  1  0.81097956  0.56066839  0.05992076  1
  Zn  Zn138  1  0.81724208  0.56134987  0.56003235  1
  Zn  Zn139  1  0.43665760  0.43839787  0.18644982  1
  Zn  Zn140  1  0.43782107  0.44018292  0.68657862  1
  Zn  Zn141  1  0.43184786  0.93776911  0.18832856  1
  Zn  Zn142  1  0.44597196  0.92550869  0.66124653  1
  Zn  Zn143  1  0.93408372  0.43846899  0.18775501  1
  Zn  Zn144  1  0.94203649  0.43499592  0.68634183  1
  Zn  Zn145  1  0.92954202  0.93395068  0.20895184  1
  Zn  Zn146  1  0.94020874  0.94189563  0.69398185  1
  Zn  Zn147  1  0.05078396  0.05160288  0.26427021  1
  Zn  Zn148  1  0.06764258  0.06367130  0.94043831  1
  Zn  Zn149  1  0.06083812  0.55735644  0.31065291  1
  Zn  Zn150  1  0.06247679  0.55903343  0.80601480  1
  Zn  Zn151  1  0.56216963  0.06262967  0.31506193  1
  Zn  Zn152  1  0.56151152  0.06291280  0.80686649  1
  Zn  Zn153  1  0.56348840  0.56659903  0.31372644  1
  Zn  Zn154  1  0.56280754  0.56231873  0.81294951  1
  Zn  Zn155  1  0.44583755  0.18567939  0.43930818  1
  Zn  Zn156  1  0.43283388  0.18613372  0.93276159  1
  Zn  Zn157  1  0.42947934  0.69143202  0.43958913  1
  Zn  Zn158  1  0.43995668  0.68709301  0.93426048  1
  Zn  Zn159  1  0.93959666  0.18466145  0.42958806  1
  Zn  Zn160  1  0.93165828  0.18883885  0.93669609  1
  Zn  Zn161  1  0.93431856  0.69083784  0.43339972  1
  Zn  Zn162  1  0.93787240  0.68817961  0.93675675  1
  Zn  Zn163  1  0.06183674  0.30799040  0.06188286  1
  Zn  Zn164  1  0.06374334  0.30879935  0.56214221  1
  Zn  Zn165  1  0.06820541  0.80676418  0.06579412  1
  Zn  Zn166  1  0.06803701  0.81719382  0.55904306  1
  Zn  Zn167  1  0.56236197  0.31174585  0.06259792  1
  Zn  Zn168  1  0.56421044  0.31406826  0.56009408  1
  Zn  Zn169  1  0.56812408  0.81060916  0.06335338  1
  Zn  Zn170  1  0.55574431  0.81258437  0.56185832  1
  O  O171  1  0.10190816  0.10604440  0.15870012  1
  O  O172  1  0.15967865  0.16736626  0.54776810  1
  O  O173  1  0.11666817  0.61717428  0.11876703  1
  O  O174  1  0.11623749  0.61030650  0.62640946  1
  O  O175  1  0.60829944  0.12503355  0.12265979  1
  O  O176  1  0.62337495  0.12058232  0.61964310  1
  O  O177  1  0.62085298  0.63030002  0.11343739  1
  O  O178  1  0.61139037  0.62260118  0.63339958  1
  O  O179  1  0.37924298  0.38276278  0.37964733  1
  O  O180  1  0.38053371  0.37923603  0.88010120  1
  O  O181  1  0.37624039  0.88756006  0.38186161  1
  O  O182  1  0.37881657  0.88311726  0.87682831  1
  O  O183  1  0.87949673  0.38111989  0.38111087  1
  O  O184  1  0.87806169  0.37945732  0.88273764  1
  O  O185  1  0.88623794  0.87916139  0.37571208  1
  O  O186  1  0.89265064  0.87152172  0.86496402  1
  O  O187  1  0.25746642  -0.00805896  0.36303359  1
  O  O188  1  0.25933893  0.01036057  0.87342769  1
  O  O189  1  0.25915659  0.50667236  0.37035355  1
  O  O190  1  0.25645185  0.50464455  0.87612191  1
  O  O191  1  0.74345312  -0.00652852  0.36382072  1
  O  O192  1  0.74494682  0.01487521  0.87270794  1
  O  O193  1  0.75727301  0.50514327  0.36659247  1
  O  O194  1  0.75773932  0.51413064  0.87972601  1
  O  O195  1  0.24531851  0.49197512  0.12967273  1
  O  O196  1  0.23746425  0.49472987  0.62438169  1
  O  O197  1  0.25881909  0.98653713  0.13616408  1
  O  O198  1  0.24782808  0.99466900  0.62608745  1
  O  O199  1  0.75158289  0.49118742  0.13386761  1
  O  O200  1  0.75654896  0.48492669  0.62210728  1
  O  O201  1  0.74368591  0.99389991  0.13295490  1
  O  O202  1  0.74401370  0.99097428  0.62953291  1
  O  O203  1  0.00356781  0.36965554  0.25249377  1
  O  O204  1  -0.00174051  0.36230322  0.75784735  1
  O  O205  1  0.00457429  0.86372708  0.26115311  1
  O  O206  1  0.00997880  0.86515016  0.75559335  1
  O  O207  1  0.50604468  0.37091904  0.25288880  1
  O  O208  1  0.50768510  0.36944587  0.75290694  1
  O  O209  1  0.49856385  0.86016663  0.24333020  1
  O  O210  1  0.50732608  0.86721597  0.74990782  1
  O  O211  1  0.49221413  0.12890274  0.24173004  1
  O  O212  1  0.50839178  0.13869432  0.73648439  1
  O  O213  1  0.49564420  0.63202639  0.24400909  1
  O  O214  1  0.49287112  0.63022699  0.74670201  1
  O  O215  1  0.98024468  0.13889501  0.25839890  1
  O  O216  1  0.98379830  0.14009923  0.75734116  1
  O  O217  1  0.99924666  0.62848879  0.24203727  1
  O  O218  1  0.99117749  0.63197288  0.74229892  1
  O  O219  1  0.36783811  0.25473530  0.00451065  1
  O  O220  1  0.38116753  0.26345909  0.49876088  1
  O  O221  1  0.37230766  0.75331362  0.00387566  1
  O  O222  1  0.35025043  0.75801165  0.48386459  1
  O  O223  1  0.86015455  0.26311619  -0.00772090  1
  O  O224  1  0.87735126  0.25498482  0.50704709  1
  O  O225  1  0.86172471  0.74310098  0.00359481  1
  O  O226  1  0.87380531  0.75419395  0.51470494  1
  O  O227  1  0.12448844  0.22541715  0.50417349  1
  O  O228  1  0.13590230  0.25423637  0.99090453  1
  O  O229  1  0.14526984  0.75615393  0.49939324  1
  O  O230  1  0.13288405  0.74071090  0.99402037  1
  O  O231  1  0.62904756  0.24572534  0.49061224  1
  O  O232  1  0.63182484  0.25124678  0.99134128  1
  O  O233  1  0.62061313  0.75320585  0.48798898  1
  O  O234  1  0.63485008  0.73903772  0.99636730  1
  O  O235  1  0.49270282  0.24281964  0.12905705  1
  O  O236  1  0.50073577  0.24271501  0.63065326  1
  O  O237  1  0.49617184  0.74227081  0.13127150  1
  O  O238  1  0.50453228  0.73574541  0.63962303  1
  O  O239  1  0.99711274  0.25035970  0.13651918  1
  O  O240  1  0.98846138  0.25547250  0.63526399  1
  O  O241  1  0.99909168  0.73904682  0.13029445  1
  O  O242  1  0.99582784  0.74447900  0.63063030  1
  O  O243  1  -0.00730502  0.26550718  0.36095952  1
  O  O244  1  0.00762880  0.25362387  0.87010333  1
  O  O245  1  -0.00443720  0.75986571  0.36763017  1
  O  O246  1  0.00473377  0.75332204  0.86588628  1
  O  O247  1  0.50874474  0.25723809  0.36776405  1
  O  O248  1  0.50274788  0.25485633  0.86746641  1
  O  O249  1  0.51101088  0.74002186  0.36769945  1
  O  O250  1  0.50291152  0.75731537  0.86507895  1
  O  O251  1  0.21968198  0.13360024  0.50641336  1
  O  O252  1  0.25759562  0.13612699  0.99537724  1
  O  O253  1  0.25431284  0.63390469  0.48657361  1
  O  O254  1  0.24569949  0.62743488  0.99623989  1
  O  O255  1  0.73723764  0.12746004  0.50511265  1
  O  O256  1  0.74579117  0.13659257  0.99340406  1
  O  O257  1  0.75533047  0.62704667  0.48823665  1
  O  O258  1  0.74433354  0.63079228  0.99402147  1
  O  O259  1  0.25614266  0.36399156  0.00494104  1
  O  O260  1  0.26131452  0.38194632  0.50677791  1
  O  O261  1  0.25775271  0.86613821  0.00561460  1
  O  O262  1  0.24970886  0.87002701  0.52111575  1
  O  O263  1  0.75269261  0.37210575  0.00436738  1
  O  O264  1  0.76543934  0.36915890  0.50595380  1
  O  O265  1  0.74090437  0.86441982  0.00789922  1
  O  O266  1  0.75046666  0.87163270  0.51528483  1
  O  O267  1  0.12938587  0.48819625  0.24266609  1
  O  O268  1  0.12632587  0.49481688  0.73791261  1
  O  O269  1  0.14459917  0.98731518  0.25399683  1
  O  O270  1  0.11928865  0.98780267  0.75379677  1
  O  O271  1  0.63463409  0.49001157  0.25818736  1
  O  O272  1  0.62063549  0.48681325  0.74573929  1
  O  O273  1  0.63376014  1.00050648  0.24921098  1
  O  O274  1  0.62671086  0.98967731  0.74033470  1
  O  O275  1  0.37022106  0.00369998  0.26247150  1
  O  O276  1  0.38773741  -0.00711040  0.75547613  1
  O  O277  1  0.36947911  0.50232489  0.25863069  1
  O  O278  1  0.37383721  0.50845654  0.75779471  1
  O  O279  1  0.85706693  0.01008205  0.25758967  1
  O  O280  1  0.87256599  0.01156387  0.75797425  1
  O  O281  1  0.86203018  0.49808127  0.25844960  1
  O  O282  1  0.88319673  0.51172892  0.75359340  1
  O  O283  1  0.11414376  0.38380764  0.36409105  1
  O  O284  1  0.12003846  0.36207723  0.87398731  1
  O  O285  1  0.11265465  0.87411623  0.37631257  1
  O  O286  1  0.11699147  0.86626469  0.86381524  1
  O  O287  1  0.62097191  0.36729321  0.36397314  1
  O  O288  1  0.62043589  0.37171741  0.86609764  1
  O  O289  1  0.62817707  0.85685121  0.37134149  1
  O  O290  1  0.61931829  0.87761802  0.86394782  1
  O  O291  1  0.38283919  0.12748009  0.13355496  1
  O  O292  1  0.39038641  0.12701747  0.61567471  1
  O  O293  1  0.38043926  0.62957245  0.13060249  1
  O  O294  1  0.38372058  0.61675405  0.63830800  1
  O  O295  1  0.87743570  0.12060017  0.14582448  1
  O  O296  1  0.86446618  0.13611527  0.63583022  1
  O  O297  1  0.88825938  0.61991746  0.12517015  1
  O  O298  1  0.88068160  0.63104409  0.63063215  1
  O  O299  1  0.25165220  0.24994273  0.11853740  1
  O  O300  1  0.25483772  0.26522611  0.62651955  1
  O  O301  1  0.25702149  0.75450088  0.12071740  1
  O  O302  1  0.25101866  0.73864856  0.61657311  1
  O  O303  1  0.74168268  0.26162743  0.11255039  1
  O  O304  1  0.76334451  0.26135750  0.62323018  1
  O  O305  1  0.75289944  0.75989014  0.11979668  1
  O  O306  1  0.75777702  0.75598993  0.62587598  1
  O  O307  1  0.24535350  0.25003757  0.38803423  1
  O  O308  1  0.24637116  0.24058013  0.87861999  1
  O  O309  1  0.24576821  0.73359367  0.36461783  1
  O  O310  1  0.24617871  0.74321334  0.88039140  1
  O  O311  1  0.73636357  0.25587088  0.37291263  1
  O  O312  1  0.74296027  0.24458388  0.88228779  1
  O  O313  1  0.74012402  0.74209102  0.37578891  1
  O  O314  1  0.75071581  0.73977086  0.88292377  1
  O  O315  1  -0.00180561  0.12822941  -0.00138991  1
  O  O316  1  -0.00469453  0.11140554  0.49466722  1
  O  O317  1  0.00506696  0.61890020  0.00595896  1
  O  O318  1  -0.00751081  0.62981437  0.51204761  1
  O  O319  1  0.49487748  0.11824217  0.00684975  1
  O  O320  1  0.51540016  0.13306723  0.51648698  1
  O  O321  1  0.50864379  0.62149076  0.00343022  1
  O  O322  1  0.49006384  0.63017571  0.51835942  1
  O  O323  1  0.49175828  0.37885724  0.49311389  1
  O  O324  1  0.49545038  0.37826751  0.99444018  1
  O  O325  1  0.47776963  0.88906683  0.55389676  1
  O  O326  1  0.49647928  0.88067018  0.99370866  1
  O  O327  1  0.99030284  0.36642660  0.48975481  1
  O  O328  1  0.99101744  0.37710819  0.99624910  1
  O  O329  1  0.99882449  0.88183183  0.48874531  1
  O  O330  1  1.00200243  0.86258208  0.98716122  1
  O  O331  1  0.48996641  0.49674469  0.37244561  1
  O  O332  1  0.49483784  0.49392941  0.88177117  1
  O  O333  1  0.48819685  1.00074003  0.37549515  1
  O  O334  1  0.49274887  0.99783844  0.87949893  1
  O  O335  1  0.98584437  0.48778308  0.36400427  1
  O  O336  1  0.99481250  0.49379769  0.88007012  1
  O  O337  1  1.00045598  0.98592535  0.36027023  1
  O  O338  1  1.00188874  0.98071853  0.87896943  1
  O  O339  1  -0.00169683  -0.00963496  0.13446828  1
  O  O340  1  -0.00157729  -0.00013372  0.61672896  1
  O  O341  1  0.00434638  0.50506149  0.11985212  1
  O  O342  1  0.01048304  0.50548273  0.62530907  1
  O  O343  1  0.49570360  0.00689024  0.11742706  1
  O  O344  1  0.51280467  0.02075933  0.63631377  1
  O  O345  1  0.49393409  0.50820400  0.11679928  1
  O  O346  1  0.50227297  0.51389583  0.62372597  1
  O  O347  1  0.24196194  0.37643763  0.24551589  1
  O  O348  1  0.24817430  0.37766723  0.73737979  1
  O  O349  1  0.25671066  0.88038085  0.24314982  1
  O  O350  1  0.23204652  0.87195647  0.74634064  1
  O  O351  1  0.74302772  0.38202229  0.24211106  1
  O  O352  1  0.74135697  0.36851181  0.74132382  1
  O  O353  1  0.75045718  0.88834669  0.24288275  1
  O  O354  1  0.74205785  0.87219423  0.74386416  1
  O  O355  1  0.26086177  0.10655065  0.24147584  1
  O  O356  1  0.25011205  0.12488380  0.76029884  1
  O  O357  1  0.25512187  0.61725699  0.25688227  1
  O  O358  1  0.25927822  0.62367435  0.75718331  1
  O  O359  1  0.75309184  0.11516850  0.24485714  1
  O  O360  1  0.75535786  0.12887307  0.75804549  1
  O  O361  1  0.74960742  0.61643030  0.25571672  1
  O  O362  1  0.76199337  0.63425885  0.75893923  1
  O  O363  1  0.38224636  0.12072432  0.36335688  1
  O  O364  1  0.36202581  0.11678783  0.87398754  1
  O  O365  1  0.36806729  0.61623238  0.36921568  1
  O  O366  1  0.37111636  0.61884142  0.86853673  1
  O  O367  1  0.86843692  0.12412736  0.35951360  1
  O  O368  1  0.86078909  0.13024451  0.86491748  1
  O  O369  1  0.86657695  0.61624676  0.37274571  1
  O  O370  1  0.87035344  0.62056706  0.86674645  1
  O  O371  1  0.12923892  0.37816561  0.13124857  1
  O  O372  1  0.13064737  0.38312069  0.62235333  1
  O  O373  1  0.14154928  0.87305566  0.12710581  1
  O  O374  1  0.13215074  0.87211117  0.63988700  1
  O  O375  1  0.63078980  0.37191437  0.13670375  1
  O  O376  1  0.63657413  0.37335290  0.63034455  1
  O  O377  1  0.63544925  0.87652025  0.13056316  1
  O  O378  1  0.63342943  0.88079142  0.63230023  1
  O  O379  1  0.11535721  0.26261674  0.24443709  1
  O  O380  1  0.11515699  0.25075150  0.75896544  1
  O  O381  1  0.11163058  0.74785613  0.24458280  1
  O  O382  1  0.11323692  0.74320961  0.75470104  1
  O  O383  1  0.61973365  0.25740289  0.25494377  1
  O  O384  1  0.61603061  0.26129221  0.75364716  1
  O  O385  1  0.61589180  0.75058426  0.25898102  1
  O  O386  1  0.61712981  0.76036095  0.75258754  1
  O  O387  1  0.37808232  0.24190082  0.24586732  1
  O  O388  1  0.38923801  0.25737962  0.74607902  1
  O  O389  1  0.38366597  0.74371150  0.24660999  1
  O  O390  1  0.38462870  0.73875523  0.75749516  1
  O  O391  1  0.87359674  0.24311544  0.24998060  1
  O  O392  1  0.87919076  0.24599270  0.74327996  1
  O  O393  1  0.88756865  0.74687323  0.24538373  1
  O  O394  1  0.88511337  0.74037486  0.74076437  1
  O  O395  1  0.37851254  0.49459750  0.48845503  1
  O  O396  1  0.38139519  0.49293792  0.99490247  1
  O  O397  1  0.36315924  1.01122852  0.48115560  1
  O  O398  1  0.38480733  0.99306410  0.99433502  1
  O  O399  1  0.87313889  0.48878994  0.48768052  1
  O  O400  1  0.87936730  0.49079224  0.99284626  1
  O  O401  1  0.88730342  0.99607429  0.49784944  1
  O  O402  1  0.86243502  0.99998341  0.99333537  1
  O  O403  1  0.13758791  0.00065910  0.00035604  1
  O  O404  1  0.10673260  -0.00192544  0.49704138  1
  O  O405  1  0.11888759  0.50121272  0.00423068  1
  O  O406  1  0.12475242  0.49618316  0.51190306  1
  O  O407  1  0.60779051  0.00299872  0.00047643  1
  O  O408  1  0.62887794  0.00764794  0.51255671  1
  O  O409  1  0.61943704  0.51238588  -0.00612165  1
  O  O410  1  0.62395228  0.49742928  0.50095566  1
  O  O411  1  0.36816883  0.36707170  0.12127039  1
  O  O412  1  0.36814683  0.37936534  0.61492065  1
  O  O413  1  0.36819166  0.86733265  0.11807471  1
  O  O414  1  0.34569932  0.87099194  0.64490441  1
  O  O415  1  0.86352348  0.38022114  0.11288679  1
  O  O416  1  0.87310069  0.36872498  0.61829736  1
  O  O417  1  0.86299858  0.87836411  0.12606616  1
  O  O418  1  0.86717501  0.86603271  0.63405444  1
  O  O419  1  0.20102723  0.19762346  0.35945609  1
  O  O420  1  0.14192659  0.13507486  0.87700020  1
  O  O421  1  0.13933868  0.61313857  0.37159463  1
  O  O422  1  0.12960338  0.62632122  0.87971440  1
  O  O423  1  0.61503193  0.13635710  0.38549617  1
  O  O424  1  0.63106926  0.13239103  0.87325543  1
  O  O425  1  0.63480854  0.63649288  0.37082847  1
  O  O426  1  0.63484685  0.62628428  0.88049925  1
