# generated using pymatgen
data_V85Zn86O256
_symmetry_space_group_name_H-M   'P 1'
_cell_length_a   17.01715974
_cell_length_b   17.00048965
_cell_length_c   17.00782528
_cell_angle_alpha   90.01088255
_cell_angle_beta   90.00990896
_cell_angle_gamma   90.03493315
_symmetry_Int_Tables_number   1
_chemical_formula_structural   V85Zn86O256
_chemical_formula_sum   'V85 Zn86 O256'
_cell_volume   4920.36359247
_cell_formula_units_Z   1
loop_
 _symmetry_equiv_pos_site_id
 _symmetry_equiv_pos_as_xyz
  1  'x, y, z'
loop_
 _atom_site_type_symbol
 _atom_site_label
 _atom_site_symmetry_multiplicity
 _atom_site_fract_x
 _atom_site_fract_y
 _atom_site_fract_z
 _atom_site_occupancy
  V  V0  1  0.87868752  0.49997531  0.37543851  1
  V  V1  1  -0.00647884  0.88286467  0.87396246  1
  V  V2  1  0.12717027  0.49620779  0.62597636  1
  V  V3  1  0.86971766  0.87382946  0.01258744  1
  V  V4  1  0.49500154  0.24989500  0.25914015  1
  V  V5  1  0.12365289  0.12487819  0.50113302  1
  V  V6  1  0.12616878  0.74924110  0.37350572  1
  V  V7  1  0.37730243  0.87627825  0.50007013  1
  V  V8  1  -0.00010501  0.87489577  0.37509024  1
  V  V9  1  0.61001276  0.00318161  0.11495618  1
  V  V10  1  0.25066046  0.49299937  0.74292960  1
  V  V11  1  0.37815095  0.12722233  0.25347670  1
  V  V12  1  0.63235378  0.63401682  0.50094323  1
  V  V13  1  -0.00062205  0.12281445  0.62754236  1
  V  V14  1  0.00101356  0.62429639  0.11774166  1
  V  V15  1  0.37497742  0.49987364  0.87359803  1
  V  V16  1  0.37759267  0.37653503  -0.00104554  1
  V  V17  1  0.74942716  0.12430052  0.37470706  1
  V  V18  1  0.37514663  0.89070407  0.00138970  1
  V  V19  1  0.24996896  0.75000190  0.50131891  1
  V  V20  1  0.62559936  0.11926387  0.50492692  1
  V  V21  1  0.62076775  0.25811706  0.37341903  1
  V  V22  1  0.62673680  0.74805410  0.88155302  1
  V  V23  1  0.49227530  0.88883915  0.87321187  1
  V  V24  1  0.87440161  0.86638373  0.50099376  1
  V  V25  1  0.62975655  0.75210786  0.36650679  1
  V  V26  1  0.63179239  0.24770965  0.88620706  1
  V  V27  1  0.87898205  0.49103294  0.87522178  1
  V  V28  1  0.50253139  0.74752319  0.75031354  1
  V  V29  1  0.74975462  0.49695002  0.24941550  1
  V  V30  1  0.26135107  0.00365823  0.75225411  1
  V  V31  1  -0.00311956  0.74975975  0.24187402  1
  V  V32  1  0.12339240  0.24380770  0.87570207  1
  V  V33  1  0.00000119  0.37487733  0.37505672  1
  V  V34  1  0.37489557  0.75129776  0.62548475  1
  V  V35  1  0.12362333  0.37412764  0.24874011  1
  V  V36  1  0.12497252  0.37274058  0.75028130  1
  V  V37  1  0.12346265  0.74478804  0.88008012  1
  V  V38  1  0.25093409  0.12147698  0.37705809  1
  V  V39  1  -0.00146663  0.25260068  0.75587036  1
  V  V40  1  0.74630890  0.62367442  0.88276018  1
  V  V41  1  0.86184443  0.11250387  0.76056313  1
  V  V42  1  0.50076041  0.12006494  0.62459892  1
  V  V43  1  0.49757215  0.37660347  0.87617841  1
  V  V44  1  -0.00062678  0.62465980  0.62634077  1
  V  V45  1  0.38006264  0.37552694  0.49790724  1
  V  V46  1  0.26378089  0.12200924  0.86989058  1
  V  V47  1  0.00617457  0.12294548  0.11827425  1
  V  V48  1  0.74919813  0.49861478  0.75008183  1
  V  V49  1  0.42853273  0.19756754  0.07703521  1
  V  V50  1  0.00037948  0.49085105  -0.00337954  1
  V  V51  1  0.87280980  0.25018447  0.62504138  1
  V  V52  1  0.37251760  0.24977149  0.62584638  1
  V  V53  1  0.75228610  0.63030934  0.37917812  1
  V  V54  1  0.49671567  0.24880521  0.74475442  1
  V  V55  1  0.25479132  0.62244223  0.37439910  1
  V  V56  1  -0.00094832  0.24824877  0.24934009  1
  V  V57  1  0.60179077  0.38907868  0.24204273  1
  V  V58  1  0.12628557  0.50380000  0.11499664  1
  V  V59  1  0.87270764  0.62739632  0.24377435  1
  V  V60  1  0.24936116  0.50091381  0.25107026  1
  V  V61  1  0.25661529  0.74506161  0.00305101  1
  V  V62  1  0.50781421  0.87206689  0.37039896  1
  V  V63  1  0.50318063  0.49636350  0.49049084  1
  V  V64  1  0.12519516  0.62371710  0.50090746  1
  V  V65  1  0.74621837  0.87829263  0.61788791  1
  V  V66  1  0.25237625  0.36991818  0.12360111  1
  V  V67  1  0.87549200  0.12377552  0.24849579  1
  V  V68  1  0.75047402  0.25054116  0.49961609  1
  V  V69  1  0.75392621  0.36412770  0.12471236  1
  V  V70  1  0.12390544  0.24953709  0.37623434  1
  V  V71  1  -0.00148725  -0.00054904  0.50003278  1
  V  V72  1  0.12466174  -0.00057480  0.11838113  1
  V  V73  1  0.37307892  0.62407991  0.74733158  1
  V  V74  1  0.00136262  0.49865204  0.49968191  1
  V  V75  1  0.24703501  0.87738732  0.62746279  1
  V  V76  1  0.63575579  0.88573690  0.74941139  1
  V  V77  1  0.24905449  0.25690120  0.50624202  1
  V  V78  1  0.50158017  0.62682429  0.62167030  1
  V  V79  1  0.12753188  0.87619201  0.24632374  1
  V  V80  1  0.24288497  0.24240882  0.00209834  1
  V  V81  1  0.74177428  -0.00388003  0.24413280  1
  V  V82  1  0.62506427  0.50062056  0.62535843  1
  V  V83  1  0.87670398  0.62705110  0.75189292  1
  V  V84  1  0.62570924  0.37523796  0.74642594  1
  Zn  Zn85  1  0.25166774  -0.00051900  0.24889128  1
  Zn  Zn86  1  0.38111763  0.49164101  0.37100418  1
  Zn  Zn87  1  0.26333259  0.86990610  0.13029261  1
  Zn  Zn88  1  0.00449995  0.75159980  0.74818390  1
  Zn  Zn89  1  0.48775427  0.75485754  0.23385864  1
  Zn  Zn90  1  0.87202136  0.24319398  0.11367075  1
  Zn  Zn91  1  0.12539464  0.87809719  0.75467194  1
  Zn  Zn92  1  0.49903858  0.63792436  0.09299523  1
  Zn  Zn93  1  -0.00032017  0.00445196  -0.00740762  1
  Zn  Zn94  1  0.12593487  0.00026301  0.62801284  1
  Zn  Zn95  1  0.74205707  0.85684723  0.14126865  1
  Zn  Zn96  1  0.87385765  0.37532236  0.49949375  1
  Zn  Zn97  1  0.61691745  0.12850173  0.00413929  1
  Zn  Zn98  1  0.24370597  0.61986443  0.87671592  1
  Zn  Zn99  1  0.38037108  -0.00223081  0.37477728  1
  Zn  Zn100  1  0.75788950  0.74312518  0.00964580  1
  Zn  Zn101  1  0.87348034  -0.00234734  0.37592213  1
  Zn  Zn102  1  0.87369368  0.36529451  -0.00713183  1
  Zn  Zn103  1  0.86960785  0.74528481  0.62173260  1
  Zn  Zn104  1  0.50559927  -0.00361839  0.50545529  1
  Zn  Zn105  1  0.74963545  0.37591766  0.62132233  1
  Zn  Zn106  1  0.37272414  0.63934935  0.22861264  1
  Zn  Zn107  1  0.18639290  0.18537400  0.19025211  1
  Zn  Zn108  1  0.18768786  0.18539327  0.68967978  1
  Zn  Zn109  1  0.18641950  0.68804385  0.18472689  1
  Zn  Zn110  1  0.18645462  0.68642015  0.69163883  1
  Zn  Zn111  1  0.67808867  0.18672138  0.18760169  1
  Zn  Zn112  1  0.68659134  0.18631754  0.68935075  1
  Zn  Zn113  1  0.64571448  0.70244764  0.15388496  1
  Zn  Zn114  1  0.69051084  0.69219291  0.69041668  1
  Zn  Zn115  1  0.31064671  0.31250772  0.31518354  1
  Zn  Zn116  1  0.31010108  0.31031368  0.81130425  1
  Zn  Zn117  1  0.31744935  0.80782442  0.31362117  1
  Zn  Zn118  1  0.31046003  0.81308043  0.81391187  1
  Zn  Zn119  1  0.81316430  0.31150695  0.31094646  1
  Zn  Zn120  1  0.80998166  0.30499057  0.81050930  1
  Zn  Zn121  1  0.81497013  0.81111937  0.31369724  1
  Zn  Zn122  1  0.81218661  0.81070946  0.81569644  1
  Zn  Zn123  1  0.18694505  0.43540216  0.43872549  1
  Zn  Zn124  1  0.18859828  0.43116992  0.93330334  1
  Zn  Zn125  1  0.18491605  0.93781483  0.43941060  1
  Zn  Zn126  1  0.18755726  0.93436980  0.93542694  1
  Zn  Zn127  1  0.68766789  0.43983733  0.43361968  1
  Zn  Zn128  1  0.69191110  0.43049303  0.93743131  1
  Zn  Zn129  1  0.69067814  0.93806255  0.43685630  1
  Zn  Zn130  1  0.68033819  0.93798821  0.94570926  1
  Zn  Zn131  1  0.30503434  0.05828728  0.06270411  1
  Zn  Zn132  1  0.31521252  0.06338072  0.56437131  1
  Zn  Zn133  1  0.31749436  0.56432757  0.05901867  1
  Zn  Zn134  1  0.31427959  0.56141927  0.56138120  1
  Zn  Zn135  1  0.81993358  0.05369397  0.06112004  1
  Zn  Zn136  1  0.81265702  0.05745309  0.56801009  1
  Zn  Zn137  1  0.81427056  0.55479362  0.06379158  1
  Zn  Zn138  1  0.81378220  0.56003629  0.56359286  1
  Zn  Zn139  1  0.42605983  0.46771723  0.16701417  1
  Zn  Zn140  1  0.43854453  0.43609949  0.68202183  1
  Zn  Zn141  1  0.43622386  0.93929922  0.19032790  1
  Zn  Zn142  1  0.43823156  0.93716201  0.69045604  1
  Zn  Zn143  1  0.93670242  0.43816782  0.18649666  1
  Zn  Zn144  1  0.93933214  0.43648045  0.68880139  1
  Zn  Zn145  1  0.93596478  0.93904834  0.18613343  1
  Zn  Zn146  1  0.93402619  0.93484975  0.68829676  1
  Zn  Zn147  1  0.06249996  0.06047766  0.31156128  1
  Zn  Zn148  1  0.07039802  0.06306590  0.80901493  1
  Zn  Zn149  1  0.06443258  0.56311322  0.30945235  1
  Zn  Zn150  1  0.06261976  0.56160311  0.81390728  1
  Zn  Zn151  1  0.56232910  0.06093103  0.31506101  1
  Zn  Zn152  1  0.57162054  0.06433793  0.80408005  1
  Zn  Zn153  1  0.55942671  0.56707209  0.25139934  1
  Zn  Zn154  1  0.56121904  0.56344150  0.92465341  1
  Zn  Zn155  1  0.43703675  0.18588924  0.44144159  1
  Zn  Zn156  1  0.46862824  0.15565473  0.90211566  1
  Zn  Zn157  1  0.46927225  0.65540746  0.39632054  1
  Zn  Zn158  1  0.43016143  0.69699107  0.92892310  1
  Zn  Zn159  1  0.93642405  0.18718960  0.43768745  1
  Zn  Zn160  1  0.93291101  0.18656405  0.93645134  1
  Zn  Zn161  1  0.94081663  0.68671608  0.43392957  1
  Zn  Zn162  1  0.93565398  0.68880397  0.93788297  1
  Zn  Zn163  1  0.06217900  0.31074211  0.06327499  1
  Zn  Zn164  1  0.06133596  0.31291429  0.56577756  1
  Zn  Zn165  1  0.06338663  0.81370228  0.05700299  1
  Zn  Zn166  1  0.06063283  0.80917759  0.56329374  1
  Zn  Zn167  1  0.61662283  0.49620471  0.09927428  1
  Zn  Zn168  1  0.56234015  0.31090199  0.55935915  1
  Zn  Zn169  1  0.56081587  0.82775467  0.06013531  1
  Zn  Zn170  1  0.56440788  0.81286317  0.56197238  1
  O  O171  1  0.11693767  0.11266995  0.13479139  1
  O  O172  1  0.11345756  0.12739889  0.61985110  1
  O  O173  1  0.11502952  0.61217731  0.13026829  1
  O  O174  1  0.11976283  0.61799763  0.62050700  1
  O  O175  1  0.63520827  0.11075251  0.11791609  1
  O  O176  1  0.61500809  0.13517709  0.61415803  1
  O  O177  1  0.59923751  0.60107620  0.14531298  1
  O  O178  1  0.62322066  0.62200597  0.61930317  1
  O  O179  1  0.36836194  0.37552563  0.39225853  1
  O  O180  1  0.37783045  0.37908179  0.87762839  1
  O  O181  1  0.38638911  0.87322301  0.38506045  1
  O  O182  1  0.38746607  0.87474451  0.87667092  1
  O  O183  1  0.88349064  0.38032417  0.37512488  1
  O  O184  1  0.86657417  0.38775273  0.87053400  1
  O  O185  1  0.88176773  0.87593334  0.38370870  1
  O  O186  1  0.89115598  0.87258036  0.87317212  1
  O  O187  1  0.24833375  0.01289801  0.37485272  1
  O  O188  1  0.24330332  0.01658821  0.87087980  1
  O  O189  1  0.24119025  0.50719462  0.36583960  1
  O  O190  1  0.25659036  0.49861486  0.86289209  1
  O  O191  1  0.74991051  0.01013516  0.36552391  1
  O  O192  1  0.74165381  0.03933251  0.91256990  1
  O  O193  1  0.76165637  0.50817330  0.37168112  1
  O  O194  1  0.75781461  0.50521958  0.86900227  1
  O  O195  1  0.24134192  0.49449951  0.13002527  1
  O  O196  1  0.24350156  0.50409292  0.63486423  1
  O  O197  1  0.23896579  0.99348984  0.12989663  1
  O  O198  1  0.25050611  0.99353725  0.63135884  1
  O  O199  1  0.74805716  0.49440732  0.13877916  1
  O  O200  1  0.74390178  0.49766786  0.63194963  1
  O  O201  1  0.75108053  1.00189630  0.14079650  1
  O  O202  1  0.75440109  0.97882478  0.62735716  1
  O  O203  1  0.00540539  0.36989625  0.25402431  1
  O  O204  1  0.00739490  0.36125795  0.74749532  1
  O  O205  1  0.00520560  0.86706743  0.25336939  1
  O  O206  1  0.00170993  0.87203100  0.76053948  1
  O  O207  1  0.49797620  0.35400345  0.26356518  1
  O  O208  1  0.50714996  0.36937457  0.75305532  1
  O  O209  1  0.49599845  0.87318261  0.26843081  1
  O  O210  1  0.50694819  0.86770865  0.75538020  1
  O  O211  1  0.48699467  0.13083435  0.25901280  1
  O  O212  1  0.50663761  0.13948258  0.73971714  1
  O  O213  1  0.48147767  0.64045675  0.28153743  1
  O  O214  1  0.49287510  0.63986032  0.74084216  1
  O  O215  1  0.99214947  0.12779403  0.24560818  1
  O  O216  1  0.99795737  0.13291916  0.74040243  1
  O  O217  1  0.99383908  0.63038947  0.24263801  1
  O  O218  1  0.99124431  0.62173140  0.74448745  1
  O  O219  1  0.36479040  0.25627330  0.01512341  1
  O  O220  1  0.36806783  0.25619456  0.50494964  1
  O  O221  1  0.36017368  0.76270850  -0.00830258  1
  O  O222  1  0.36665274  0.76385105  0.50861380  1
  O  O223  1  0.87660829  0.25412457  0.00174576  1
  O  O224  1  0.87006354  0.24961879  0.50919016  1
  O  O225  1  0.87464444  0.76682396  -0.00671979  1
  O  O226  1  0.88204613  0.76222979  0.49877732  1
  O  O227  1  0.13093070  0.24568572  0.49739582  1
  O  O228  1  0.13397255  0.25845805  0.98886221  1
  O  O229  1  0.13024529  0.74389009  0.49401311  1
  O  O230  1  0.13844156  0.75697740  0.98723375  1
  O  O231  1  0.63064472  0.24242410  0.49135487  1
  O  O232  1  0.62900176  0.25071395  0.98461006  1
  O  O233  1  0.62533441  0.73781382  0.49696147  1
  O  O234  1  0.62800958  0.76486734  0.98146825  1
  O  O235  1  0.48507416  0.24765805  0.14124003  1
  O  O236  1  0.49303524  0.24419013  0.62818145  1
  O  O237  1  0.53172855  0.74451080  0.12888207  1
  O  O238  1  0.49579466  0.74792455  0.63184369  1
  O  O239  1  1.00383154  0.23941453  0.13347695  1
  O  O240  1  0.99223848  0.24161686  0.63174549  1
  O  O241  1  1.01076798  0.73891173  0.13407346  1
  O  O242  1  0.99616736  0.73975870  0.62861121  1
  O  O243  1  0.00491880  0.25397151  0.37010525  1
  O  O244  1  0.00944571  0.24136640  0.86320433  1
  O  O245  1  0.00765045  0.75373792  0.36327818  1
  O  O246  1  0.01259121  0.75584309  0.87619577  1
  O  O247  1  0.51301912  0.23967586  0.37329323  1
  O  O248  1  0.50135233  0.26273393  0.86123093  1
  O  O249  1  0.51204967  0.76465357  0.38396024  1
  O  O250  1  0.50703343  0.75953865  0.86333023  1
  O  O251  1  0.24514641  0.13259707  0.49377286  1
  O  O252  1  0.25401643  0.13599260  0.99034578  1
  O  O253  1  0.24309997  0.62857523  0.49478076  1
  O  O254  1  0.25829158  0.63971402  0.99662294  1
  O  O255  1  0.74614530  0.12883251  0.49394336  1
  O  O256  1  0.74520740  0.09085533  0.97193496  1
  O  O257  1  0.74439109  0.61710244  0.49020506  1
  O  O258  1  0.76017011  0.62223770  0.98608924  1
  O  O259  1  0.25724964  0.36242617  0.00309925  1
  O  O260  1  0.25440856  0.36203128  0.49923491  1
  O  O261  1  0.26360411  0.86991532  -0.00308257  1
  O  O262  1  0.25547282  0.87134803  0.50699250  1
  O  O263  1  0.75246426  0.38046873  0.02210135  1
  O  O264  1  0.75202473  0.36649045  0.50034117  1
  O  O265  1  0.76523508  0.87701654  -0.00546733  1
  O  O266  1  0.75675415  0.87585277  0.50983863  1
  O  O267  1  0.13177244  0.49417065  0.24012968  1
  O  O268  1  0.13070554  0.49182307  0.74807823  1
  O  O269  1  0.12542945  0.98880926  0.24440712  1
  O  O270  1  0.14014988  0.99728160  0.74508800  1
  O  O271  1  0.64465881  0.49013758  0.27613779  1
  O  O272  1  0.63109292  0.48517280  0.74366457  1
  O  O273  1  0.63865615  1.00787432  0.24423995  1
  O  O274  1  0.62603645  0.98464037  0.74929753  1
  O  O275  1  0.37093042  0.01156295  0.25422904  1
  O  O276  1  0.36107524  -0.00218650  0.74875594  1
  O  O277  1  0.35383868  0.49192543  0.25729630  1
  O  O278  1  0.36759121  0.50041090  0.75183339  1
  O  O279  1  0.86790817  0.01119622  0.25307283  1
  O  O280  1  0.87821133  0.01504492  0.74415130  1
  O  O281  1  0.87148618  0.50815372  0.25629444  1
  O  O282  1  0.87181492  0.50599861  0.75591930  1
  O  O283  1  0.11963756  0.36891530  0.36929744  1
  O  O284  1  0.13074511  0.36071511  0.86044122  1
  O  O285  1  0.12029143  0.86951874  0.36704055  1
  O  O286  1  0.11515049  0.86450904  0.87514871  1
  O  O287  1  0.63039164  0.36248679  0.36371414  1
  O  O288  1  0.61737550  0.36385352  0.86619353  1
  O  O289  1  0.61606703  0.86758886  0.38610347  1
  O  O290  1  0.61787514  0.87206516  0.86414424  1
  O  O291  1  0.36996598  0.13017912  0.13268707  1
  O  O292  1  0.38648952  0.13997477  0.61542748  1
  O  O293  1  0.40161579  0.58150595  0.13217987  1
  O  O294  1  0.38109961  0.63171832  0.62760232  1
  O  O295  1  0.88362296  0.12324339  0.13373131  1
  O  O296  1  0.88269122  0.13317436  0.62990139  1
  O  O297  1  0.88555203  0.61610454  0.13711003  1
  O  O298  1  0.87982912  0.62325168  0.63481564  1
  O  O299  1  0.23735221  0.26124366  0.11752458  1
  O  O300  1  0.25849826  0.24002691  0.61530752  1
  O  O301  1  0.24132637  0.75413612  0.10720220  1
  O  O302  1  0.25421643  0.75756650  0.62219297  1
  O  O303  1  0.75097959  0.26141248  0.13630043  1
  O  O304  1  0.75952169  0.24940272  0.61921620  1
  O  O305  1  0.74051056  0.74646040  0.12167253  1
  O  O306  1  0.75594054  0.76682370  0.63440284  1
  O  O307  1  0.24357493  0.24087629  0.38547750  1
  O  O308  1  0.24643388  0.24038306  0.88098708  1
  O  O309  1  0.24494026  0.74128331  0.38078540  1
  O  O310  1  0.23980216  0.74990265  0.88199286  1
  O  O311  1  0.74346438  0.24073106  0.37758967  1
  O  O312  1  0.72926621  0.24485503  0.86411678  1
  O  O313  1  0.74704780  0.73834909  0.37131179  1
  O  O314  1  0.74321585  0.73929508  0.87552922  1
  O  O315  1  -0.00410728  0.12230396  0.01500381  1
  O  O316  1  0.00281401  0.12138520  0.50817547  1
  O  O317  1  -0.00864656  0.61477381  0.01266738  1
  O  O318  1  0.00659364  0.61880491  0.50413938  1
  O  O319  1  0.48954186  0.14541497  0.01486420  1
  O  O320  1  0.50884031  0.12248144  0.50722028  1
  O  O321  1  0.48826626  0.62232684  -0.01603177  1
  O  O322  1  0.51307427  0.61836047  0.50300258  1
  O  O323  1  0.49412557  0.38434412  0.50237814  1
  O  O324  1  0.48086284  0.36794047  0.98677520  1
  O  O325  1  0.49260154  0.87718070  0.49851404  1
  O  O326  1  0.48757889  0.87383723  0.98217508  1
  O  O327  1  1.00049093  0.38065900  0.49285568  1
  O  O328  1  0.99675433  0.38783266  1.00758116  1
  O  O329  1  0.99452357  0.87918419  0.49597696  1
  O  O330  1  0.99125107  0.87314150  0.98811680  1
  O  O331  1  0.49735889  0.51025933  0.39035997  1
  O  O332  1  0.48548755  0.48535581  0.86523288  1
  O  O333  1  0.50283826  0.98475136  0.38097217  1
  O  O334  1  0.50268442  0.98698113  0.86445252  1
  O  O335  1  0.99822868  0.49564879  0.37873967  1
  O  O336  1  0.99138534  0.50575089  0.88558093  1
  O  O337  1  0.99874825  0.99312211  0.38182135  1
  O  O338  1  1.01238398  0.98582551  0.87488703  1
  O  O339  1  0.00869829  0.00796478  0.12815954  1
  O  O340  1  0.00052397  0.00988679  0.62017334  1
  O  O341  1  0.00792624  0.50500074  0.11834034  1
  O  O342  1  0.00634282  0.50451336  0.61978239  1
  O  O343  1  0.51302590  0.00252482  0.13629109  1
  O  O344  1  0.49343371  0.01554305  0.62687339  1
  O  O345  1  0.53502846  0.46701619  0.18423728  1
  O  O346  1  0.50652711  0.50791830  0.61724147  1
  O  O347  1  0.24327879  0.37832270  0.24268711  1
  O  O348  1  0.24173293  0.38357566  0.75077477  1
  O  O349  1  0.23784634  0.87366639  0.25033725  1
  O  O350  1  0.25120709  0.88252022  0.74136104  1
  O  O351  1  0.75308965  0.38439146  0.24559017  1
  O  O352  1  0.74022667  0.37795884  0.74736590  1
  O  O353  1  0.75744955  0.89264913  0.25529533  1
  O  O354  1  0.73873185  0.87384038  0.74997192  1
  O  O355  1  0.25861498  0.12871288  0.26191359  1
  O  O356  1  0.25022075  0.12157271  0.76209755  1
  O  O357  1  0.25002915  0.61767840  0.25573602  1
  O  O358  1  0.25567368  0.61274728  0.75063390  1
  O  O359  1  0.75661250  0.11871637  0.25780110  1
  O  O360  1  0.76236339  0.12582663  0.74587643  1
  O  O361  1  0.76196505  0.61446878  0.26245518  1
  O  O362  1  0.75863273  0.61824181  0.75778563  1
  O  O363  1  0.36628372  0.12128859  0.37302733  1
  O  O364  1  0.36284126  0.12894493  0.87448512  1
  O  O365  1  0.35656320  0.61693110  0.38409958  1
  O  O366  1  0.37091178  0.61348525  0.86307869  1
  O  O367  1  0.86505783  0.12440937  0.36872615  1
  O  O368  1  0.88057059  0.12523647  0.85826434  1
  O  O369  1  0.87200649  0.62091255  0.36736152  1
  O  O370  1  0.86959614  0.61444850  0.86797048  1
  O  O371  1  0.13353579  0.38410952  0.12847432  1
  O  O372  1  0.12027134  0.38027074  0.63912826  1
  O  O373  1  0.12086976  0.88098923  0.13556680  1
  O  O374  1  0.13871391  0.87388871  0.62368075  1
  O  O375  1  0.64362032  0.37612283  0.14459905  1
  O  O376  1  0.62477250  0.37899584  0.63173342  1
  O  O377  1  0.63426389  0.89798601  0.11665239  1
  O  O378  1  0.63593457  0.86926126  0.63617512  1
  O  O379  1  0.11936521  0.25470224  0.25716360  1
  O  O380  1  0.11861504  0.25473377  0.75371049  1
  O  O381  1  0.11754489  0.75681094  0.25305442  1
  O  O382  1  0.12636208  0.75438216  0.76385838  1
  O  O383  1  0.61277846  0.25260080  0.25678030  1
  O  O384  1  0.61451614  0.25973231  0.74880907  1
  O  O385  1  0.62337536  0.74832605  0.26758285  1
  O  O386  1  0.61710807  0.75871186  0.75795895  1
  O  O387  1  0.38021677  0.23813735  0.26293103  1
  O  O388  1  0.38543460  0.26010150  0.73860424  1
  O  O389  1  0.37167403  0.75309009  0.23483090  1
  O  O390  1  0.38149649  0.74691214  0.74528234  1
  O  O391  1  0.88046318  0.23639914  0.24954109  1
  O  O392  1  0.88230297  0.24178983  0.74297391  1
  O  O393  1  0.88748376  0.74034552  0.25454615  1
  O  O394  1  0.87871426  0.73359403  0.75513334  1
  O  O395  1  0.38400583  0.49104603  0.50311296  1
  O  O396  1  0.36148867  0.48751944  0.98231499  1
  O  O397  1  0.37511410  0.98643519  0.49889729  1
  O  O398  1  0.36842907  0.98983532  0.99462842  1
  O  O399  1  0.88426485  0.49817356  0.49439349  1
  O  O400  1  0.88276905  0.49280283  0.99130906  1
  O  O401  1  0.88094312  0.98852865  0.49875104  1
  O  O402  1  0.88499882  0.98092512  1.00210462  1
  O  O403  1  0.12139712  -0.01036150  0.01525730  1
  O  O404  1  0.11728389  0.00715161  0.50418256  1
  O  O405  1  0.12001501  0.49259185  0.00743393  1
  O  O406  1  0.12098500  0.50370972  0.50593454  1
  O  O407  1  0.61210329  0.00602008  0.00931411  1
  O  O408  1  0.62735971  0.01582126  0.49604906  1
  O  O409  1  0.61533347  0.49043098  -0.01076340  1
  O  O410  1  0.62078349  0.50620139  0.50511433  1
  O  O411  1  0.35954635  0.38824784  0.11361340  1
  O  O412  1  0.37957342  0.36159183  0.61195703  1
  O  O413  1  0.38099252  0.88058045  0.10669678  1
  O  O414  1  0.36644225  0.87151781  0.62014240  1
  O  O415  1  0.86298882  0.37079216  0.13086552  1
  O  O416  1  0.87494459  0.36126288  0.62498993  1
  O  O417  1  0.87039698  0.87335848  0.11667092  1
  O  O418  1  0.86715084  0.87088185  0.61743904  1
  O  O419  1  0.13113511  0.13024107  0.38001997  1
  O  O420  1  0.13577967  0.13927359  0.87070277  1
  O  O421  1  0.13337160  0.62927271  0.37919685  1
  O  O422  1  0.12476724  0.63923202  0.87342678  1
  O  O423  1  0.63508517  0.13260713  0.38096590  1
  O  O424  1  0.59183383  0.14173142  0.88394426  1
  O  O425  1  0.63710742  0.63482163  0.38502413  1
  O  O426  1  0.63656472  0.63485891  0.87050451  1
