# generated using pymatgen
data_V85Zn86O256
_symmetry_space_group_name_H-M   'P 1'
_cell_length_a   16.96593770
_cell_length_b   16.98382526
_cell_length_c   16.95343198
_cell_angle_alpha   89.91594148
_cell_angle_beta   89.99017721
_cell_angle_gamma   89.89502442
_symmetry_Int_Tables_number   1
_chemical_formula_structural   V85Zn86O256
_chemical_formula_sum   'V85 Zn86 O256'
_cell_volume   4885.05892320
_cell_formula_units_Z   1
loop_
 _symmetry_equiv_pos_site_id
 _symmetry_equiv_pos_as_xyz
  1  'x, y, z'
loop_
 _atom_site_type_symbol
 _atom_site_label
 _atom_site_symmetry_multiplicity
 _atom_site_fract_x
 _atom_site_fract_y
 _atom_site_fract_z
 _atom_site_occupancy
  V  V0  1  0.87403780  0.49886685  0.37362888  1
  V  V1  1  0.49697355  -0.00260757  0.49847893  1
  V  V2  1  0.00150945  0.74785632  0.24983033  1
  V  V3  1  0.62886219  0.12118038  0.49471446  1
  V  V4  1  0.12429384  0.62258636  0.50145561  1
  V  V5  1  0.37181481  0.00715245  0.87696687  1
  V  V6  1  0.00090671  0.49985612  0.50036146  1
  V  V7  1  0.49300757  0.62796088  0.62566178  1
  V  V8  1  0.75662464  0.36319935  0.12197742  1
  V  V9  1  0.86636564  0.13144556  0.24708261  1
  V  V10  1  0.01346571  0.90294504  0.34694413  1
  V  V11  1  0.87261104  0.62252131  0.24857071  1
  V  V12  1  0.24443084  0.49496194  0.75025265  1
  V  V13  1  0.87181357  0.75912214  0.12444037  1
  V  V14  1  0.37643491  0.50235683  0.87443607  1
  V  V15  1  0.74544566  0.37159077  0.63225502  1
  V  V16  1  0.37367045  0.49811632  0.37256629  1
  V  V17  1  0.12814731  -0.00067218  0.62867790  1
  V  V18  1  0.39541709  0.25247559  0.13094286  1
  V  V19  1  0.76026983  0.12051605  0.86899780  1
  V  V20  1  -0.00016054  0.12710731  0.63876271  1
  V  V21  1  0.50057756  0.37021937  0.37115415  1
  V  V22  1  0.24714840  0.49643333  0.23668155  1
  V  V23  1  0.62367395  0.49595252  0.62885687  1
  V  V24  1  0.75214502  0.24398316  0.49866107  1
  V  V25  1  0.49912800  0.13044262  0.62772721  1
  V  V26  1  0.75336940  0.24692943  -0.00150264  1
  V  V27  1  0.63390742  -0.00748683  0.11870425  1
  V  V28  1  -0.00763504  0.25403071  0.23731690  1
  V  V29  1  0.62428944  0.50922440  0.12074755  1
  V  V30  1  0.13786599  0.25918152  0.87032382  1
  V  V31  1  0.12478201  0.12473012  0.50044361  1
  V  V32  1  0.62560913  0.87421077  0.75043958  1
  V  V33  1  0.63603438  0.86955121  0.24257711  1
  V  V34  1  0.25607129  0.12112731  0.36038389  1
  V  V35  1  0.87969385  0.87457979  0.49616577  1
  V  V36  1  0.24956005  0.62405306  0.37362514  1
  V  V37  1  0.13400684  0.11948804  0.00004814  1
  V  V38  1  0.74764321  0.75517747  0.00442184  1
  V  V39  1  -0.00095897  0.37454534  0.37445371  1
  V  V40  1  0.50897081  0.36978780  0.86835703  1
  V  V41  1  0.87471123  0.37420942  0.50013030  1
  V  V42  1  0.49193927  0.74995017  0.74700819  1
  V  V43  1  0.12133940  0.87110357  0.75281153  1
  V  V44  1  0.25189888  0.24863965  0.50017882  1
  V  V45  1  -0.00528327  0.49361321  0.00202044  1
  V  V46  1  0.75254883  0.74997504  0.50084707  1
  V  V47  1  0.50123816  0.87043486  0.37436665  1
  V  V48  1  0.37937786  0.74676031  0.12558015  1
  V  V49  1  -0.01369255  0.00020705  0.00075353  1
  V  V50  1  0.62303090  0.74340237  0.87991510  1
  V  V51  1  0.62732818  0.74677726  0.37369053  1
  V  V52  1  0.74792803  0.62266955  0.88262915  1
  V  V53  1  0.62265678  0.37064149  0.24591519  1
  V  V54  1  0.37825106  0.62289916  0.24702189  1
  V  V55  1  0.12286400  0.61954450  0.00684307  1
  V  V56  1  0.74699923  0.49938140  0.75277565  1
  V  V57  1  0.25126965  0.25992095  0.01277198  1
  V  V58  1  0.49952440  0.49864489  0.50050446  1
  V  V59  1  0.87701404  0.24615543  0.63247957  1
  V  V60  1  0.49952084  0.00533445  0.00464647  1
  V  V61  1  0.25019879  0.00594821  0.75320646  1
  V  V62  1  0.62527479  0.24859891  0.37699914  1
  V  V63  1  0.62552487  -0.00195349  0.62724744  1
  V  V64  1  0.50192082  0.74352746  0.24676695  1
  V  V65  1  0.37489760  0.87076714  0.50524108  1
  V  V66  1  0.25341535  0.74935759  0.50655871  1
  V  V67  1  0.00252296  0.26969632  0.75766819  1
  V  V68  1  0.12242735  0.75363002  0.37109010  1
  V  V69  1  0.87664998  0.63145922  0.75112056  1
  V  V70  1  0.62615468  0.62440704  0.49960602  1
  V  V71  1  0.75010819  0.00486805  0.25420795  1
  V  V72  1  0.37294755  0.37173071  0.50093003  1
  V  V73  1  0.24665309  0.75310564  0.00049734  1
  V  V74  1  0.37401858  0.87827782  0.00198048  1
  V  V75  1  0.12816808  0.37982874  0.23844322  1
  V  V76  1  0.24080198  0.88886457  0.14077866  1
  V  V77  1  0.37768852  0.13036945  0.75016207  1
  V  V78  1  0.50369139  0.51135286  0.00367109  1
  V  V79  1  0.62187334  0.12777111  -0.00217521  1
  V  V80  1  0.12360042  0.25113304  0.37164396  1
  V  V81  1  0.76306471  -0.00038417  0.75436483  1
  V  V82  1  -0.00175792  0.00031372  0.50737452  1
  V  V83  1  -0.00026671  0.62966929  0.62962573  1
  V  V84  1  0.11332172  0.75301006  0.87543752  1
  Zn  Zn85  1  -0.01087596  0.88559507  0.86967811  1
  Zn  Zn86  1  0.37625464  0.25301916  0.63251138  1
  Zn  Zn87  1  0.37526157  0.38025304  0.00654737  1
  Zn  Zn88  1  0.24227291  0.36935166  0.63409030  1
  Zn  Zn89  1  0.62049535  0.24771690  0.84546357  1
  Zn  Zn90  1  0.88007835  0.75181845  0.62780171  1
  Zn  Zn91  1  0.00397743  0.62261938  0.12797989  1
  Zn  Zn92  1  0.88493989  0.36192537  -0.00502174  1
  Zn  Zn93  1  0.74925399  0.49799896  0.24820448  1
  Zn  Zn94  1  0.75386959  0.87571815  0.62569195  1
  Zn  Zn95  1  0.75038077  0.61990276  0.37612755  1
  Zn  Zn96  1  0.86261577  0.01266046  0.38273022  1
  Zn  Zn97  1  0.88723294  0.48949579  0.86922438  1
  Zn  Zn98  1  0.11826661  0.49227287  0.63544534  1
  Zn  Zn99  1  0.42317193  0.12759199  0.22849684  1
  Zn  Zn100  1  0.36924805  0.63121816  0.74695985  1
  Zn  Zn101  1  0.25433691  0.87059474  0.62908861  1
  Zn  Zn102  1  0.49823937  0.87396927  0.87459504  1
  Zn  Zn103  1  0.24859879  0.62692480  0.87279881  1
  Zn  Zn104  1  0.36342508  -0.00701126  0.35660680  1
  Zn  Zn105  1  0.86838253  0.88079735  -0.00510911  1
  Zn  Zn106  1  -0.00175604  0.12320187  0.12316574  1
  Zn  Zn107  1  0.18235675  0.18886151  0.18277007  1
  Zn  Zn108  1  0.18633119  0.18768983  0.68917318  1
  Zn  Zn109  1  0.19316597  0.69139254  0.18721554  1
  Zn  Zn110  1  0.18411887  0.68272244  0.69040108  1
  Zn  Zn111  1  0.63932336  0.16375973  0.20562836  1
  Zn  Zn112  1  0.68505026  0.18316809  0.68747854  1
  Zn  Zn113  1  0.69171894  0.68549975  0.18734502  1
  Zn  Zn114  1  0.68556681  0.68580550  0.68811576  1
  Zn  Zn115  1  0.31391444  0.30977815  0.30421264  1
  Zn  Zn116  1  0.31901923  0.31694786  0.81976044  1
  Zn  Zn117  1  0.31391303  0.81092628  0.31539226  1
  Zn  Zn118  1  0.30805971  0.81843915  0.81619930  1
  Zn  Zn119  1  0.80896309  0.31302235  0.31091077  1
  Zn  Zn120  1  0.81196424  0.30894013  0.81777219  1
  Zn  Zn121  1  0.82079077  0.81598394  0.31681161  1
  Zn  Zn122  1  0.81128577  0.81226581  0.81678947  1
  Zn  Zn123  1  0.18664944  0.43740224  0.43339374  1
  Zn  Zn124  1  0.18500440  0.43701842  0.93450917  1
  Zn  Zn125  1  0.18806372  0.93807295  0.43746510  1
  Zn  Zn126  1  0.18757219  0.93661822  0.93733760  1
  Zn  Zn127  1  0.68915520  0.43526130  0.44056551  1
  Zn  Zn128  1  0.68747631  0.43492959  0.93749845  1
  Zn  Zn129  1  0.68577576  0.93394830  0.43494629  1
  Zn  Zn130  1  0.68805393  0.93527555  0.93262225  1
  Zn  Zn131  1  0.30995299  0.07058359  0.06861775  1
  Zn  Zn132  1  0.31294198  0.06109772  0.56154246  1
  Zn  Zn133  1  0.31328146  0.56590747  0.05898964  1
  Zn  Zn134  1  0.30972036  0.55982010  0.56263640  1
  Zn  Zn135  1  0.80843751  0.06792112  0.06786949  1
  Zn  Zn136  1  0.81290065  0.06186089  0.57124616  1
  Zn  Zn137  1  0.81190916  0.56238688  0.06531333  1
  Zn  Zn138  1  0.81408227  0.56235599  0.56422071  1
  Zn  Zn139  1  0.43598666  0.43439350  0.18465165  1
  Zn  Zn140  1  0.43251932  0.43878223  0.68949601  1
  Zn  Zn141  1  0.44042500  0.93331136  0.18565167  1
  Zn  Zn142  1  0.43830647  0.93950860  0.68781739  1
  Zn  Zn143  1  0.94156469  0.43963761  0.18177805  1
  Zn  Zn144  1  0.93254387  0.44112476  0.68551029  1
  Zn  Zn145  1  0.94322636  0.94712145  0.18475555  1
  Zn  Zn146  1  0.93904266  0.93208042  0.68488724  1
  Zn  Zn147  1  0.05378723  0.07488188  0.31456443  1
  Zn  Zn148  1  0.06639170  0.06697364  0.82283151  1
  Zn  Zn149  1  0.06421308  0.56208063  0.31338021  1
  Zn  Zn150  1  0.06278337  0.56600904  0.81967230  1
  Zn  Zn151  1  0.54469314  0.04435945  0.29977746  1
  Zn  Zn152  1  0.56183160  0.06188328  0.81615883  1
  Zn  Zn153  1  0.56269484  0.55923384  0.31072599  1
  Zn  Zn154  1  0.56040334  0.56243346  0.81238700  1
  Zn  Zn155  1  0.43831921  0.18427234  0.43566699  1
  Zn  Zn156  1  0.43510815  0.18981336  0.93983309  1
  Zn  Zn157  1  0.43735362  0.68569038  0.43568612  1
  Zn  Zn158  1  0.43685977  0.68784983  0.93696267  1
  Zn  Zn159  1  0.93608227  0.18547975  0.43544486  1
  Zn  Zn160  1  0.94142866  0.18215389  0.93368427  1
  Zn  Zn161  1  0.93961512  0.68617279  0.43559727  1
  Zn  Zn162  1  0.93312145  0.68567943  0.93833620  1
  Zn  Zn163  1  0.06871854  0.31233755  0.05838995  1
  Zn  Zn164  1  0.06413012  0.31350104  0.56415908  1
  Zn  Zn165  1  0.05970538  0.81801647  0.06731706  1
  Zn  Zn166  1  0.06749025  0.81241066  0.56316359  1
  Zn  Zn167  1  0.56532996  0.31997898  0.05130197  1
  Zn  Zn168  1  0.56356372  0.31051259  0.56615939  1
  Zn  Zn169  1  0.56067167  0.81193742  0.06051606  1
  Zn  Zn170  1  0.56402155  0.81057455  0.56393116  1
  O  O171  1  0.11814121  0.13721356  0.10491094  1
  O  O172  1  0.11791556  0.12035867  0.62093993  1
  O  O173  1  0.12698286  0.63504916  0.10990263  1
  O  O174  1  0.11589951  0.61760327  0.62074793  1
  O  O175  1  0.63163400  0.10760260  0.10559199  1
  O  O176  1  0.61678730  0.11722973  0.61430581  1
  O  O177  1  0.62743046  0.60732095  0.13168706  1
  O  O178  1  0.61687047  0.61489615  0.61952520  1
  O  O179  1  0.38355484  0.37579489  0.37997895  1
  O  O180  1  0.38426335  0.38915347  0.88219148  1
  O  O181  1  0.38241998  0.87754143  0.38373631  1
  O  O182  1  0.37451008  0.88560658  0.88714851  1
  O  O183  1  0.87941868  0.37862716  0.38003689  1
  O  O184  1  0.85611437  0.38304368  0.88719567  1
  O  O185  1  0.89446343  0.88418240  0.38177832  1
  O  O186  1  0.87920884  0.86759528  0.88185735  1
  O  O187  1  0.24832921  0.01597793  0.37745158  1
  O  O188  1  0.26157985  -0.00347029  0.86642887  1
  O  O189  1  0.25675643  0.50648346  0.36913475  1
  O  O190  1  0.25872638  0.50049315  0.86849586  1
  O  O191  1  0.74755015  -0.00444305  0.36120721  1
  O  O192  1  0.74487439  0.01179329  0.86854325  1
  O  O193  1  0.75811623  0.49740165  0.37250319  1
  O  O194  1  0.73995089  0.50917111  0.86550910  1
  O  O195  1  0.25600981  0.50382925  0.13774284  1
  O  O196  1  0.25090540  0.50025019  0.64143389  1
  O  O197  1  0.25687726  0.98732114  0.12453370  1
  O  O198  1  0.24497066  0.99789377  0.63332819  1
  O  O199  1  0.73566832  0.48975409  0.12014186  1
  O  O200  1  0.74340794  0.49238460  0.63088695  1
  O  O201  1  0.73953834  0.99447624  0.13049485  1
  O  O202  1  0.74203839  0.99893877  0.63655036  1
  O  O203  1  0.00594152  0.37180406  0.25520664  1
  O  O204  1  -0.00000514  0.36821449  0.74664257  1
  O  O205  1  -0.02001775  0.85043383  0.25059452  1
  O  O206  1  0.01691766  0.88243041  0.75157774  1
  O  O207  1  0.50910096  0.37883206  0.26205475  1
  O  O208  1  0.49327251  0.38469348  0.76908314  1
  O  O209  1  0.51192687  0.86313792  0.25470481  1
  O  O210  1  0.50819133  0.86777988  0.74931313  1
  O  O211  1  0.53528328  0.14108624  0.24945991  1
  O  O212  1  0.49092518  0.11422746  0.73807448  1
  O  O213  1  0.49183119  0.63081239  0.25487077  1
  O  O214  1  0.49824209  0.63309432  0.74214094  1
  O  O215  1  0.99084196  0.13922522  0.24440389  1
  O  O216  1  1.00613268  0.12874236  0.74046034  1
  O  O217  1  0.99194317  0.63219182  0.25111300  1
  O  O218  1  0.98882779  0.61535945  0.74253252  1
  O  O219  1  0.36153828  0.25001503  0.00609729  1
  O  O220  1  0.36689470  0.25602802  0.49697067  1
  O  O221  1  0.36910405  0.75790175  0.00516048  1
  O  O222  1  0.36495475  0.75800921  0.49121298  1
  O  O223  1  0.85871035  0.24458794  -0.00576813  1
  O  O224  1  0.86980087  0.25328502  0.50755311  1
  O  O225  1  0.86582386  0.74676561  0.01024828  1
  O  O226  1  0.86997629  0.75860745  0.49639000  1
  O  O227  1  0.13183958  0.24574760  0.49021224  1
  O  O228  1  0.13657701  0.24884863  0.99092581  1
  O  O229  1  0.13246019  0.74457247  0.49065109  1
  O  O230  1  0.13125423  0.74771533  0.99498693  1
  O  O231  1  0.63355410  0.24263928  0.49795723  1
  O  O232  1  0.63552983  0.23857359  1.00185840  1
  O  O233  1  0.63302430  0.74569602  0.49416736  1
  O  O234  1  0.62928765  0.75382015  0.98864615  1
  O  O235  1  0.49415461  0.25262628  0.11451273  1
  O  O236  1  0.49412065  0.23415196  0.61364270  1
  O  O237  1  0.48743864  0.75562039  0.12990267  1
  O  O238  1  0.50804012  0.73877856  0.63456626  1
  O  O239  1  1.00050146  0.25634610  0.13561642  1
  O  O240  1  0.99666600  0.24596106  0.63583746  1
  O  O241  1  0.99161683  0.74523593  0.13282084  1
  O  O242  1  1.00152608  0.73422259  0.61962396  1
  O  O243  1  0.00880674  0.25424714  0.36954657  1
  O  O244  1  -0.00060758  0.25108004  0.85925449  1
  O  O245  1  0.00944639  0.75183087  0.36813466  1
  O  O246  1  0.01187074  0.75224686  0.88206950  1
  O  O247  1  0.51324606  0.26030462  0.38672031  1
  O  O248  1  0.49898834  0.26628763  0.88216128  1
  O  O249  1  0.50731826  0.75194516  0.36837449  1
  O  O250  1  0.50764407  0.74990276  0.86725955  1
  O  O251  1  0.24560392  0.13289302  0.49216154  1
  O  O252  1  0.23988915  0.13901946  1.00151119  1
  O  O253  1  0.24654838  0.63068707  0.49415174  1
  O  O254  1  0.23992961  0.63585681  0.99947652  1
  O  O255  1  0.74270763  0.13411917  0.50958205  1
  O  O256  1  0.74294856  0.12709535  0.98792516  1
  O  O257  1  0.74586177  0.63250735  0.49948044  1
  O  O258  1  0.75305640  0.63111725  0.98820759  1
  O  O259  1  0.25093971  0.36303757  -0.00377712  1
  O  O260  1  0.26031515  0.36435895  0.49086535  1
  O  O261  1  0.25851387  0.87045451  0.00692762  1
  O  O262  1  0.25754507  0.86694901  0.49908631  1
  O  O263  1  0.74114605  0.36433962  0.01151536  1
  O  O264  1  0.75399186  0.36504272  0.51244417  1
  O  O265  1  0.74922263  0.85963428  -0.00510245  1
  O  O266  1  0.76175689  0.86858415  0.49749986  1
  O  O267  1  0.13445263  0.49199347  0.25715456  1
  O  O268  1  0.14120911  0.50486227  0.75791260  1
  O  O269  1  0.04559354  0.96969900  0.27298008  1
  O  O270  1  0.13406924  0.99656934  0.75016013  1
  O  O271  1  0.62438837  0.48851402  0.23898350  1
  O  O272  1  0.63419818  0.50645895  0.73813659  1
  O  O273  1  0.63122090  0.98760361  0.23903488  1
  O  O274  1  0.62696772  0.98902893  0.74759848  1
  O  O275  1  0.41974124  0.01516688  0.26050207  1
  O  O276  1  0.36957299  0.00479324  0.75749716  1
  O  O277  1  0.36927095  0.50232911  0.25390482  1
  O  O278  1  0.36706709  0.50619438  0.75969235  1
  O  O279  1  0.86378804  0.00777001  0.24959929  1
  O  O280  1  0.86164549  -0.00753290  0.74424886  1
  O  O281  1  0.87642579  0.50759195  0.25361175  1
  O  O282  1  0.86185127  0.50900519  0.75019062  1
  O  O283  1  0.11886296  0.36493021  0.36997783  1
  O  O284  1  0.12173513  0.35783126  0.87987980  1
  O  O285  1  0.11313209  0.86732120  0.38193031  1
  O  O286  1  0.12462124  0.86862224  0.86864648  1
  O  O287  1  0.61865752  0.36998962  0.37096255  1
  O  O288  1  0.61304643  0.37270485  0.87687755  1
  O  O289  1  0.62047767  0.86514369  0.36543933  1
  O  O290  1  0.62267529  0.86403222  0.86485019  1
  O  O291  1  0.37496239  0.14481949  0.12297009  1
  O  O292  1  0.38298131  0.12305247  0.63219786  1
  O  O293  1  0.36803977  0.63946999  0.13047640  1
  O  O294  1  0.38997423  0.61848612  0.62354961  1
  O  O295  1  0.87474734  0.12608515  0.14108202  1
  O  O296  1  0.88549620  0.13745534  0.62183368  1
  O  O297  1  0.87551467  0.63184125  0.13666758  1
  O  O298  1  0.88205447  0.62643515  0.63222178  1
  O  O299  1  0.24997900  0.25455310  0.11403133  1
  O  O300  1  0.25175752  0.24872927  0.61156592  1
  O  O301  1  0.26009262  0.76041665  0.11721792  1
  O  O302  1  0.24330365  0.74851778  0.61004984  1
  O  O303  1  0.74763532  0.26175610  0.11771505  1
  O  O304  1  0.75920066  0.25359409  0.61936508  1
  O  O305  1  0.75680301  0.74216405  0.11387664  1
  O  O306  1  0.74929966  0.75093163  0.61057282  1
  O  O307  1  0.24228313  0.24118333  0.37942912  1
  O  O308  1  0.24106796  0.25234563  0.87839019  1
  O  O309  1  0.24066513  0.74524346  0.38094917  1
  O  O310  1  0.24479863  0.75270133  0.88952206  1
  O  O311  1  0.73999638  0.25962785  0.39069917  1
  O  O312  1  0.74199900  0.23573720  0.87814708  1
  O  O313  1  0.74722618  0.74908429  0.38588864  1
  O  O314  1  0.74133534  0.74031823  0.88253841  1
  O  O315  1  0.00637906  0.11700587  0.00119611  1
  O  O316  1  0.00465709  0.12089286  0.51208380  1
  O  O317  1  0.01337249  0.62291852  0.00165120  1
  O  O318  1  0.00379034  0.61919702  0.50701864  1
  O  O319  1  0.50837302  0.11458929  -0.00742615  1
  O  O320  1  0.50581240  0.11424203  0.50491962  1
  O  O321  1  0.49956104  0.61105751  -0.00248655  1
  O  O322  1  0.50500942  0.61934292  0.50595702  1
  O  O323  1  0.49233212  0.37845261  0.49371447  1
  O  O324  1  0.49798196  0.38994675  0.98792695  1
  O  O325  1  0.49462057  0.87712243  0.49694882  1
  O  O326  1  0.48748588  0.88221691  0.99878320  1
  O  O327  1  0.99331125  0.37804901  0.49425240  1
  O  O328  1  1.00044272  0.38889606  1.00723141  1
  O  O329  1  0.99388367  0.88610535  0.50627059  1
  O  O330  1  0.99988885  0.89098365  1.00028831  1
  O  O331  1  0.49529586  0.48956196  0.38081299  1
  O  O332  1  0.49744791  0.49714825  0.88497735  1
  O  O333  1  0.51143297  0.98795253  0.39211597  1
  O  O334  1  0.49018383  0.99500139  0.88484636  1
  O  O335  1  0.99343235  0.49381006  0.38010391  1
  O  O336  1  1.00166053  0.50601448  0.89431766  1
  O  O337  1  0.99581110  1.00743051  0.40108405  1
  O  O338  1  1.00608117  1.00231092  0.89379435  1
  O  O339  1  0.00367427  0.00403624  0.10694521  1
  O  O340  1  0.00497960  0.00879229  0.62228091  1
  O  O341  1  0.00147551  0.50744117  0.11044970  1
  O  O342  1  -0.00185724  0.50939811  0.61791530  1
  O  O343  1  0.51260287  -0.00744867  0.11018877  1
  O  O344  1  0.50513045  0.00523841  0.61437994  1
  O  O345  1  0.51054124  0.49347205  0.11409239  1
  O  O346  1  0.50685049  0.50477307  0.62151597  1
  O  O347  1  0.24039051  0.38480776  0.25886145  1
  O  O348  1  0.25943883  0.39024156  0.75138143  1
  O  O349  1  0.25738474  0.87445738  0.24051267  1
  O  O350  1  0.24322125  0.88646482  0.74815567  1
  O  O351  1  0.74343069  0.37722684  0.23663919  1
  O  O352  1  0.75643378  0.38393809  0.73841234  1
  O  O353  1  0.74050863  0.87772009  0.25440608  1
  O  O354  1  0.73960256  0.88039712  0.75029648  1
  O  O355  1  0.24224891  0.12999990  0.26168711  1
  O  O356  1  0.25937600  0.11257485  0.74361206  1
  O  O357  1  0.25629905  0.61790070  0.25495945  1
  O  O358  1  0.25355777  0.61615453  0.75366902  1
  O  O359  1  0.74805216  0.11298789  0.24378326  1
  O  O360  1  0.74455117  0.11445648  0.76102307  1
  O  O361  1  0.76023197  0.61926046  0.25408507  1
  O  O362  1  0.75539863  0.61678283  0.75527330  1
  O  O363  1  0.36080327  0.12810667  0.37022474  1
  O  O364  1  0.38284253  0.11442738  0.86583197  1
  O  O365  1  0.36988399  0.61793791  0.36845295  1
  O  O366  1  0.37227452  0.61424115  0.87535411  1
  O  O367  1  0.87703274  0.12521270  0.35886493  1
  O  O368  1  0.85842017  0.12656857  0.87396749  1
  O  O369  1  0.87537103  0.61799846  0.36566170  1
  O  O370  1  0.86454536  0.62100640  0.86701945  1
  O  O371  1  0.12425287  0.37241082  0.13994620  1
  O  O372  1  0.13201187  0.38226130  0.61638064  1
  O  O373  1  0.14274070  0.87076284  0.12532974  1
  O  O374  1  0.12856542  0.88071688  0.63458392  1
  O  O375  1  0.63093986  0.37884077  0.13283235  1
  O  O376  1  0.63325569  0.38606883  0.61720560  1
  O  O377  1  0.62208325  0.87802620  0.13319959  1
  O  O378  1  0.62710148  0.87888857  0.63459823  1
  O  O379  1  0.11657671  0.25762463  0.25682102  1
  O  O380  1  0.11550350  0.24738735  0.76027142  1
  O  O381  1  0.11648766  0.74286544  0.26079200  1
  O  O382  1  0.13522492  0.76047985  0.76212838  1
  O  O383  1  0.63811864  0.26393619  0.26499248  1
  O  O384  1  0.62257725  0.25760505  0.73511351  1
  O  O385  1  0.62324897  0.75235733  0.25216047  1
  O  O386  1  0.61843061  0.75663336  0.75674131  1
  O  O387  1  0.38173409  0.24809866  0.23632721  1
  O  O388  1  0.36588980  0.23463232  0.75099343  1
  O  O389  1  0.38091352  0.74410147  0.24397734  1
  O  O390  1  0.38775776  0.75335013  0.75859708  1
  O  O391  1  0.88273183  0.24687158  0.25558495  1
  O  O392  1  0.88778285  0.25587526  0.74062723  1
  O  O393  1  0.87739957  0.73916213  0.24562888  1
  O  O394  1  0.86435761  0.73510549  0.74658800  1
  O  O395  1  0.37784495  0.48993221  0.49343033  1
  O  O396  1  0.38559157  0.50185489  0.99591691  1
  O  O397  1  0.38468990  0.99253980  0.49467563  1
  O  O398  1  0.37948674  0.99845681  0.99631508  1
  O  O399  1  0.87957561  0.49351112  0.49523042  1
  O  O400  1  0.88946743  0.50568848  0.99965274  1
  O  O401  1  0.87920524  0.99273859  0.50457357  1
  O  O402  1  0.88241849  1.00254555  1.00448618  1
  O  O403  1  0.13061158  0.01774694  -0.00548568  1
  O  O404  1  0.11791124  0.00410253  0.50863056  1
  O  O405  1  0.12240239  0.51532612  -0.00403454  1
  O  O406  1  0.11783786  0.50824672  0.49421097  1
  O  O407  1  0.61889279  0.00106700  0.00085008  1
  O  O408  1  0.62137362  0.00337046  0.50617373  1
  O  O409  1  0.61608077  0.49772327  0.01092257  1
  O  O410  1  0.62019462  0.50385134  0.50840687  1
  O  O411  1  0.37750216  0.35953065  0.12198458  1
  O  O412  1  0.37210694  0.37278374  0.61212626  1
  O  O413  1  0.36876960  0.86837969  0.11762259  1
  O  O414  1  0.37482233  0.87940276  0.61000827  1
  O  O415  1  0.85840501  0.38156679  0.11845189  1
  O  O416  1  0.86674605  0.36568976  0.61984923  1
  O  O417  1  0.87742524  0.86106191  0.12293635  1
  O  O418  1  0.87409098  0.86901086  0.61304115  1
  O  O419  1  0.13131620  0.13349464  0.37827876  1
  O  O420  1  0.11887680  0.14461740  0.89088942  1
  O  O421  1  0.12916654  0.63450656  0.38103742  1
  O  O422  1  0.12838165  0.63758098  0.88722168  1
  O  O423  1  0.62228797  0.13402992  0.39154867  1
  O  O424  1  0.62867904  0.12761223  0.88383839  1
  O  O425  1  0.62662929  0.62835276  0.38106711  1
  O  O426  1  0.63402665  0.63537671  0.86633265  1
