# generated using pymatgen
data_V85Zn86O256
_symmetry_space_group_name_H-M   'P 1'
_cell_length_a   16.97867311
_cell_length_b   16.98581805
_cell_length_c   16.99717526
_cell_angle_alpha   89.96515524
_cell_angle_beta   89.92469999
_cell_angle_gamma   89.83464053
_symmetry_Int_Tables_number   1
_chemical_formula_structural   V85Zn86O256
_chemical_formula_sum   'V85 Zn86 O256'
_cell_volume   4901.90290055
_cell_formula_units_Z   1
loop_
 _symmetry_equiv_pos_site_id
 _symmetry_equiv_pos_as_xyz
  1  'x, y, z'
loop_
 _atom_site_type_symbol
 _atom_site_label
 _atom_site_symmetry_multiplicity
 _atom_site_fract_x
 _atom_site_fract_y
 _atom_site_fract_z
 _atom_site_occupancy
  V  V0  1  0.37487393  -0.00223495  0.37484770  1
  V  V1  1  0.51293818  0.00319798  0.50696414  1
  V  V2  1  0.51550123  0.50304922  0.49883002  1
  V  V3  1  0.74799508  0.62753903  0.87909772  1
  V  V4  1  0.86568281  0.75745868  0.62684335  1
  V  V5  1  0.37290699  0.38166665  0.50219650  1
  V  V6  1  0.25023587  0.74423301  0.49888380  1
  V  V7  1  0.12526791  0.24826152  0.37464134  1
  V  V8  1  0.50585468  0.25647139  0.76250242  1
  V  V9  1  0.87846172  -0.00398964  0.37499914  1
  V  V10  1  0.86974135  0.62495065  0.25545921  1
  V  V11  1  0.75069901  0.87616010  0.12416358  1
  V  V12  1  0.25452513  0.00057688  0.75116667  1
  V  V13  1  0.73696457  0.12659234  0.37751868  1
  V  V14  1  0.49552231  0.75160263  0.73994793  1
  V  V15  1  0.37450843  0.86842972  0.50207079  1
  V  V16  1  0.87173948  0.25466636  0.12574406  1
  V  V17  1  0.12460893  0.62263150  0.50341856  1
  V  V18  1  0.25294614  0.12335543  0.37270511  1
  V  V19  1  0.37682905  0.25013082  0.12301303  1
  V  V20  1  0.25319610  0.74928320  0.00185766  1
  V  V21  1  0.74449448  0.24417499  -0.00406540  1
  V  V22  1  0.25596789  0.62259795  0.87274716  1
  V  V23  1  0.12214431  0.87585639  0.75494773  1
  V  V24  1  0.50665696  0.61872300  0.11841787  1
  V  V25  1  0.12594820  -0.00099581  0.62427043  1
  V  V26  1  0.87555378  0.37061665  0.49842747  1
  V  V27  1  -0.00095473  0.12708547  0.62771417  1
  V  V28  1  0.62762560  0.87909890  0.73604815  1
  V  V29  1  0.73497944  0.24560574  0.49821344  1
  V  V30  1  0.37226419  0.62525690  0.73705490  1
  V  V31  1  0.74979366  0.00133015  0.25015557  1
  V  V32  1  0.74794852  -0.00352511  0.73600906  1
  V  V33  1  0.87417664  0.24829054  0.62419387  1
  V  V34  1  0.12677398  0.00054543  0.12492835  1
  V  V35  1  0.62609063  0.75377827  0.87622435  1
  V  V36  1  0.00032560  0.37309760  0.37496187  1
  V  V37  1  0.87359168  0.37467776  0.00368565  1
  V  V38  1  0.74834085  0.75297753  -0.00020987  1
  V  V39  1  0.50135669  0.00650246  0.00031841  1
  V  V40  1  0.12313070  0.75354104  0.87830432  1
  V  V41  1  0.87371438  0.12858109  0.75214359  1
  V  V42  1  0.63166485  0.37325434  0.25591935  1
  V  V43  1  0.12664632  0.74785419  0.37762080  1
  V  V44  1  0.00183236  0.49896143  0.00154142  1
  V  V45  1  0.87561750  0.50303503  0.87848913  1
  V  V46  1  0.50218465  0.25102142  0.25828713  1
  V  V47  1  0.24668809  0.49498412  0.74737064  1
  V  V48  1  0.62408573  0.00558711  0.12076149  1
  V  V49  1  0.37947934  0.74634843  0.12776156  1
  V  V50  1  0.24891925  0.12686766  0.87525994  1
  V  V51  1  -0.00041742  0.50139428  0.50083259  1
  V  V52  1  0.86851425  0.50311271  0.37471235  1
  V  V53  1  0.86781615  0.87608740  0.50365912  1
  V  V54  1  0.00028612  -0.00753034  0.49578687  1
  V  V55  1  0.51689189  0.62109611  0.62210248  1
  V  V56  1  0.37978823  0.38517567  -0.00828864  1
  V  V57  1  0.12599728  0.12244733  0.49909326  1
  V  V58  1  0.25490991  0.25016795  0.50248228  1
  V  V59  1  0.00008192  0.75258684  0.25734971  1
  V  V60  1  0.62604051  0.87001653  0.25189699  1
  V  V61  1  0.87919949  -0.00190810  0.87484913  1
  V  V62  1  0.87667740  0.75054093  0.12614599  1
  V  V63  1  0.36496605  0.61170464  0.25520319  1
  V  V64  1  0.12372376  0.87425475  0.25611326  1
  V  V65  1  0.87569334  0.12528747  0.25186693  1
  V  V66  1  0.11940055  0.25749566  0.86339719  1
  V  V67  1  0.12951612  0.37782414  0.25199725  1
  V  V68  1  0.25292764  0.87303546  0.12758673  1
  V  V69  1  0.00164529  0.62409742  0.12630010  1
  V  V70  1  0.25178713  0.37845532  0.12956342  1
  V  V71  1  0.87492296  0.62971386  0.75264084  1
  V  V72  1  0.62296594  0.38293745  0.75742616  1
  V  V73  1  0.00157117  0.12407563  0.12177276  1
  V  V74  1  0.25305242  0.86776599  0.62570407  1
  V  V75  1  0.51547556  0.73015086  0.26490213  1
  V  V76  1  0.63210522  0.49453060  0.11742190  1
  V  V77  1  0.00194006  0.25025257  0.25002873  1
  V  V78  1  0.88351651  0.87598013  -0.00354194  1
  V  V79  1  -0.00141305  0.75642273  0.75421448  1
  V  V80  1  0.50372579  0.86990896  0.37477467  1
  V  V81  1  0.00057609  0.37640845  0.85745161  1
  V  V82  1  0.12926012  0.49992314  0.13001768  1
  V  V83  1  0.49710930  0.87468879  0.87660400  1
  V  V84  1  0.74287828  0.73909068  0.48588888  1
  Zn  Zn85  1  -0.00207454  0.62631077  0.62664780  1
  Zn  Zn86  1  0.24406983  0.37081899  0.63099164  1
  Zn  Zn87  1  0.50980527  0.48871705  -0.02140466  1
  Zn  Zn88  1  0.37895210  0.13109729  0.74633213  1
  Zn  Zn89  1  0.50489573  0.12968958  0.12029046  1
  Zn  Zn90  1  0.73652657  0.13175513  0.87176441  1
  Zn  Zn91  1  0.25382050  -0.00248051  0.24952720  1
  Zn  Zn92  1  0.75008448  0.49847949  0.24970467  1
  Zn  Zn93  1  0.00468849  -0.00370974  -0.00822358  1
  Zn  Zn94  1  0.49757010  0.37932791  0.37725135  1
  Zn  Zn95  1  0.34436790  0.50348245  0.37758817  1
  Zn  Zn96  1  0.37597042  0.00258927  0.87849978  1
  Zn  Zn97  1  0.12554300  0.12940227  -0.00078520  1
  Zn  Zn98  1  0.74019486  0.38406059  0.62116044  1
  Zn  Zn99  1  0.38155961  0.24835613  0.62552770  1
  Zn  Zn100  1  0.37750677  0.87363977  0.00291446  1
  Zn  Zn101  1  0.51001521  0.12909815  0.62370761  1
  Zn  Zn102  1  0.12725432  0.62351590  0.00032188  1
  Zn  Zn103  1  0.37886429  0.12284013  0.24663132  1
  Zn  Zn104  1  0.74288681  0.50418834  0.74197757  1
  Zn  Zn105  1  0.24825810  0.25301488  -0.00170374  1
  Zn  Zn106  1  0.10575827  0.47911938  0.64425641  1
  Zn  Zn107  1  0.19104115  0.19002456  0.18729474  1
  Zn  Zn108  1  0.18644342  0.18721439  0.68670420  1
  Zn  Zn109  1  0.18742657  0.68654690  0.18846576  1
  Zn  Zn110  1  0.18382291  0.68460573  0.68648870  1
  Zn  Zn111  1  0.68879427  0.18912816  0.18738604  1
  Zn  Zn112  1  0.68066092  0.19080529  0.68509295  1
  Zn  Zn113  1  0.69023231  0.68349388  0.18537708  1
  Zn  Zn114  1  0.68821931  0.69342077  0.68813789  1
  Zn  Zn115  1  0.31650996  0.31663461  0.31513532  1
  Zn  Zn116  1  0.31634133  0.31101014  0.81352130  1
  Zn  Zn117  1  0.31600610  0.80411457  0.31194523  1
  Zn  Zn118  1  0.31366189  0.80843854  0.81326076  1
  Zn  Zn119  1  0.81221180  0.30983825  0.31640932  1
  Zn  Zn120  1  0.80889396  0.31531519  0.81404079  1
  Zn  Zn121  1  0.81312501  0.81489227  0.31410386  1
  Zn  Zn122  1  0.81141954  0.82055925  0.81540685  1
  Zn  Zn123  1  0.18578541  0.43682972  0.44020872  1
  Zn  Zn124  1  0.18997046  0.43686051  0.93825125  1
  Zn  Zn125  1  0.18856989  0.93433267  0.43682013  1
  Zn  Zn126  1  0.19071017  0.93699576  0.94076818  1
  Zn  Zn127  1  0.68831451  0.43103640  0.43631067  1
  Zn  Zn128  1  0.69196085  0.43226142  0.93408904  1
  Zn  Zn129  1  0.69069709  0.93350719  0.43590058  1
  Zn  Zn130  1  0.66690434  0.97627094  0.91173096  1
  Zn  Zn131  1  0.31498038  0.06251989  0.06030323  1
  Zn  Zn132  1  0.32079378  0.06101986  0.56510066  1
  Zn  Zn133  1  0.31288635  0.56399654  0.06230029  1
  Zn  Zn134  1  0.31227194  0.56050023  0.56734559  1
  Zn  Zn135  1  0.81385814  0.06292866  0.06166390  1
  Zn  Zn136  1  0.80830001  0.06627586  0.55984385  1
  Zn  Zn137  1  0.81342528  0.56561628  0.06374909  1
  Zn  Zn138  1  0.80900817  0.56631183  0.56369655  1
  Zn  Zn139  1  0.44094366  0.43673390  0.18426635  1
  Zn  Zn140  1  0.43527212  0.43901345  0.68816916  1
  Zn  Zn141  1  0.44279319  0.93341449  0.18934379  1
  Zn  Zn142  1  0.43788480  0.93580778  0.68578580  1
  Zn  Zn143  1  0.94109091  0.43824037  0.18933532  1
  Zn  Zn144  1  0.91024641  0.44826829  0.67810614  1
  Zn  Zn145  1  0.93920126  0.93676500  0.18661333  1
  Zn  Zn146  1  0.93712605  0.94049020  0.68569912  1
  Zn  Zn147  1  0.06312387  0.06203852  0.31104375  1
  Zn  Zn148  1  0.06309796  0.06558327  0.81188355  1
  Zn  Zn149  1  0.06622474  0.56320591  0.31663569  1
  Zn  Zn150  1  0.06309736  0.56619580  0.81671111  1
  Zn  Zn151  1  0.55868786  0.05852741  0.30997897  1
  Zn  Zn152  1  0.56581345  0.07371492  0.80703046  1
  Zn  Zn153  1  0.55503445  0.55677949  0.30593884  1
  Zn  Zn154  1  0.56566596  0.56091733  0.80903592  1
  Zn  Zn155  1  0.43947500  0.18587325  0.43946210  1
  Zn  Zn156  1  0.43449497  0.18981669  0.93590127  1
  Zn  Zn157  1  0.43664421  0.68042205  0.43907640  1
  Zn  Zn158  1  0.45806850  0.65500277  0.91579622  1
  Zn  Zn159  1  0.93514284  0.18286986  0.43881721  1
  Zn  Zn160  1  0.93766285  0.18979416  0.93520075  1
  Zn  Zn161  1  0.93558670  0.68917611  0.43867681  1
  Zn  Zn162  1  0.93984968  0.68916001  0.93990197  1
  Zn  Zn163  1  0.06401157  0.31290660  0.05620279  1
  Zn  Zn164  1  0.06296361  0.31055823  0.56409083  1
  Zn  Zn165  1  0.06466355  0.81170422  0.06739836  1
  Zn  Zn166  1  0.06047737  0.81185721  0.56738723  1
  Zn  Zn167  1  0.56126163  0.31570126  0.06497759  1
  Zn  Zn168  1  0.55949094  0.32052223  0.57554003  1
  Zn  Zn169  1  0.56236799  0.81236327  0.06631619  1
  Zn  Zn170  1  0.56400858  0.81041307  0.55673059  1
  O  O171  1  0.11932620  0.11758451  0.12756931  1
  O  O172  1  0.11804759  0.11909313  0.61974486  1
  O  O173  1  0.12077061  0.61672026  0.12477466  1
  O  O174  1  0.11713259  0.62737457  0.61171570  1
  O  O175  1  0.62522683  0.10976507  0.13227629  1
  O  O176  1  0.62196149  0.11885260  0.62739131  1
  O  O177  1  0.61403126  0.61211256  0.13480203  1
  O  O178  1  0.61577552  0.62223795  0.63212058  1
  O  O179  1  0.37800230  0.38172763  0.38676138  1
  O  O180  1  0.36560094  0.37496054  0.89417317  1
  O  O181  1  0.37825909  0.88179065  0.38109542  1
  O  O182  1  0.38776602  0.87201177  0.87567060  1
  O  O183  1  0.88178836  0.38163289  0.37797518  1
  O  O184  1  0.88303839  0.38166340  0.88239699  1
  O  O185  1  0.87408694  0.88979453  0.38265163  1
  O  O186  1  0.87568797  0.88241728  0.88636522  1
  O  O187  1  0.25750446  0.00609947  0.37525549  1
  O  O188  1  0.24788778  0.00694884  0.86693420  1
  O  O189  1  0.23370372  0.50255695  0.36833385  1
  O  O190  1  0.24147937  0.51440358  0.86513341  1
  O  O191  1  0.75867538  0.00646906  0.37046221  1
  O  O192  1  0.76976225  0.00179136  0.86320402  1
  O  O193  1  0.76523653  0.49373427  0.37446678  1
  O  O194  1  0.75692933  0.51480447  0.87819085  1
  O  O195  1  0.23886914  0.49209512  0.12117687  1
  O  O196  1  0.24378109  0.50076333  0.64014254  1
  O  O197  1  0.24265748  0.99528007  0.12822348  1
  O  O198  1  0.24520756  0.99082400  0.63149406  1
  O  O199  1  0.73571563  0.50847963  0.12785465  1
  O  O200  1  0.79164606  0.48631748  0.63782432  1
  O  O201  1  0.74501246  0.99632166  0.13016551  1
  O  O202  1  0.75852165  0.99997981  0.63756786  1
  O  O203  1  0.00760341  0.36838862  0.25594639  1
  O  O204  1  -0.01235286  0.38757435  0.76028799  1
  O  O205  1  0.01170489  0.86381199  0.24273598  1
  O  O206  1  0.01252373  0.87024426  0.74498114  1
  O  O207  1  0.50662405  0.36550412  0.25153910  1
  O  O208  1  0.50865159  0.36904746  0.74597264  1
  O  O209  1  0.50869689  0.86222833  0.25785609  1
  O  O210  1  0.50511407  0.86945732  0.75484019  1
  O  O211  1  0.50061112  0.13904188  0.24762235  1
  O  O212  1  0.49871884  0.13985000  0.74916000  1
  O  O213  1  0.48198989  0.61939338  0.23138294  1
  O  O214  1  0.49409028  0.63149083  0.73624687  1
  O  O215  1  0.99650328  0.13039705  0.24226362  1
  O  O216  1  0.98957402  0.11608926  0.73571800  1
  O  O217  1  0.99397834  0.63407655  0.24624046  1
  O  O218  1  0.99063555  0.63804260  0.75338952  1
  O  O219  1  0.37412728  0.26005802  0.01010798  1
  O  O220  1  0.36869707  0.25901968  0.49706635  1
  O  O221  1  0.37167821  0.75006818  0.01896469  1
  O  O222  1  0.36444438  0.76001690  0.49245374  1
  O  O223  1  0.87343067  0.25706248  0.00821070  1
  O  O224  1  0.87088324  0.25178132  0.50610226  1
  O  O225  1  0.87175041  0.75710949  0.00604805  1
  O  O226  1  0.87280673  0.75843524  0.50795038  1
  O  O227  1  0.13388803  0.24122672  0.49307850  1
  O  O228  1  0.12901459  0.24794663  0.98788462  1
  O  O229  1  0.12826147  0.74639719  0.49517810  1
  O  O230  1  0.13117151  0.75124000  0.99330219  1
  O  O231  1  0.63788120  0.25907386  0.50327237  1
  O  O232  1  0.64781260  0.26095873  1.01511503  1
  O  O233  1  0.64454244  0.75649895  0.50038265  1
  O  O234  1  0.63637246  0.76079509  0.98862415  1
  O  O235  1  0.49194818  0.24938729  0.13254736  1
  O  O236  1  0.49833938  0.24808993  0.63556164  1
  O  O237  1  0.50029436  0.73845962  0.13988275  1
  O  O238  1  0.50719687  0.73802846  0.63102091  1
  O  O239  1  0.99530820  0.24200427  0.12972393  1
  O  O240  1  0.99078984  0.23408420  0.61464663  1
  O  O241  1  0.99694689  0.74409686  0.13615138  1
  O  O242  1  0.99114777  0.75037067  0.63902994  1
  O  O243  1  0.00452225  0.25113472  0.37052278  1
  O  O244  1  0.01114195  0.25912236  0.87557871  1
  O  O245  1  0.00761744  0.74880076  0.36451800  1
  O  O246  1  0.01026674  0.74795126  0.86619446  1
  O  O247  1  0.49589677  0.25152665  0.36087773  1
  O  O248  1  0.49512078  0.25087390  0.86210341  1
  O  O249  1  0.48397110  0.76767935  0.37587565  1
  O  O250  1  0.51003143  0.75288218  0.86445813  1
  O  O251  1  0.24784138  0.12863549  0.49060109  1
  O  O252  1  0.24830326  0.12516570  0.98697241  1
  O  O253  1  0.24112217  0.63716332  0.51028008  1
  O  O254  1  0.24993416  0.63114905  0.99042603  1
  O  O255  1  0.75057438  0.13627080  0.49194790  1
  O  O256  1  0.75829687  0.14099491  1.00056969  1
  O  O257  1  0.75684467  0.63941534  0.50003729  1
  O  O258  1  0.75899349  0.64141132  0.99097403  1
  O  O259  1  0.25943014  0.37511048  0.01264789  1
  O  O260  1  0.25631145  0.36258809  0.49771432  1
  O  O261  1  0.25445770  0.86759623  0.00886923  1
  O  O262  1  0.25443035  0.86731513  0.50719121  1
  O  O263  1  0.76806631  0.36622607  -0.00502715  1
  O  O264  1  0.75720881  0.36112958  0.49922809  1
  O  O265  1  0.76422840  0.86350964  0.00661460  1
  O  O266  1  0.76402419  0.86773901  0.49724415  1
  O  O267  1  0.11512626  0.49361098  0.23744132  1
  O  O268  1  0.13840279  0.51232771  0.74988717  1
  O  O269  1  0.12629696  0.99069375  0.24348269  1
  O  O270  1  0.13308967  0.99273083  0.74618501  1
  O  O271  1  0.62645215  0.48931358  0.24399141  1
  O  O272  1  0.62647844  0.49167170  0.74761483  1
  O  O273  1  0.62864899  0.98941424  0.24180553  1
  O  O274  1  0.64148519  0.99310854  0.75222763  1
  O  O275  1  0.37683191  -0.00047513  0.26228863  1
  O  O276  1  0.36145883  -0.00429184  0.75254186  1
  O  O277  1  0.37667844  0.50851477  0.24851610  1
  O  O278  1  0.36050115  0.51305219  0.74550836  1
  O  O279  1  0.87167748  0.00355823  0.25667318  1
  O  O280  1  0.86835646  0.00514213  0.75325132  1
  O  O281  1  0.87566671  0.50673236  0.25665577  1
  O  O282  1  0.87924653  0.51922572  0.76422272  1
  O  O283  1  0.11821096  0.36569631  0.37172480  1
  O  O284  1  0.11775320  0.36512569  0.87729917  1
  O  O285  1  0.12759526  0.86552695  0.36536551  1
  O  O286  1  0.13296700  0.86625355  0.86538715  1
  O  O287  1  0.61769337  0.37910833  0.35983896  1
  O  O288  1  0.62432792  0.38166153  0.86007628  1
  O  O289  1  0.61597465  0.87979863  0.36289225  1
  O  O290  1  0.61519236  0.87047823  0.86452245  1
  O  O291  1  0.37483356  0.13732812  0.12734744  1
  O  O292  1  0.38513842  0.12673558  0.62826839  1
  O  O293  1  0.38156457  0.62987169  0.13078940  1
  O  O294  1  0.37922374  0.63001807  0.63353483  1
  O  O295  1  0.88461571  0.13102911  0.13207654  1
  O  O296  1  0.88092713  0.12919476  0.62978181  1
  O  O297  1  0.88205121  0.63062053  0.13449687  1
  O  O298  1  0.87679178  0.63874988  0.63921666  1
  O  O299  1  0.25909745  0.25860227  0.12337496  1
  O  O300  1  0.25242916  0.24488801  0.61053886  1
  O  O301  1  0.25813863  0.75325532  0.12266372  1
  O  O302  1  0.24158225  0.76156324  0.61675236  1
  O  O303  1  0.76733053  0.24515722  0.11983640  1
  O  O304  1  0.75949522  0.24616109  0.61032796  1
  O  O305  1  0.75620485  0.75357273  0.11707671  1
  O  O306  1  0.76246430  0.74955200  0.61893213  1
  O  O307  1  0.24760931  0.24107921  0.38192610  1
  O  O308  1  0.23925034  0.24300714  0.87391060  1
  O  O309  1  0.23921533  0.75423108  0.38739138  1
  O  O310  1  0.24145736  0.74548486  0.88004289  1
  O  O311  1  0.75449870  0.24085214  0.38849312  1
  O  O312  1  0.75508229  0.24788770  0.89067255  1
  O  O313  1  0.75740349  0.75042120  0.38642544  1
  O  O314  1  0.74547850  0.74895970  0.88106608  1
  O  O315  1  0.00021610  0.12316526  0.01317697  1
  O  O316  1  0.00501275  0.11333550  0.50702650  1
  O  O317  1  0.00192810  0.61832202  0.00755147  1
  O  O318  1  0.00418033  0.61720162  0.50089181  1
  O  O319  1  0.49321751  0.11055708  -0.00027357  1
  O  O320  1  0.49774938  0.10493785  0.49404788  1
  O  O321  1  0.49852309  0.63781147  0.02101079  1
  O  O322  1  0.49940377  0.61763887  0.51237870  1
  O  O323  1  0.49253087  0.39026133  0.50383583  1
  O  O324  1  0.48566920  0.37680128  1.00445259  1
  O  O325  1  0.49167590  0.87900425  0.49374882  1
  O  O326  1  0.49939209  0.87790083  0.99126392  1
  O  O327  1  0.99544456  0.38155289  0.49380451  1
  O  O328  1  0.99061007  0.38079734  0.99248678  1
  O  O329  1  0.99335026  0.88720504  0.50478536  1
  O  O330  1  0.98786503  0.87648845  1.01085056  1
  O  O331  1  0.49969406  0.50491724  0.39345679  1
  O  O332  1  0.49234014  0.54828894  0.88824766  1
  O  O333  1  0.49231357  0.98886038  0.38072037  1
  O  O334  1  0.49915644  0.98797729  0.88185201  1
  O  O335  1  0.99371555  0.49358501  0.38268519  1
  O  O336  1  0.99685564  0.49536931  0.88257126  1
  O  O337  1  0.99088220  1.00875949  0.38469073  1
  O  O338  1  0.98693042  1.00609548  0.87470434  1
  O  O339  1  0.00961078  0.00938100  0.12806555  1
  O  O340  1  0.00550962  0.00720921  0.61550910  1
  O  O341  1  0.00827160  0.50404236  0.12015053  1
  O  O342  1  -0.00699455  0.50268247  0.61320075  1
  O  O343  1  0.50634192  0.00025568  0.11905293  1
  O  O344  1  0.49536911  -0.00450653  0.60807099  1
  O  O345  1  0.50819695  0.50934348  0.11857362  1
  O  O346  1  0.49548765  0.51432444  0.61563034  1
  O  O347  1  0.24517896  0.36801176  0.23803265  1
  O  O348  1  0.25594553  0.39299895  0.75453836  1
  O  O349  1  0.24051695  0.87202762  0.24646624  1
  O  O350  1  0.24321500  0.87853739  0.74407049  1
  O  O351  1  0.73563206  0.37193000  0.25416279  1
  O  O352  1  0.73890764  0.37817739  0.75045978  1
  O  O353  1  0.74556547  0.88145320  0.24532975  1
  O  O354  1  0.74392497  0.88759987  0.75176657  1
  O  O355  1  0.25323412  0.12384052  0.26297845  1
  O  O356  1  0.24746202  0.11377650  0.75617717  1
  O  O357  1  0.26669533  0.62955047  0.24393299  1
  O  O358  1  0.25534481  0.62374864  0.75290725  1
  O  O359  1  0.75682134  0.12157881  0.25711719  1
  O  O360  1  0.75878791  0.11414049  0.74979670  1
  O  O361  1  0.76650826  0.62466288  0.24731493  1
  O  O362  1  0.76039227  0.63035372  0.76030799  1
  O  O363  1  0.36789596  0.11468499  0.37539553  1
  O  O364  1  0.36069351  0.12418159  0.86910478  1
  O  O365  1  0.38066879  0.62101147  0.35890994  1
  O  O366  1  0.35937438  0.63937903  0.85838126  1
  O  O367  1  0.86778115  0.11451689  0.37046452  1
  O  O368  1  0.87664844  0.12148613  0.86291785  1
  O  O369  1  0.88510332  0.61432421  0.36561870  1
  O  O370  1  0.86781814  0.62716734  0.87077058  1
  O  O371  1  0.13187374  0.38037051  0.12991041  1
  O  O372  1  0.13140303  0.37305338  0.62180840  1
  O  O373  1  0.13173429  0.88127109  0.13488639  1
  O  O374  1  0.13305780  0.87946047  0.63400793  1
  O  O375  1  0.61851415  0.39061011  0.13811695  1
  O  O376  1  0.62995730  0.37452004  0.64347715  1
  O  O377  1  0.63114336  0.88452051  0.13223731  1
  O  O378  1  0.61912244  0.87088300  0.63798781  1
  O  O379  1  0.12122582  0.25566113  0.25565623  1
  O  O380  1  0.12815464  0.24808174  0.76415171  1
  O  O381  1  0.11977776  0.75392357  0.25804338  1
  O  O382  1  0.11849160  0.75728115  0.75678923  1
  O  O383  1  0.61374748  0.26310564  0.23915751  1
  O  O384  1  0.61393147  0.25995674  0.75357597  1
  O  O385  1  0.62628154  0.76729118  0.23225046  1
  O  O386  1  0.61938498  0.75973836  0.75690310  1
  O  O387  1  0.38753923  0.25298605  0.24230733  1
  O  O388  1  0.38677039  0.25433273  0.74603336  1
  O  O389  1  0.38817184  0.73790434  0.24537561  1
  O  O390  1  0.38936232  0.74655876  0.74949096  1
  O  O391  1  0.88117999  0.24658280  0.24419726  1
  O  O392  1  0.86447469  0.23814847  0.73837644  1
  O  O393  1  0.88251200  0.74597523  0.24758405  1
  O  O394  1  0.87982193  0.75122774  0.74808560  1
  O  O395  1  0.37481222  0.49391306  0.49772832  1
  O  O396  1  0.37724510  0.48729138  1.00813937  1
  O  O397  1  0.37839568  0.98684855  0.48981149  1
  O  O398  1  0.38506033  0.99257627  0.99923613  1
  O  O399  1  0.88299190  0.49486249  0.49119324  1
  O  O400  1  0.87988761  0.49409020  0.99855878  1
  O  O401  1  0.88028952  0.99520293  0.49506293  1
  O  O402  1  0.87652385  0.99254775  0.99355233  1
  O  O403  1  0.12287643  -0.00005728  0.01316664  1
  O  O404  1  0.11926020  0.00178299  0.50296107  1
  O  O405  1  0.11970859  0.49966925  0.01143018  1
  O  O406  1  0.11119743  0.50803967  0.50024981  1
  O  O407  1  0.61336415  -0.01379152  0.01409489  1
  O  O408  1  0.61100767  -0.01189740  0.49563458  1
  O  O409  1  0.62607505  0.48873700  0.01387104  1
  O  O410  1  0.61441698  0.49381556  0.50061319  1
  O  O411  1  0.36804049  0.36838374  0.12174020  1
  O  O412  1  0.36693792  0.37485557  0.61250556  1
  O  O413  1  0.37156212  0.86250138  0.13215032  1
  O  O414  1  0.36352775  0.87868941  0.61410636  1
  O  O415  1  0.88588041  0.36535119  0.11724954  1
  O  O416  1  0.88072695  0.35607119  0.61668176  1
  O  O417  1  0.86954494  0.87014708  0.12100289  1
  O  O418  1  0.88012922  0.86838497  0.61612659  1
  O  O419  1  0.13392017  0.12716921  0.37864985  1
  O  O420  1  0.12991050  0.13527646  0.87548962  1
  O  O421  1  0.11914794  0.63788442  0.38868000  1
  O  O422  1  0.13410449  0.63953821  0.87659531  1
  O  O423  1  0.63842887  0.11772019  0.36735582  1
  O  O424  1  0.63583462  0.08686290  0.88962610  1
  O  O425  1  0.57487423  0.66955357  0.32330382  1
  O  O426  1  0.63957907  0.64236770  0.86549606  1
