# generated using pymatgen
data_V85Zn86O256
_symmetry_space_group_name_H-M   'P 1'
_cell_length_a   16.95822991
_cell_length_b   16.95861092
_cell_length_c   16.95223276
_cell_angle_alpha   90.07546033
_cell_angle_beta   90.08935719
_cell_angle_gamma   90.01638102
_symmetry_Int_Tables_number   1
_chemical_formula_structural   V85Zn86O256
_chemical_formula_sum   'V85 Zn86 O256'
_cell_volume   4875.24874414
_cell_formula_units_Z   1
loop_
 _symmetry_equiv_pos_site_id
 _symmetry_equiv_pos_as_xyz
  1  'x, y, z'
loop_
 _atom_site_type_symbol
 _atom_site_label
 _atom_site_symmetry_multiplicity
 _atom_site_fract_x
 _atom_site_fract_y
 _atom_site_fract_z
 _atom_site_occupancy
  V  V0  1  0.12510432  0.25127838  0.37094340  1
  V  V1  1  0.36883747  0.62498484  0.25305011  1
  V  V2  1  0.25014047  -0.00558205  0.74690669  1
  V  V3  1  0.49547807  0.74852876  0.25304719  1
  V  V4  1  0.62172980  0.25336564  0.36173693  1
  V  V5  1  0.75188175  0.25317197  0.49673064  1
  V  V6  1  0.62465390  0.00232840  0.62459207  1
  V  V7  1  0.75146214  0.00532229  0.75809782  1
  V  V8  1  0.62043027  0.87411496  0.75033523  1
  V  V9  1  0.25115489  0.49982097  0.75174028  1
  V  V10  1  0.87072790  0.14185244  0.75852086  1
  V  V11  1  0.75081616  -0.00160123  0.24830188  1
  V  V12  1  0.25211578  0.25498022  0.49966208  1
  V  V13  1  0.14094274  0.37754917  0.24368475  1
  V  V14  1  0.24562049  0.00171754  0.24698856  1
  V  V15  1  0.50139213  0.13439161  0.12660348  1
  V  V16  1  0.13254084  0.11778308  -0.00664077  1
  V  V17  1  0.24845244  0.62116032  0.37536199  1
  V  V18  1  0.74889303  0.38946687  0.13061556  1
  V  V19  1  0.87889548  0.37259937  0.00627909  1
  V  V20  1  0.12378628  0.49497353  0.63107735  1
  V  V21  1  0.37389336  0.87781203  0.00097902  1
  V  V22  1  0.37016534  0.87762891  0.50575608  1
  V  V23  1  0.63077416  0.74996167  0.37915258  1
  V  V24  1  0.12215460  0.75875648  0.87454070  1
  V  V25  1  0.62747238  0.50074927  0.62466124  1
  V  V26  1  0.75029954  0.37857345  0.62453876  1
  V  V27  1  0.87748070  0.87537982  -0.01342086  1
  V  V28  1  0.49706882  0.49576827  0.49984141  1
  V  V29  1  0.87445230  0.50373048  0.36038416  1
  V  V30  1  0.25124144  0.62621217  0.87474694  1
  V  V31  1  -0.00725115  0.74450974  0.25013661  1
  V  V32  1  0.75830866  0.24046311  0.00957009  1
  V  V33  1  0.50042058  0.12719731  0.62313109  1
  V  V34  1  0.62521526  0.37514549  0.74865762  1
  V  V35  1  0.24956790  0.75183960  -0.00085711  1
  V  V36  1  0.12236170  0.87859984  0.24623807  1
  V  V37  1  0.37742158  0.75131525  0.63046044  1
  V  V38  1  0.75359703  0.62083285  0.36098886  1
  V  V39  1  -0.00602797  0.62081489  0.12847278  1
  V  V40  1  0.87086204  0.61986756  0.76283517  1
  V  V41  1  -0.00210894  0.62401892  0.62639368  1
  V  V42  1  0.87114469  0.75024277  0.61891474  1
  V  V43  1  0.74943667  0.87279426  0.61889014  1
  V  V44  1  0.12390965  0.62511511  0.50184622  1
  V  V45  1  0.12286212  0.75016589  0.37663560  1
  V  V46  1  0.50013263  0.62913336  0.63046228  1
  V  V47  1  0.62499496  0.87197175  0.25013136  1
  V  V48  1  0.24455098  0.87937050  0.12505630  1
  V  V49  1  0.37318056  0.75196277  0.12919965  1
  V  V50  1  -0.00142996  0.49866119  -0.00430906  1
  V  V51  1  0.75156569  0.86969938  0.12203476  1
  V  V52  1  0.11534353  0.12399456  0.49915986  1
  V  V53  1  0.63313833  0.62756736  0.50024055  1
  V  V54  1  -0.00088221  0.49961453  0.49820510  1
  V  V55  1  0.37604262  0.25589829  0.62005796  1
  V  V56  1  0.00766747  0.36589240  0.87073934  1
  V  V57  1  0.00043298  0.37651177  0.37132601  1
  V  V58  1  -0.00254719  0.25138030  0.23285862  1
  V  V59  1  0.24886007  0.75407833  0.50790861  1
  V  V60  1  0.63487062  0.24476308  0.87587823  1
  V  V61  1  0.14528545  0.49903555  0.12628259  1
  V  V62  1  0.49928772  0.00096210  -0.00041591  1
  V  V63  1  0.00271028  0.10007247  0.11764571  1
  V  V64  1  0.12158922  -0.00585597  0.61792855  1
  V  V65  1  0.36525897  0.37834079  0.00865245  1
  V  V66  1  0.38058599  0.13101557  0.24850985  1
  V  V67  1  0.50140899  0.25163670  0.74898626  1
  V  V68  1  0.36843355  0.12825357  0.75473994  1
  V  V69  1  0.87674086  0.00244291  0.38014739  1
  V  V70  1  0.37184647  0.49679771  0.37858272  1
  V  V71  1  0.37488945  0.00035542  0.37659150  1
  V  V72  1  -0.00094072  0.75764080  0.75422240  1
  V  V73  1  0.74996148  0.73662980  -0.00877558  1
  V  V74  1  0.62332283  -0.00509624  0.12260533  1
  V  V75  1  0.50086378  0.37877467  0.88656259  1
  V  V76  1  0.49931974  0.87603265  0.37776481  1
  V  V77  1  0.49772992  0.87610975  0.87393675  1
  V  V78  1  -0.00164668  0.88013601  0.38135392  1
  V  V79  1  0.49920704  0.37407794  0.36766525  1
  V  V80  1  0.74954264  0.12615553  0.37049484  1
  V  V81  1  0.24925711  0.37452989  0.62876922  1
  V  V82  1  0.25027835  0.12611624  0.37445405  1
  V  V83  1  0.62466077  0.12654413  0.49828652  1
  V  V84  1  0.62360217  0.74129782  0.87345774  1
  Zn  Zn85  1  0.88091857  0.00513777  0.87047611  1
  Zn  Zn86  1  0.56129207  0.57148217  0.05865839  1
  Zn  Zn87  1  0.37905629  0.63078655  0.75155066  1
  Zn  Zn88  1  0.12222418  0.87925893  0.74873063  1
  Zn  Zn89  1  0.01676353  0.25445888  0.73982417  1
  Zn  Zn90  1  0.87488410  0.87886574  0.50235179  1
  Zn  Zn91  1  0.62560293  0.39008105  0.24311232  1
  Zn  Zn92  1  0.12753466  0.62413447  0.00213722  1
  Zn  Zn93  1  0.87108211  0.74324746  0.12686061  1
  Zn  Zn94  1  0.87503546  0.37890483  0.49784482  1
  Zn  Zn95  1  0.01618310  -0.02169864  -0.02575418  1
  Zn  Zn96  1  0.36970081  0.26130636  0.13054437  1
  Zn  Zn97  1  0.87178138  0.12962007  0.24050304  1
  Zn  Zn98  1  0.74638353  0.51518823  0.77725186  1
  Zn  Zn99  1  -0.00699870  0.12548821  0.62248431  1
  Zn  Zn100  1  0.36660909  0.01028999  0.87925770  1
  Zn  Zn101  1  0.49842587  0.00189121  0.50088535  1
  Zn  Zn102  1  0.13997976  0.24345716  0.86748004  1
  Zn  Zn103  1  0.25321054  0.24438098  -0.00142474  1
  Zn  Zn104  1  0.63385588  0.11940373  -0.00595460  1
  Zn  Zn105  1  0.38381658  0.50584512  0.87509900  1
  Zn  Zn106  1  0.87751969  0.25249092  0.62376215  1
  Zn  Zn107  1  0.18450135  0.18765647  0.17737884  1
  Zn  Zn108  1  0.18539536  0.18223941  0.68648198  1
  Zn  Zn109  1  0.18382401  0.68820866  0.18749032  1
  Zn  Zn110  1  0.18543706  0.68609469  0.69034865  1
  Zn  Zn111  1  0.68609508  0.18537060  0.18198142  1
  Zn  Zn112  1  0.69085076  0.19021662  0.68674946  1
  Zn  Zn113  1  0.68591684  0.67127068  0.18217460  1
  Zn  Zn114  1  0.68848770  0.68871169  0.68926718  1
  Zn  Zn115  1  0.31670542  0.31253269  0.31491786  1
  Zn  Zn116  1  0.31155007  0.31102649  0.81515276  1
  Zn  Zn117  1  0.30764558  0.81427183  0.31863993  1
  Zn  Zn118  1  0.30919146  0.81730211  0.81204520  1
  Zn  Zn119  1  0.81535846  0.31553684  0.30879052  1
  Zn  Zn120  1  0.80222637  0.34675646  0.83280227  1
  Zn  Zn121  1  0.81259745  0.81265271  0.31539183  1
  Zn  Zn122  1  0.80741063  0.80834155  0.80499195  1
  Zn  Zn123  1  0.18464528  0.43598383  0.43891950  1
  Zn  Zn124  1  0.18722073  0.43767216  0.93943556  1
  Zn  Zn125  1  0.18659999  0.93828324  0.43564398  1
  Zn  Zn126  1  0.19037646  0.94403184  0.93365557  1
  Zn  Zn127  1  0.68592502  0.43985355  0.43466935  1
  Zn  Zn128  1  0.68938087  0.44541097  0.94753059  1
  Zn  Zn129  1  0.68798240  0.94062917  0.43739834  1
  Zn  Zn130  1  0.68782157  0.93194070  0.93779517  1
  Zn  Zn131  1  0.31315639  0.06645984  0.06670464  1
  Zn  Zn132  1  0.30712177  0.06613353  0.56578135  1
  Zn  Zn133  1  0.35524377  0.57996785  0.04448305  1
  Zn  Zn134  1  0.31254013  0.56472685  0.56264810  1
  Zn  Zn135  1  0.81906612  0.05833710  0.06269106  1
  Zn  Zn136  1  0.81036525  0.06553165  0.56694094  1
  Zn  Zn137  1  0.81577477  0.55798883  0.05957431  1
  Zn  Zn138  1  0.81547054  0.56296802  0.56034128  1
  Zn  Zn139  1  0.43841133  0.44416456  0.19185679  1
  Zn  Zn140  1  0.43731714  0.43895653  0.68878539  1
  Zn  Zn141  1  0.43586412  0.93903338  0.18855260  1
  Zn  Zn142  1  0.43704975  0.94019048  0.68671306  1
  Zn  Zn143  1  0.94305792  0.43508962  0.18168815  1
  Zn  Zn144  1  0.93427781  0.43651070  0.68964111  1
  Zn  Zn145  1  0.93289183  0.93256504  0.19051186  1
  Zn  Zn146  1  0.93622004  0.94331393  0.68849846  1
  Zn  Zn147  1  0.06016823  0.06575916  0.31006376  1
  Zn  Zn148  1  0.05580015  0.06449735  0.80784333  1
  Zn  Zn149  1  0.06552159  0.55920257  0.30882572  1
  Zn  Zn150  1  0.06141136  0.56628173  0.81428518  1
  Zn  Zn151  1  0.56321364  0.06138598  0.31144268  1
  Zn  Zn152  1  0.55969153  0.06398907  0.81061778  1
  Zn  Zn153  1  0.55723520  0.56634662  0.31311649  1
  Zn  Zn154  1  0.56485045  0.55774337  0.81131503  1
  Zn  Zn155  1  0.43856423  0.18921834  0.43599692  1
  Zn  Zn156  1  0.43951210  0.19419403  0.93875850  1
  Zn  Zn157  1  0.43848190  0.68722339  0.44252786  1
  Zn  Zn158  1  0.44301810  0.68982160  0.93888166  1
  Zn  Zn159  1  0.93612323  0.19065405  0.42814807  1
  Zn  Zn160  1  0.94088802  0.18590735  0.93854665  1
  Zn  Zn161  1  0.93591573  0.68714190  0.43720150  1
  Zn  Zn162  1  0.94018000  0.68743133  0.94151905  1
  Zn  Zn163  1  0.07642965  0.31286731  0.05691270  1
  Zn  Zn164  1  0.06210139  0.31191554  0.56050919  1
  Zn  Zn165  1  0.06114026  0.80786803  0.06375920  1
  Zn  Zn166  1  0.05881117  0.81169911  0.56574340  1
  Zn  Zn167  1  0.57182142  0.31514816  0.06031475  1
  Zn  Zn168  1  0.56486210  0.31285910  0.55706780  1
  Zn  Zn169  1  0.57949997  0.76839047  0.07991209  1
  Zn  Zn170  1  0.55973166  0.81364768  0.56229768  1
  O  O171  1  0.10942628  0.12451921  0.11240822  1
  O  O172  1  0.12186480  0.11772523  0.61210966  1
  O  O173  1  0.11888756  0.61442179  0.12547723  1
  O  O174  1  0.11900127  0.61655595  0.62071893  1
  O  O175  1  0.61642094  0.11325933  0.12185073  1
  O  O176  1  0.62052475  0.12313154  0.61904427  1
  O  O177  1  0.60426338  0.66161808  0.11277392  1
  O  O178  1  0.61986978  0.62397511  0.61891687  1
  O  O179  1  0.38129357  0.38820072  0.37217718  1
  O  O180  1  0.39097582  0.37262078  0.88038921  1
  O  O181  1  0.37831927  0.87962771  0.38540804  1
  O  O182  1  0.38373311  0.87593337  0.88004787  1
  O  O183  1  0.88125295  0.38630092  0.37514131  1
  O  O184  1  0.89659695  0.37031769  0.89569197  1
  O  O185  1  0.88047765  0.88254233  0.37832846  1
  O  O186  1  0.86859774  0.86746009  0.88583065  1
  O  O187  1  0.25517637  0.00540390  0.36692610  1
  O  O188  1  0.25122036  0.00122513  0.85420621  1
  O  O189  1  0.25759716  0.51138136  0.38747585  1
  O  O190  1  0.24615382  0.50875479  0.86570886  1
  O  O191  1  0.75481531  0.00546661  0.36771894  1
  O  O192  1  0.75066620  -0.00699693  0.86121796  1
  O  O193  1  0.75626227  0.51262273  0.37573855  1
  O  O194  1  0.76062890  0.45256929  0.86588746  1
  O  O195  1  0.24096793  0.50934436  0.12008063  1
  O  O196  1  0.24477302  0.49494617  0.62938478  1
  O  O197  1  0.25464918  0.99506121  0.14022816  1
  O  O198  1  0.23654750  1.00575262  0.63383067  1
  O  O199  1  0.75082161  0.48927567  0.12218228  1
  O  O200  1  0.74352898  0.49039299  0.61770433  1
  O  O201  1  0.74398044  0.98885091  0.12690201  1
  O  O202  1  0.74266746  0.99245703  0.63358503  1
  O  O203  1  0.00973925  0.36490311  0.25125800  1
  O  O204  1  -0.00621175  0.37602310  0.76743880  1
  O  O205  1  0.00637454  0.86694147  0.25775583  1
  O  O206  1  -0.00103875  0.86049764  0.74458361  1
  O  O207  1  0.49993468  0.37505696  0.26471161  1
  O  O208  1  0.50651565  0.36892234  0.75160274  1
  O  O209  1  0.50307220  0.86846261  0.25839499  1
  O  O210  1  0.50963861  0.88326589  0.75923235  1
  O  O211  1  0.49106491  0.11590571  0.24041960  1
  O  O212  1  0.49298181  0.13208830  0.74046631  1
  O  O213  1  0.48288359  0.64200753  0.26245732  1
  O  O214  1  0.49964256  0.61861267  0.73421911  1
  O  O215  1  1.00727460  0.13696924  0.23440061  1
  O  O216  1  0.98097959  0.13290293  0.74668705  1
  O  O217  1  1.00853725  0.63539459  0.24335017  1
  O  O218  1  0.99086323  0.63273589  0.74538363  1
  O  O219  1  0.37975408  0.26639207  0.00383899  1
  O  O220  1  0.36368950  0.24378864  0.50822675  1
  O  O221  1  0.36884387  0.75947454  0.01091668  1
  O  O222  1  0.36738367  0.75722817  0.50697568  1
  O  O223  1  0.86385612  0.25425249  -0.00330321  1
  O  O224  1  0.86072065  0.25335698  0.49265434  1
  O  O225  1  0.86347652  0.75695199  -0.00027895  1
  O  O226  1  0.88076038  0.75316137  0.51528941  1
  O  O227  1  0.13362118  0.24346761  0.49291046  1
  O  O228  1  0.12728274  0.23165890  0.99690893  1
  O  O229  1  0.13019502  0.74571585  0.49810766  1
  O  O230  1  0.13153892  0.74840296  0.99232993  1
  O  O231  1  0.63474123  0.24675589  0.48860588  1
  O  O232  1  0.63946449  0.24553520  0.99356419  1
  O  O233  1  0.61590371  0.74148126  0.48780007  1
  O  O234  1  0.63989902  0.75850722  0.98296095  1
  O  O235  1  0.50334288  0.23578832  0.11831858  1
  O  O236  1  0.49365779  0.24889637  0.62584424  1
  O  O237  1  0.48053599  0.76495169  0.14090641  1
  O  O238  1  0.49045864  0.73996593  0.61780712  1
  O  O239  1  1.00305528  0.25532313  0.13323690  1
  O  O240  1  0.99460516  0.24960364  0.62498541  1
  O  O241  1  0.99977341  0.73910407  0.13359459  1
  O  O242  1  0.99298192  0.74401898  0.63392953  1
  O  O243  1  0.00871007  0.25661167  0.36489817  1
  O  O244  1  0.00446596  0.26044976  0.87499936  1
  O  O245  1  0.00321236  0.75615495  0.36899065  1
  O  O246  1  0.01186870  0.74205141  0.86667035  1
  O  O247  1  0.51056600  0.26303823  0.38622535  1
  O  O248  1  0.50881950  0.26001065  0.86844675  1
  O  O249  1  0.50544048  0.75603560  0.37102620  1
  O  O250  1  0.51308207  0.76355577  0.88376944  1
  O  O251  1  0.24143718  0.13585153  0.49437099  1
  O  O252  1  0.23581827  0.11439949  0.99925149  1
  O  O253  1  0.24468082  0.63390934  0.49347518  1
  O  O254  1  0.25647325  0.63322438  0.98889863  1
  O  O255  1  0.74415814  0.13426841  0.49172390  1
  O  O256  1  0.75420106  0.13539876  1.00427231  1
  O  O257  1  0.73627421  0.62299659  0.49431444  1
  O  O258  1  0.75709838  0.63818392  0.99984411  1
  O  O259  1  0.26348286  0.37416053  -0.00006607  1
  O  O260  1  0.24442738  0.36332585  0.50974434  1
  O  O261  1  0.25446209  0.87309091  0.00461244  1
  O  O262  1  0.25835883  0.86512292  0.49316685  1
  O  O263  1  0.76077016  0.36548921  0.01405473  1
  O  O264  1  0.74702712  0.36886859  0.50497389  1
  O  O265  1  0.75837318  0.86604784  0.00546754  1
  O  O266  1  0.74862118  0.87936548  0.51490101  1
  O  O267  1  0.12469602  0.49193878  0.23660804  1
  O  O268  1  0.13436058  0.50792112  0.73836124  1
  O  O269  1  0.13461410  0.99024419  0.25876289  1
  O  O270  1  0.13543373  1.00370426  0.73875573  1
  O  O271  1  0.59519943  0.50697387  0.22143643  1
  O  O272  1  0.63210548  0.49458272  0.74159446  1
  O  O273  1  0.63022512  0.99046917  0.24413003  1
  O  O274  1  0.63046006  0.99438226  0.74495879  1
  O  O275  1  0.36583069  0.00651181  0.25707716  1
  O  O276  1  0.36427195  0.00828342  0.74486348  1
  O  O277  1  0.37777012  0.51546999  0.26413102  1
  O  O278  1  0.36319859  0.50470466  0.75174198  1
  O  O279  1  0.86636803  -0.00149776  0.25988151  1
  O  O280  1  0.86371848  0.00867485  0.74846068  1
  O  O281  1  0.88627085  0.50027411  0.26174673  1
  O  O282  1  0.87483050  0.51782364  0.74551386  1
  O  O283  1  0.12098543  0.37258064  0.36488180  1
  O  O284  1  0.11067154  0.37064628  0.88673818  1
  O  O285  1  0.11749354  0.87109728  0.36757272  1
  O  O286  1  0.13192832  0.86204394  0.87116529  1
  O  O287  1  0.61956348  0.37257995  0.36581708  1
  O  O288  1  0.61265953  0.36413285  0.86812828  1
  O  O289  1  0.62245282  0.86764536  0.37190732  1
  O  O290  1  0.61661185  0.87148448  0.86660540  1
  O  O291  1  0.38695366  0.12215471  0.13465205  1
  O  O292  1  0.38003724  0.13696753  0.62992530  1
  O  O293  1  0.35888874  0.64191851  0.14364093  1
  O  O294  1  0.38352052  0.63385884  0.62358200  1
  O  O295  1  0.89500750  0.11637649  0.12711102  1
  O  O296  1  0.87375697  0.13148110  0.63421001  1
  O  O297  1  0.88916271  0.62447278  0.12222281  1
  O  O298  1  0.87943883  0.63335516  0.62928728  1
  O  O299  1  0.25936787  0.23817244  0.11370598  1
  O  O300  1  0.25627671  0.25664243  0.61874334  1
  O  O301  1  0.25404606  0.75919616  0.12163940  1
  O  O302  1  0.25655082  0.74174827  0.61331803  1
  O  O303  1  0.75018697  0.25171300  0.11269744  1
  O  O304  1  0.74784122  0.25956043  0.61038724  1
  O  O305  1  0.74930595  0.75457633  0.11195822  1
  O  O306  1  0.75938743  0.76144640  0.63370524  1
  O  O307  1  0.24633664  0.24687949  0.38248213  1
  O  O308  1  0.25230483  0.25017842  0.88446187  1
  O  O309  1  0.24348435  0.74261959  0.38748759  1
  O  O310  1  0.24401598  0.74478456  0.87750938  1
  O  O311  1  0.74244087  0.24775923  0.37755305  1
  O  O312  1  0.74042515  0.26165463  0.88815036  1
  O  O313  1  0.73940112  0.73879226  0.37035607  1
  O  O314  1  0.73937618  0.75170041  0.88222621  1
  O  O315  1  0.00088883  0.11413107  0.01022704  1
  O  O316  1  0.01256697  0.13084063  0.49356100  1
  O  O317  1  0.00421298  0.61725733  0.00867474  1
  O  O318  1  0.00529281  0.62039753  0.50572054  1
  O  O319  1  0.49815140  0.11283829  0.00708523  1
  O  O320  1  0.50635377  0.12526323  0.50541388  1
  O  O321  1  0.46334849  0.61480567  0.01685860  1
  O  O322  1  0.50974450  0.61656296  0.50623936  1
  O  O323  1  0.50740014  0.39002897  0.49034391  1
  O  O324  1  0.49929380  0.37114819  0.98834916  1
  O  O325  1  0.48896057  0.87806243  0.49490812  1
  O  O326  1  0.49288920  0.88753409  0.99134451  1
  O  O327  1  1.00172495  0.38215752  0.48905226  1
  O  O328  1  0.99765206  0.38046617  1.00050208  1
  O  O329  1  1.00010656  0.87146942  0.48472812  1
  O  O330  1  0.98130451  0.86905724  1.00755936  1
  O  O331  1  0.49260392  0.49582170  0.38175582  1
  O  O332  1  0.50120785  0.48243830  0.86635226  1
  O  O333  1  0.49360761  0.99393872  0.37724522  1
  O  O334  1  0.49800763  0.99312704  0.88227611  1
  O  O335  1  0.99529722  0.49791855  0.37859135  1
  O  O336  1  1.01256437  0.49265941  0.88951286  1
  O  O337  1  0.98972891  0.99136891  0.36477647  1
  O  O338  1  0.99370287  0.99039202  0.86493777  1
  O  O339  1  0.00370350  0.00003848  0.12797288  1
  O  O340  1  0.01666835  0.00541489  0.63070501  1
  O  O341  1  0.00704157  0.50730475  0.11706776  1
  O  O342  1  0.00710923  0.50220676  0.62106225  1
  O  O343  1  0.50459181  0.00065119  0.11622651  1
  O  O344  1  0.50700547  0.00851020  0.62350731  1
  O  O345  1  0.53172689  0.50865612  0.16285430  1
  O  O346  1  0.50499849  0.50670191  0.61727820  1
  O  O347  1  0.23997044  0.36951334  0.25261652  1
  O  O348  1  0.25452133  0.38572434  0.73822872  1
  O  O349  1  0.24117292  0.88170638  0.24881654  1
  O  O350  1  0.24893316  0.89003752  0.74430333  1
  O  O351  1  0.75208754  0.37421602  0.23537828  1
  O  O352  1  0.74281409  0.36782344  0.73120273  1
  O  O353  1  0.74508595  0.87569126  0.24140643  1
  O  O354  1  0.73971526  0.88333094  0.74134324  1
  O  O355  1  0.25546997  0.11754974  0.25453504  1
  O  O356  1  0.26322179  0.11697930  0.74195352  1
  O  O357  1  0.25451064  0.63574006  0.26727228  1
  O  O358  1  0.25203502  0.61792873  0.75697579  1
  O  O359  1  0.75058586  0.11742849  0.25201753  1
  O  O360  1  0.75883200  0.11713216  0.74422266  1
  O  O361  1  0.74745865  0.62378503  0.26140317  1
  O  O362  1  0.76387682  0.62649999  0.74923031  1
  O  O363  1  0.37124001  0.12098206  0.36839984  1
  O  O364  1  0.38700429  0.12624673  0.85901978  1
  O  O365  1  0.36644457  0.62126809  0.37313751  1
  O  O366  1  0.36486677  0.62796905  0.87011917  1
  O  O367  1  0.86897879  0.11821285  0.36640149  1
  O  O368  1  0.87382696  0.12662236  0.86205326  1
  O  O369  1  0.85960866  0.62198604  0.37939899  1
  O  O370  1  0.87959242  0.62925183  0.86167126  1
  O  O371  1  0.12693429  0.38945434  0.12962504  1
  O  O372  1  0.13479147  0.38657582  0.62008834  1
  O  O373  1  0.12811361  0.86868095  0.13888328  1
  O  O374  1  0.12193651  0.88970913  0.62321796  1
  O  O375  1  0.64351990  0.36873835  0.12822791  1
  O  O376  1  0.62978201  0.38072003  0.62742808  1
  O  O377  1  0.63409326  0.87145930  0.12913608  1
  O  O378  1  0.62794967  0.87808426  0.63224461  1
  O  O379  1  0.11787474  0.25679556  0.25079154  1
  O  O380  1  0.12765178  0.24568536  0.75470604  1
  O  O381  1  0.11751665  0.75950373  0.25757048  1
  O  O382  1  0.11691159  0.75209030  0.75532675  1
  O  O383  1  0.62743982  0.24891397  0.26087226  1
  O  O384  1  0.62149475  0.25468184  0.75512963  1
  O  O385  1  0.61366455  0.75335948  0.26179557  1
  O  O386  1  0.63215499  0.76255270  0.76260765  1
  O  O387  1  0.37308204  0.23517360  0.25069901  1
  O  O388  1  0.37970425  0.24575399  0.73895355  1
  O  O389  1  0.37621527  0.74866060  0.24981463  1
  O  O390  1  0.36682805  0.75290447  0.73412982  1
  O  O391  1  0.89462674  0.24872337  0.25395756  1
  O  O392  1  0.86370119  0.24320201  0.75229207  1
  O  O393  1  0.88850976  0.75611007  0.24819868  1
  O  O394  1  0.88095837  0.74137245  0.74217798  1
  O  O395  1  0.38575393  0.50921943  0.49063569  1
  O  O396  1  0.37286184  0.48175356  0.98914634  1
  O  O397  1  0.37098307  0.99341866  0.49667283  1
  O  O398  1  0.38100330  0.99635660  0.99884787  1
  O  O399  1  0.88380591  0.50128658  0.48903014  1
  O  O400  1  0.88965833  0.48930561  1.00428908  1
  O  O401  1  0.86758129  1.00222398  0.48463195  1
  O  O402  1  0.87068163  0.98193320  0.99259884  1
  O  O403  1  0.12328197  0.00712640  -0.00017177  1
  O  O404  1  0.13287156  0.00891146  0.50924356  1
  O  O405  1  0.12034446  0.50132208  0.01375533  1
  O  O406  1  0.11997091  0.50604051  0.50926304  1
  O  O407  1  0.61703255  -0.00124533  0.00311094  1
  O  O408  1  0.62400870  0.00881453  0.50585439  1
  O  O409  1  0.61177373  0.48964426  0.00537820  1
  O  O410  1  0.61675536  0.50968262  0.50352379  1
  O  O411  1  0.38738919  0.38039736  0.11282895  1
  O  O412  1  0.36696742  0.36446339  0.62645475  1
  O  O413  1  0.36435641  0.87072008  0.12305285  1
  O  O414  1  0.38247101  0.86752057  0.61325954  1
  O  O415  1  0.86692025  0.37603611  0.11728979  1
  O  O416  1  0.86417846  0.37455297  0.61934416  1
  O  O417  1  0.86201775  0.87115461  0.11840348  1
  O  O418  1  0.86710169  0.86991319  0.62500811  1
  O  O419  1  0.13096170  0.13001154  0.37907477  1
  O  O420  1  0.11218085  0.12344783  0.89123856  1
  O  O421  1  0.13080756  0.62833864  0.38115423  1
  O  O422  1  0.13724285  0.63504895  0.87643229  1
  O  O423  1  0.62889330  0.13281456  0.37735288  1
  O  O424  1  0.61812006  0.13894885  0.87581852  1
  O  O425  1  0.63345036  0.62894282  0.37930872  1
  O  O426  1  0.61628153  0.64235456  0.86814587  1
