# generated using pymatgen
data_V85Zn86O256
_symmetry_space_group_name_H-M   'P 1'
_cell_length_a   16.96866466
_cell_length_b   16.94832387
_cell_length_c   16.97240790
_cell_angle_alpha   90.12841623
_cell_angle_beta   89.97144461
_cell_angle_gamma   90.08292260
_symmetry_Int_Tables_number   1
_chemical_formula_structural   V85Zn86O256
_chemical_formula_sum   'V85 Zn86 O256'
_cell_volume   4881.08401809
_cell_formula_units_Z   1
loop_
 _symmetry_equiv_pos_site_id
 _symmetry_equiv_pos_as_xyz
  1  'x, y, z'
loop_
 _atom_site_type_symbol
 _atom_site_label
 _atom_site_symmetry_multiplicity
 _atom_site_fract_x
 _atom_site_fract_y
 _atom_site_fract_z
 _atom_site_occupancy
  V  V0  1  0.37696635  0.74832853  0.12351623  1
  V  V1  1  0.12350073  0.75241691  0.36620842  1
  V  V2  1  0.62653703  0.25504679  0.37394085  1
  V  V3  1  0.75326396  0.51920262  0.75457176  1
  V  V4  1  0.87583512  0.86968301  0.50222865  1
  V  V5  1  0.75269512  0.87087954  0.62732232  1
  V  V6  1  0.24864318  -0.00051608  0.75011569  1
  V  V7  1  0.50133353  0.74861170  0.75174009  1
  V  V8  1  0.36775659  0.62354483  0.75496573  1
  V  V9  1  0.00434771  0.64051434  0.12975438  1
  V  V10  1  0.37329751  0.74914947  0.62447989  1
  V  V11  1  0.12662288  0.62504600  -0.01408536  1
  V  V12  1  0.12425357  -0.00305880  0.62585771  1
  V  V13  1  0.49875515  0.12627831  0.62901376  1
  V  V14  1  0.62979529  0.74201677  0.87658866  1
  V  V15  1  0.62061209  0.62570663  0.00809151  1
  V  V16  1  0.86312907  -0.00040921  0.87069691  1
  V  V17  1  0.50248643  0.87527262  0.87549620  1
  V  V18  1  0.12249743  0.12736524  0.00229305  1
  V  V19  1  0.75077489  0.11598076  0.36981666  1
  V  V20  1  0.37656029  0.00180730  0.87540503  1
  V  V21  1  0.62622454  0.12455561  0.50167063  1
  V  V22  1  0.75309158  0.61664365  0.36679610  1
  V  V23  1  0.63096166  -0.00161138  0.63098485  1
  V  V24  1  0.62408211  0.74757960  0.37561533  1
  V  V25  1  0.62965455  0.87807586  0.24971240  1
  V  V26  1  0.49964647  0.74741766  0.24584048  1
  V  V27  1  -0.00979554  0.74528991  0.74725009  1
  V  V28  1  0.37736920  0.25123543  0.12519971  1
  V  V29  1  0.87878355  0.37898976  0.49534422  1
  V  V30  1  0.86653382  0.25789028  0.11518990  1
  V  V31  1  0.87312606  0.51338600  0.87408429  1
  V  V32  1  0.24712720  0.61422415  0.37038820  1
  V  V33  1  0.25022078  0.87694450  0.12487798  1
  V  V34  1  0.37513081  0.87529928  -0.00064976  1
  V  V35  1  0.86380508  0.12082505  0.75358881  1
  V  V36  1  0.12724947  0.48842453  0.14182280  1
  V  V37  1  0.50121915  0.87471112  0.37485644  1
  V  V38  1  0.87353969  0.63224060  0.23870616  1
  V  V39  1  0.37814679  0.12638963  0.25155530  1
  V  V40  1  0.63064194  0.00083958  0.12774330  1
  V  V41  1  0.24953569  0.00241628  0.24903025  1
  V  V42  1  0.75364794  0.87388319  0.12828726  1
  V  V43  1  0.63807303  0.12780696  -0.00512971  1
  V  V44  1  0.00408482  0.25538127  0.74912817  1
  V  V45  1  0.12658196  0.62812761  0.50354773  1
  V  V46  1  0.00077098  -0.00009197  -0.00363488  1
  V  V47  1  -0.00546895  0.37638361  0.87755194  1
  V  V48  1  0.50000342  0.37663183  0.87905898  1
  V  V49  1  0.75145971  0.24820972  0.50511129  1
  V  V50  1  0.87143074  -0.00302629  0.36760777  1
  V  V51  1  0.37577280  0.00095890  0.37523325  1
  V  V52  1  0.64098893  0.25042912  0.88156291  1
  V  V53  1  0.37189369  0.37715465  0.01120530  1
  V  V54  1  0.62204467  0.50361194  0.62444244  1
  V  V55  1  0.24857809  0.12723552  0.37915820  1
  V  V56  1  0.63008746  0.87523789  0.75164044  1
  V  V57  1  0.62792280  0.37629699  0.75430768  1
  V  V58  1  0.36678412  0.62123706  0.24833466  1
  V  V59  1  0.25068119  0.12636449  0.87543259  1
  V  V60  1  0.37514280  0.87167265  0.50222833  1
  V  V61  1  0.37632298  0.25844671  0.62882453  1
  V  V62  1  0.75223665  0.74535587  0.00065008  1
  V  V63  1  0.24737149  0.74657866  -0.01336962  1
  V  V64  1  -0.00535906  0.25234054  0.26008073  1
  V  V65  1  0.00161687  0.12458117  0.62690503  1
  V  V66  1  0.12508002  0.25993503  0.87328634  1
  V  V67  1  0.00635718  0.87086523  0.87038063  1
  V  V68  1  0.64345331  0.37541492  0.24418772  1
  V  V69  1  0.25101012  0.25367654  0.00174578  1
  V  V70  1  0.50221961  0.62196093  0.61890354  1
  V  V71  1  0.74871186  0.74399034  0.49863177  1
  V  V72  1  0.49711006  0.50366148  0.02068816  1
  V  V73  1  0.36853913  0.50485721  0.87928486  1
  V  V74  1  0.12352439  0.49952255  0.63180390  1
  V  V75  1  0.00015046  0.87148322  0.36805542  1
  V  V76  1  0.24673548  0.37720311  0.63326126  1
  V  V77  1  -0.01844365  0.62872563  0.62204527  1
  V  V78  1  0.12589427  0.00266431  0.12335841  1
  V  V79  1  0.87619741  0.87039252  0.00161423  1
  V  V80  1  0.50610843  0.25418148  0.24914739  1
  V  V81  1  0.50020422  0.00179058  0.50090846  1
  V  V82  1  0.50214429  0.00131987  -0.00011943  1
  V  V83  1  0.64849910  0.49603487  0.12597863  1
  V  V84  1  0.24888616  0.25012035  0.50611696  1
  Zn  Zn85  1  0.50069834  0.24935624  0.75502420  1
  Zn  Zn86  1  0.12183497  0.87424765  0.24566923  1
  Zn  Zn87  1  0.25173461  0.74925766  0.49804960  1
  Zn  Zn88  1  0.84895201  0.37144008  -0.00221121  1
  Zn  Zn89  1  0.87725313  0.25224605  0.62698671  1
  Zn  Zn90  1  0.00257314  0.49709712  0.49278335  1
  Zn  Zn91  1  -0.00462236  0.12554569  0.12873988  1
  Zn  Zn92  1  0.12902194  0.86229172  0.75331878  1
  Zn  Zn93  1  0.00013307  -0.00118981  0.49910278  1
  Zn  Zn94  1  0.86846221  0.11869686  0.23952480  1
  Zn  Zn95  1  0.24798642  0.87367512  0.62498285  1
  Zn  Zn96  1  0.37675756  0.12666709  0.75351751  1
  Zn  Zn97  1  0.87937671  0.49189027  0.35754733  1
  Zn  Zn98  1  -0.00277915  0.49910261  0.00729329  1
  Zn  Zn99  1  0.44034738  0.42303941  0.43174099  1
  Zn  Zn100  1  0.75104613  0.37740285  0.62772560  1
  Zn  Zn101  1  0.58871272  0.57530817  0.45746964  1
  Zn  Zn102  1  0.15190332  0.28431982  0.34445378  1
  Zn  Zn103  1  0.50478308  0.12466115  0.12321066  1
  Zn  Zn104  1  0.05569308  0.41679417  0.32567070  1
  Zn  Zn105  1  0.12176673  0.12425047  0.49526281  1
  Zn  Zn106  1  0.24147899  0.49935932  0.76086565  1
  Zn  Zn107  1  0.19811031  0.21648159  0.20011825  1
  Zn  Zn108  1  0.18665484  0.18631465  0.68888480  1
  Zn  Zn109  1  0.18828120  0.68818696  0.18100251  1
  Zn  Zn110  1  0.18221256  0.68710135  0.69255995  1
  Zn  Zn111  1  0.69205665  0.18520812  0.18383998  1
  Zn  Zn112  1  0.68319965  0.18983911  0.69165437  1
  Zn  Zn113  1  0.68949547  0.68814067  0.18541014  1
  Zn  Zn114  1  0.68767251  0.69032013  0.68524839  1
  Zn  Zn115  1  0.31008536  0.33140553  0.30842810  1
  Zn  Zn116  1  0.31423183  0.31593517  0.81372592  1
  Zn  Zn117  1  0.30931498  0.81032380  0.31353640  1
  Zn  Zn118  1  0.31530357  0.81512529  0.80966091  1
  Zn  Zn119  1  0.81809054  0.30425111  0.31181229  1
  Zn  Zn120  1  0.81689186  0.31517904  0.80996704  1
  Zn  Zn121  1  0.81548508  0.80825454  0.31147963  1
  Zn  Zn122  1  0.81480493  0.80948817  0.81405545  1
  Zn  Zn123  1  0.19572156  0.43723157  0.45002000  1
  Zn  Zn124  1  0.18465744  0.43921332  0.94780018  1
  Zn  Zn125  1  0.18745831  0.93874075  0.43851950  1
  Zn  Zn126  1  0.18928205  0.93706312  0.93761110  1
  Zn  Zn127  1  0.69358645  0.43037181  0.43579217  1
  Zn  Zn128  1  0.68879997  0.44345192  0.93637812  1
  Zn  Zn129  1  0.68774506  0.93517389  0.44141781  1
  Zn  Zn130  1  0.68701752  0.93486270  0.94147422  1
  Zn  Zn131  1  0.31276752  0.06713480  0.06269647  1
  Zn  Zn132  1  0.31483731  0.06449945  0.56373537  1
  Zn  Zn133  1  0.30298117  0.56117203  0.06744557  1
  Zn  Zn134  1  0.31150844  0.55623669  0.56187828  1
  Zn  Zn135  1  0.81500313  0.06093633  0.05904678  1
  Zn  Zn136  1  0.81576051  0.05871768  0.56108221  1
  Zn  Zn137  1  0.81835754  0.56727066  0.05700018  1
  Zn  Zn138  1  0.80136705  0.55824302  0.55816127  1
  Zn  Zn139  1  0.42713847  0.42311344  0.22272026  1
  Zn  Zn140  1  0.43723916  0.44008368  0.68993728  1
  Zn  Zn141  1  0.44029957  0.93718095  0.18690482  1
  Zn  Zn142  1  0.44016187  0.93787813  0.68962004  1
  Zn  Zn143  1  0.93562352  0.44216497  0.18277383  1
  Zn  Zn144  1  0.93478364  0.43932016  0.68393555  1
  Zn  Zn145  1  0.93995364  0.93715009  0.18526654  1
  Zn  Zn146  1  0.93634569  0.93643766  0.68879371  1
  Zn  Zn147  1  0.05880744  0.06564300  0.30915766  1
  Zn  Zn148  1  0.05975053  0.06311583  0.81307901  1
  Zn  Zn149  1  0.05666329  0.57601961  0.31093716  1
  Zn  Zn150  1  0.05380287  0.56585561  0.80723839  1
  Zn  Zn151  1  0.56340599  0.06530718  0.31195113  1
  Zn  Zn152  1  0.56883737  0.06371634  0.81432895  1
  Zn  Zn153  1  0.55777174  0.55923628  0.29364070  1
  Zn  Zn154  1  0.55692826  0.56249936  0.81458241  1
  Zn  Zn155  1  0.45327685  0.22977622  0.45476283  1
  Zn  Zn156  1  0.44414702  0.18751685  0.94000494  1
  Zn  Zn157  1  0.42687170  0.58411847  0.43370366  1
  Zn  Zn158  1  0.44016159  0.68668585  0.93995857  1
  Zn  Zn159  1  0.93377295  0.18395819  0.43999837  1
  Zn  Zn160  1  0.93385189  0.18635568  0.93533315  1
  Zn  Zn161  1  0.93598666  0.68636215  0.43286005  1
  Zn  Zn162  1  0.94489128  0.69060629  0.93870915  1
  Zn  Zn163  1  0.05048869  0.31149161  0.06751464  1
  Zn  Zn164  1  0.06714154  0.31495707  0.55423162  1
  Zn  Zn165  1  0.06748338  0.81357775  0.05673341  1
  Zn  Zn166  1  0.05958819  0.81000804  0.56306602  1
  Zn  Zn167  1  0.56969011  0.31492968  0.06265436  1
  Zn  Zn168  1  0.56185758  0.32132846  0.56457866  1
  Zn  Zn169  1  0.56363057  0.81468733  0.06328784  1
  Zn  Zn170  1  0.56221612  0.80898029  0.56154363  1
  O  O171  1  0.12692120  0.12274598  0.10889490  1
  O  O172  1  0.11598083  0.11425840  0.62901632  1
  O  O173  1  0.11330021  0.61978633  0.12528746  1
  O  O174  1  0.12173755  0.62032966  0.61607747  1
  O  O175  1  0.62767859  0.11540541  0.11658748  1
  O  O176  1  0.61959094  0.11739916  0.62330243  1
  O  O177  1  0.62927739  0.61128280  0.11850464  1
  O  O178  1  0.61508736  0.61614169  0.63337270  1
  O  O179  1  0.39431713  0.39286658  0.33126564  1
  O  O180  1  0.38298556  0.38322325  0.88645853  1
  O  O181  1  0.38064885  0.87899179  0.38322844  1
  O  O182  1  0.38299959  0.88135552  0.88018334  1
  O  O183  1  0.86449430  0.37611502  0.39023841  1
  O  O184  1  0.88109019  0.38158835  0.87784738  1
  O  O185  1  0.88009288  0.87799609  0.38081873  1
  O  O186  1  0.88380060  0.88065678  0.88128494  1
  O  O187  1  0.25701564  0.00565405  0.37003812  1
  O  O188  1  0.25555309  0.00493860  0.86876823  1
  O  O189  1  0.23876409  0.51509493  0.37506196  1
  O  O190  1  0.26449087  0.49347082  0.87884023  1
  O  O191  1  0.75665134  0.00530604  0.38277597  1
  O  O192  1  0.76390442  -0.01167151  0.87544703  1
  O  O193  1  0.74870688  0.51432106  0.37894650  1
  O  O194  1  0.75934187  0.50336614  0.86404696  1
  O  O195  1  0.22699532  0.50628241  0.12973972  1
  O  O196  1  0.24154646  0.49311686  0.62832040  1
  O  O197  1  0.24637414  0.99700364  0.12818859  1
  O  O198  1  0.24340984  1.00129011  0.63456598  1
  O  O199  1  0.74618392  0.50195151  0.12111003  1
  O  O200  1  0.74168393  0.50129029  0.64153886  1
  O  O201  1  0.74004776  0.98720093  0.11699596  1
  O  O202  1  0.73814767  0.98799937  0.61653059  1
  O  O203  1  -0.00791025  0.35949863  0.24938428  1
  O  O204  1  -0.00844011  0.36249477  0.75766941  1
  O  O205  1  0.00139204  0.87743465  0.26325153  1
  O  O206  1  -0.00014992  0.86554801  0.75408309  1
  O  O207  1  0.52252438  0.35839197  0.24116833  1
  O  O208  1  0.51120875  0.38059991  0.76252390  1
  O  O209  1  0.50672243  0.86802955  0.25523505  1
  O  O210  1  0.50815491  0.86858725  0.75590801  1
  O  O211  1  0.49642116  0.13263004  0.24499639  1
  O  O212  1  0.50219724  0.12504692  0.73968376  1
  O  O213  1  0.48466522  0.64048526  0.25209635  1
  O  O214  1  0.49039104  0.63001780  0.74361408  1
  O  O215  1  0.98608467  0.12818516  0.24840205  1
  O  O216  1  0.99439944  0.13414934  0.74363867  1
  O  O217  1  0.99115244  0.63302865  0.23663752  1
  O  O218  1  0.99608170  0.63455414  0.73471210  1
  O  O219  1  0.37489326  0.25886527  0.00619001  1
  O  O220  1  0.36070545  0.23635928  0.52147138  1
  O  O221  1  0.37070784  0.75409100  0.00602306  1
  O  O222  1  0.37638713  0.76090867  0.51316258  1
  O  O223  1  0.87990667  0.25067583  0.00987862  1
  O  O224  1  0.86581969  0.25678185  0.50270302  1
  O  O225  1  0.86605041  0.76048423  -0.01029565  1
  O  O226  1  0.86271485  0.76064152  0.49016744  1
  O  O227  1  0.14237028  0.23950023  0.51353241  1
  O  O228  1  0.12874727  0.24525534  0.99263563  1
  O  O229  1  0.12772057  0.74124217  0.49593122  1
  O  O230  1  0.13427765  0.73694872  1.00222158  1
  O  O231  1  0.63362566  0.24495249  0.49286270  1
  O  O232  1  0.61942203  0.23978325  0.99261943  1
  O  O233  1  0.63256368  0.75412908  0.48562544  1
  O  O234  1  0.62914079  0.74411490  0.99600477  1
  O  O235  1  0.49544759  0.24710765  0.12963902  1
  O  O236  1  0.49437919  0.24177548  0.62925639  1
  O  O237  1  0.48997363  0.75885221  0.13339482  1
  O  O238  1  0.49429127  0.74361601  0.63223353  1
  O  O239  1  0.98820333  0.24393290  0.13377586  1
  O  O240  1  1.00375585  0.24197293  0.63340730  1
  O  O241  1  1.00528989  0.74015122  0.11937476  1
  O  O242  1  0.99540624  0.73779159  0.62979607  1
  O  O243  1  -0.01478282  0.24595241  0.36136183  1
  O  O244  1  0.00607125  0.25694677  0.86895652  1
  O  O245  1  0.01107142  0.75975268  0.38201713  1
  O  O246  1  -0.00380896  0.75804197  0.86076669  1
  O  O247  1  0.51842665  0.23500211  0.35992502  1
  O  O248  1  0.50342015  0.26639535  0.87701184  1
  O  O249  1  0.51334005  0.75741273  0.36260409  1
  O  O250  1  0.50907447  0.75547269  0.87217152  1
  O  O251  1  0.24953518  0.12708927  0.49395593  1
  O  O252  1  0.24282396  0.13209225  0.99326589  1
  O  O253  1  0.24126781  0.62706217  0.49147990  1
  O  O254  1  0.23605004  0.63237466  1.00259767  1
  O  O255  1  0.74619030  0.12991076  0.49575981  1
  O  O256  1  0.73673968  0.11699272  0.99601921  1
  O  O257  1  0.75369635  0.63587055  0.48710159  1
  O  O258  1  0.73913569  0.63646407  1.00429208  1
  O  O259  1  0.26505073  0.37037248  -0.00219881  1
  O  O260  1  0.25297697  0.36258944  0.51887604  1
  O  O261  1  0.25591990  0.86870779  0.00419423  1
  O  O262  1  0.26416202  0.87537632  0.50246437  1
  O  O263  1  0.73865484  0.37440353  0.00266969  1
  O  O264  1  0.75670684  0.36312441  0.50518178  1
  O  O265  1  0.75748549  0.86661488  0.00703106  1
  O  O266  1  0.75550621  0.86516367  0.50615902  1
  O  O267  1  0.11139983  0.49384035  0.24530920  1
  O  O268  1  0.12674856  0.51223682  0.73736253  1
  O  O269  1  0.13206085  1.00100655  0.24077065  1
  O  O270  1  0.13389136  0.99926205  0.74440155  1
  O  O271  1  0.62644360  0.49316733  0.23215370  1
  O  O272  1  0.63533244  0.49707885  0.75043275  1
  O  O273  1  0.61990922  0.99383496  0.23761892  1
  O  O274  1  0.62208988  0.99226220  0.73917614  1
  O  O275  1  0.37187763  0.00602919  0.25397955  1
  O  O276  1  0.36633032  0.00015753  0.75659416  1
  O  O277  1  0.37746564  0.52517149  0.23170575  1
  O  O278  1  0.37460932  0.50764479  0.76222323  1
  O  O279  1  0.87464252  -0.00498854  0.26399512  1
  O  O280  1  0.87909171  0.01252737  0.75543448  1
  O  O281  1  0.87892804  0.51987811  0.24627997  1
  O  O282  1  0.86010325  0.49665647  0.75787621  1
  O  O283  1  0.11584891  0.36888651  0.40733660  1
  O  O284  1  0.11834302  0.36572536  0.88039125  1
  O  O285  1  0.11731415  0.86959265  0.37617919  1
  O  O286  1  0.11034528  0.88180020  0.87399353  1
  O  O287  1  0.63298123  0.36095059  0.36556248  1
  O  O288  1  0.61736977  0.37248292  0.87177214  1
  O  O289  1  0.62285108  0.86884888  0.36903140  1
  O  O290  1  0.62097662  0.86596167  0.87213851  1
  O  O291  1  0.38026309  0.13264890  0.13139835  1
  O  O292  1  0.38620181  0.12880167  0.63118091  1
  O  O293  1  0.36384871  0.64189009  0.13248417  1
  O  O294  1  0.38238529  0.63143422  0.63293898  1
  O  O295  1  0.87545832  0.13149077  0.12189191  1
  O  O296  1  0.88445914  0.12233924  0.63551454  1
  O  O297  1  0.88795019  0.62561002  0.12890671  1
  O  O298  1  0.88390722  0.61946345  0.61539531  1
  O  O299  1  0.26894025  0.24212686  0.11380537  1
  O  O300  1  0.25674999  0.25550304  0.62828777  1
  O  O301  1  0.25812939  0.75859508  0.11560175  1
  O  O302  1  0.26322261  0.75149432  0.62681745  1
  O  O303  1  0.76709928  0.24787722  0.12835812  1
  O  O304  1  0.74784044  0.24844973  0.61410156  1
  O  O305  1  0.74366510  0.76124689  0.11145525  1
  O  O306  1  0.74025774  0.75853519  0.61054078  1
  O  O307  1  0.25764138  0.24072255  0.39323726  1
  O  O308  1  0.24312660  0.24850398  0.88021337  1
  O  O309  1  0.23928557  0.74445363  0.37882917  1
  O  O310  1  0.25670702  0.75536405  0.88749759  1
  O  O311  1  0.74419424  0.23814072  0.38488824  1
  O  O312  1  0.73940994  0.25572408  0.87233199  1
  O  O313  1  0.74058895  0.74396883  0.37859283  1
  O  O314  1  0.73817775  0.75723958  0.88602146  1
  O  O315  1  0.01037419  0.11813154  -0.00573532  1
  O  O316  1  0.00014139  0.12381902  0.51391402  1
  O  O317  1  0.01156234  0.62693848  0.00875926  1
  O  O318  1  0.00595241  0.62720759  0.51056774  1
  O  O319  1  0.50972933  0.11601655  0.00227383  1
  O  O320  1  0.50667179  0.12393616  0.51224685  1
  O  O321  1  0.51048583  0.61803957  0.00204612  1
  O  O322  1  0.50305924  0.63206633  0.51600294  1
  O  O323  1  0.48907537  0.33693654  0.48461788  1
  O  O324  1  0.49208444  0.38453078  0.99708716  1
  O  O325  1  0.49353469  0.87978779  0.49570429  1
  O  O326  1  0.49556274  0.88049228  0.99450165  1
  O  O327  1  0.98158229  0.37419219  0.50668726  1
  O  O328  1  0.99910020  0.37930654  0.98362117  1
  O  O329  1  0.98932288  0.87370188  0.49370754  1
  O  O330  1  0.99337073  0.87699906  0.99135834  1
  O  O331  1  0.51339410  0.51660936  0.38857582  1
  O  O332  1  0.49238163  0.49203580  0.88662166  1
  O  O333  1  0.49628057  0.99556082  0.38091720  1
  O  O334  1  0.49734692  0.99476543  0.87965915  1
  O  O335  1  0.99588154  0.50380088  0.37774895  1
  O  O336  1  0.98549892  0.49176932  0.86496261  1
  O  O337  1  0.99213771  0.99056823  0.37913714  1
  O  O338  1  0.99118856  0.99128730  0.87750490  1
  O  O339  1  0.00762476  0.00105022  0.11443087  1
  O  O340  1  0.00792397  0.00711556  0.62728325  1
  O  O341  1  0.00941364  0.51278851  0.12211891  1
  O  O342  1  0.00515087  0.51343455  0.62474571  1
  O  O343  1  0.51274376  -0.00270334  0.11743443  1
  O  O344  1  0.50854310  0.00641391  0.62117748  1
  O  O345  1  0.50028563  0.49543376  0.11891091  1
  O  O346  1  0.51052100  0.50882907  0.63320377  1
  O  O347  1  0.21839169  0.31763867  0.25496548  1
  O  O348  1  0.25093179  0.37854179  0.73939599  1
  O  O349  1  0.24982474  0.88439378  0.24325697  1
  O  O350  1  0.24785016  0.88616908  0.74886131  1
  O  O351  1  0.74243805  0.37110696  0.25348381  1
  O  O352  1  0.73717908  0.38044434  0.75052530  1
  O  O353  1  0.74566408  0.86495195  0.23679094  1
  O  O354  1  0.74519381  0.86338050  0.73634244  1
  O  O355  1  0.25918377  0.12351102  0.25809969  1
  O  O356  1  0.25105908  0.11502891  0.75735387  1
  O  O357  1  0.25918737  0.63402596  0.25515770  1
  O  O358  1  0.26464778  0.62419956  0.74692332  1
  O  O359  1  0.75090446  0.12622609  0.26633059  1
  O  O360  1  0.76550404  0.12886932  0.74428682  1
  O  O361  1  0.76115768  0.62937008  0.25353420  1
  O  O362  1  0.74925974  0.61800999  0.75038439  1
  O  O363  1  0.36665563  0.11842556  0.36855260  1
  O  O364  1  0.37018357  0.12034222  0.87652841  1
  O  O365  1  0.36120608  0.63305554  0.35707385  1
  O  O366  1  0.38429763  0.61573158  0.86795641  1
  O  O367  1  0.86477465  0.11096486  0.38085306  1
  O  O368  1  0.87910325  0.11623091  0.86128026  1
  O  O369  1  0.86783085  0.62373662  0.36281112  1
  O  O370  1  0.88392653  0.61187544  0.87616843  1
  O  O371  1  0.11662316  0.39152991  0.11544668  1
  O  O372  1  0.13099383  0.38932239  0.61952243  1
  O  O373  1  0.13186317  0.88371957  0.12331626  1
  O  O374  1  0.12569417  0.88533318  0.62632283  1
  O  O375  1  0.62945310  0.38897534  0.12787093  1
  O  O376  1  0.62324245  0.38434151  0.63822728  1
  O  O377  1  0.63350775  0.88178922  0.12823545  1
  O  O378  1  0.63064260  0.88016037  0.62929976  1
  O  O379  1  0.09670048  0.22939720  0.25344731  1
  O  O380  1  0.11607270  0.24332011  0.76303410  1
  O  O381  1  0.13018398  0.75337080  0.26204749  1
  O  O382  1  0.10525757  0.75053764  0.74359016  1
  O  O383  1  0.62601613  0.25329543  0.25379967  1
  O  O384  1  0.62165832  0.26001181  0.76106767  1
  O  O385  1  0.61848690  0.75545898  0.25282706  1
  O  O386  1  0.62167172  0.75321417  0.75982029  1
  O  O387  1  0.38849160  0.24498694  0.24085661  1
  O  O388  1  0.37933667  0.24705831  0.74410418  1
  O  O389  1  0.38114482  0.75012378  0.24097211  1
  O  O390  1  0.38110673  0.74461507  0.74399511  1
  O  O391  1  0.88065726  0.24419382  0.23768496  1
  O  O392  1  0.88411387  0.23748598  0.74964719  1
  O  O393  1  0.87524972  0.73387743  0.25045622  1
  O  O394  1  0.88898777  0.75341388  0.74833594  1
  O  O395  1  0.37909144  0.50103144  0.49379500  1
  O  O396  1  0.37863326  0.49720922  1.00087868  1
  O  O397  1  0.38155831  0.99173756  0.49770413  1
  O  O398  1  0.38026664  0.99549095  0.99548958  1
  O  O399  1  0.87031191  0.48470827  0.50088313  1
  O  O400  1  0.87554481  0.49803773  0.98357849  1
  O  O401  1  0.87563806  0.98600155  0.49051640  1
  O  O402  1  0.88082764  0.99043949  0.98963433  1
  O  O403  1  0.12212797  0.00874682  0.00217897  1
  O  O404  1  0.12323309  0.00244761  0.51265218  1
  O  O405  1  0.12244140  0.51560843  0.00685712  1
  O  O406  1  0.12285706  0.51386136  0.51117180  1
  O  O407  1  0.62072606  0.00494099  0.00577644  1
  O  O408  1  0.61863659  0.00339839  0.50984293  1
  O  O409  1  0.61781203  0.50712394  0.01140793  1
  O  O410  1  0.63954211  0.49445736  0.51970163  1
  O  O411  1  0.38357040  0.36552435  0.12002757  1
  O  O412  1  0.36914759  0.36541101  0.63309723  1
  O  O413  1  0.37048074  0.86884648  0.11854689  1
  O  O414  1  0.37835021  0.86758036  0.61955520  1
  O  O415  1  0.88149608  0.36281247  0.11716741  1
  O  O416  1  0.86877140  0.37116499  0.61636819  1
  O  O417  1  0.86823397  0.88290612  0.11085244  1
  O  O418  1  0.86397298  0.88255982  0.61463498  1
  O  O419  1  0.14254184  0.12022162  0.37486939  1
  O  O420  1  0.12973832  0.13361100  0.88389544  1
  O  O421  1  0.12778089  0.63503301  0.38208703  1
  O  O422  1  0.11714232  0.62007193  0.88756823  1
  O  O423  1  0.63383274  0.12789589  0.38203623  1
  O  O424  1  0.61965479  0.13835567  0.88201376  1
  O  O425  1  0.63367483  0.63403201  0.36565664  1
  O  O426  1  0.61879472  0.63526932  0.88629206  1
