# generated using pymatgen
data_V85Zn86O256
_symmetry_space_group_name_H-M   'P 1'
_cell_length_a   16.96678171
_cell_length_b   16.97758495
_cell_length_c   16.96376828
_cell_angle_alpha   89.97625980
_cell_angle_beta   90.11131368
_cell_angle_gamma   89.97157268
_symmetry_Int_Tables_number   1
_chemical_formula_structural   V85Zn86O256
_chemical_formula_sum   'V85 Zn86 O256'
_cell_volume   4886.48764990
_cell_formula_units_Z   1
loop_
 _symmetry_equiv_pos_site_id
 _symmetry_equiv_pos_as_xyz
  1  'x, y, z'
loop_
 _atom_site_type_symbol
 _atom_site_label
 _atom_site_symmetry_multiplicity
 _atom_site_fract_x
 _atom_site_fract_y
 _atom_site_fract_z
 _atom_site_occupancy
  V  V0  1  -0.00169580  0.24980683  0.24912269  1
  V  V1  1  0.62819436  0.37496858  0.25281892  1
  V  V2  1  0.62486301  0.74587762  0.37647717  1
  V  V3  1  0.00307442  0.87584916  0.87315623  1
  V  V4  1  0.11500394  0.61141557  0.51328155  1
  V  V5  1  0.00380029  0.63681178  0.13063647  1
  V  V6  1  0.24872224  0.12086288  0.86706353  1
  V  V7  1  0.50004920  0.25254567  0.25408230  1
  V  V8  1  0.11619308  0.74787397  0.36972896  1
  V  V9  1  0.49990850  0.49717358  0.49920682  1
  V  V10  1  0.37386653  0.24925194  0.12554468  1
  V  V11  1  0.38181575  0.38007990  -0.00294306  1
  V  V12  1  0.50208866  0.00111103  -0.00261137  1
  V  V13  1  0.14660402  0.10419065  0.48487382  1
  V  V14  1  0.50677728  0.75623670  0.74754771  1
  V  V15  1  0.62820601  -0.00167316  0.12283583  1
  V  V16  1  0.87370074  0.12372914  0.24771972  1
  V  V17  1  0.62191536  0.25284537  0.37611680  1
  V  V18  1  0.62904928  0.14018549  -0.00332012  1
  V  V19  1  0.37075293  0.74711869  0.62555477  1
  V  V20  1  0.75066161  0.12384402  0.37300733  1
  V  V21  1  0.62282631  0.62022204  0.51246421  1
  V  V22  1  0.37527444  0.24824609  0.62506032  1
  V  V23  1  0.25419992  0.88040664  0.12988642  1
  V  V24  1  0.49936740  0.12414272  0.62562148  1
  V  V25  1  0.74883616  -0.00309261  0.24761183  1
  V  V26  1  0.87791572  0.74156390  0.63576395  1
  V  V27  1  0.62514370  -0.00768879  0.62922610  1
  V  V28  1  0.12675616  0.24272626  0.37457827  1
  V  V29  1  0.12383504  0.37863512  0.74267730  1
  V  V30  1  0.24974644  0.50063097  0.74799788  1
  V  V31  1  0.48652702  0.74886744  0.24908431  1
  V  V32  1  0.00282919  0.73981532  0.74947749  1
  V  V33  1  0.25042946  0.61555660  0.36980292  1
  V  V34  1  0.88982959  0.51476436  0.84304847  1
  V  V35  1  0.24753845  0.37952557  0.62244412  1
  V  V36  1  0.87687519  0.12473324  0.75061629  1
  V  V37  1  0.12772763  0.62563220  0.00198112  1
  V  V38  1  0.38048910  0.37358868  0.49271862  1
  V  V39  1  0.73020719  0.51027555  0.74067717  1
  V  V40  1  0.00475979  0.12168429  0.62127255  1
  V  V41  1  0.12649099  -0.00689519  0.63772993  1
  V  V42  1  -0.00089798  0.37769246  0.87855301  1
  V  V43  1  0.24430523  0.87557211  0.64237518  1
  V  V44  1  0.36326912  0.11617637  0.25520061  1
  V  V45  1  0.12786247  0.50085782  0.12967987  1
  V  V46  1  0.87277612  0.87416395  0.50581734  1
  V  V47  1  0.61911552  0.50680290  0.12698785  1
  V  V48  1  0.85346405  0.75213997  0.12528710  1
  V  V49  1  0.87974734  0.62835266  0.25570980  1
  V  V50  1  0.12490146  0.24983064  0.87322723  1
  V  V51  1  0.62483832  0.12310503  0.49933939  1
  V  V52  1  0.11792233  0.87640103  0.24694574  1
  V  V53  1  0.37063534  0.87663835  0.49788376  1
  V  V54  1  0.12894079  0.75732560  0.87314188  1
  V  V55  1  0.87551087  0.00115418  0.87922070  1
  V  V56  1  0.74854792  0.13702666  0.87805418  1
  V  V57  1  0.86608448  0.26121462  0.11383200  1
  V  V58  1  0.49851452  -0.00077376  0.49708578  1
  V  V59  1  0.87491798  0.25036985  0.61782206  1
  V  V60  1  0.26143067  0.74984783  0.00564584  1
  V  V61  1  0.37109286  0.00000900  0.86726965  1
  V  V62  1  0.00064567  0.25107980  0.74601014  1
  V  V63  1  0.51156460  0.87736838  0.86834691  1
  V  V64  1  0.25038722  0.24618970  0.49659832  1
  V  V65  1  -0.00184661  0.12454856  0.12244613  1
  V  V66  1  0.49327813  0.87956769  0.37432983  1
  V  V67  1  0.50044884  0.24930432  0.75694481  1
  V  V68  1  -0.00860126  0.49972384  0.00354225  1
  V  V69  1  0.24939643  0.37751436  0.12566974  1
  V  V70  1  0.12673315  0.37818068  0.25122160  1
  V  V71  1  0.75508474  0.25397978  0.49820100  1
  V  V72  1  -0.00269475  -0.00308846  0.49913272  1
  V  V73  1  0.24400036  0.74923124  0.49915310  1
  V  V74  1  0.38004700  0.87319530  0.00463117  1
  V  V75  1  0.62568045  0.87371084  0.24857728  1
  V  V76  1  0.86270899  0.87027672  0.00414327  1
  V  V77  1  0.49061143  0.62624883  0.12667806  1
  V  V78  1  0.50089115  0.12615238  0.12438942  1
  V  V79  1  0.75545509  0.49868650  0.25522758  1
  V  V80  1  0.63013766  0.36075040  0.74405228  1
  V  V81  1  0.25746952  0.62429030  0.87498275  1
  V  V82  1  -0.00603763  0.37822686  0.38640724  1
  V  V83  1  0.74754234  -0.00441566  0.75140046  1
  V  V84  1  0.12541365  0.12376658  0.00046066  1
  Zn  Zn85  1  0.37821541  0.48853462  0.36887774  1
  Zn  Zn86  1  0.74827086  0.87354080  0.63106307  1
  Zn  Zn87  1  0.37702141  0.49802914  0.87463960  1
  Zn  Zn88  1  -0.00768779  0.86951609  0.36734989  1
  Zn  Zn89  1  0.74891245  0.37750822  0.61629198  1
  Zn  Zn90  1  0.13250085  0.00699537  0.13413948  1
  Zn  Zn91  1  0.75387269  0.38586625  0.09510652  1
  Zn  Zn92  1  0.25112639  0.25043322  -0.00201794  1
  Zn  Zn93  1  0.69118781  0.31832860  0.93366812  1
  Zn  Zn94  1  0.51015819  0.37779267  0.87761876  1
  Zn  Zn95  1  0.75331791  0.62411816  0.38123829  1
  Zn  Zn96  1  0.54337321  0.54530834  -0.04435231  1
  Zn  Zn97  1  0.68544206  0.68351542  -0.06730816  1
  Zn  Zn98  1  0.49824855  0.62047441  0.62777207  1
  Zn  Zn99  1  0.37698759  0.62186424  0.74828939  1
  Zn  Zn100  1  0.33297254  0.01295123  0.38587262  1
  Zn  Zn101  1  0.37187558  0.12297131  0.74872105  1
  Zn  Zn102  1  0.00053128  -0.00561602  0.00392339  1
  Zn  Zn103  1  0.88114615  0.50045776  0.39723559  1
  Zn  Zn104  1  0.74785875  0.74929786  0.50907306  1
  Zn  Zn105  1  0.87352343  -0.00464925  0.37394763  1
  Zn  Zn106  1  0.36673763  0.60881501  0.24993563  1
  Zn  Zn107  1  0.18707492  0.19194799  0.18701190  1
  Zn  Zn108  1  0.18505981  0.18484988  0.68085548  1
  Zn  Zn109  1  0.18867052  0.69323615  0.18884738  1
  Zn  Zn110  1  0.18414574  0.68853749  0.68941897  1
  Zn  Zn111  1  0.69012823  0.18872439  0.18371267  1
  Zn  Zn112  1  0.68892283  0.18185417  0.68547844  1
  Zn  Zn113  1  0.68432685  0.68277822  0.19408826  1
  Zn  Zn114  1  0.71233092  0.71973691  0.74055243  1
  Zn  Zn115  1  0.31017731  0.30851146  0.30946316  1
  Zn  Zn116  1  0.31102004  0.30836002  0.81184435  1
  Zn  Zn117  1  0.30583686  0.81441988  0.31659448  1
  Zn  Zn118  1  0.32253737  0.81018597  0.81736371  1
  Zn  Zn119  1  0.81438384  0.31133309  0.31027163  1
  Zn  Zn120  1  0.82027009  0.31809846  0.80786994  1
  Zn  Zn121  1  0.81021518  0.81003888  0.31515986  1
  Zn  Zn122  1  0.81704751  0.81152403  0.82550580  1
  Zn  Zn123  1  0.18194803  0.43553569  0.43904309  1
  Zn  Zn124  1  0.18629124  0.43868769  0.93901568  1
  Zn  Zn125  1  0.18014296  0.92942140  0.43942036  1
  Zn  Zn126  1  0.19039230  0.93960321  0.94228032  1
  Zn  Zn127  1  0.68748057  0.44007528  0.43546817  1
  Zn  Zn128  1  0.71399228  0.50787500  0.93958908  1
  Zn  Zn129  1  0.68643630  0.93436518  0.43786317  1
  Zn  Zn130  1  0.68965214  0.94350491  0.93601414  1
  Zn  Zn131  1  0.31402425  0.06207077  0.05952133  1
  Zn  Zn132  1  0.31228552  0.05624565  0.56885926  1
  Zn  Zn133  1  0.31515984  0.56177869  0.06407070  1
  Zn  Zn134  1  0.31044216  0.56049282  0.55556445  1
  Zn  Zn135  1  0.81228782  0.06384103  0.06024103  1
  Zn  Zn136  1  0.81138985  0.06475526  0.56373132  1
  Zn  Zn137  1  0.81056989  0.56998971  0.07104198  1
  Zn  Zn138  1  0.80503556  0.57025006  0.57495380  1
  Zn  Zn139  1  0.43582293  0.43594654  0.19272778  1
  Zn  Zn140  1  0.43906453  0.43458112  0.68281299  1
  Zn  Zn141  1  0.43872327  0.94064056  0.18866508  1
  Zn  Zn142  1  0.43383242  0.93589651  0.68324230  1
  Zn  Zn143  1  0.94078127  0.43902151  0.19032725  1
  Zn  Zn144  1  0.93742691  0.43991429  0.66574531  1
  Zn  Zn145  1  0.93585397  0.93527837  0.18359563  1
  Zn  Zn146  1  0.93828378  0.93542942  0.69102062  1
  Zn  Zn147  1  0.06132233  0.05600120  0.31062448  1
  Zn  Zn148  1  0.05990490  0.06228361  0.81475319  1
  Zn  Zn149  1  0.06186811  0.56185951  0.31848899  1
  Zn  Zn150  1  0.07127997  0.56381310  0.81414947  1
  Zn  Zn151  1  0.55991941  0.06523396  0.31216304  1
  Zn  Zn152  1  0.56372250  0.06528733  0.81340878  1
  Zn  Zn153  1  0.55759197  0.56215865  0.31492622  1
  Zn  Zn154  1  0.56167653  0.56073153  0.79878714  1
  Zn  Zn155  1  0.43574897  0.18494177  0.43673289  1
  Zn  Zn156  1  0.43549443  0.18850383  0.93846200  1
  Zn  Zn157  1  0.43690312  0.68700347  0.43712548  1
  Zn  Zn158  1  0.48574865  0.71451843  0.95766660  1
  Zn  Zn159  1  0.94126192  0.18332360  0.43454437  1
  Zn  Zn160  1  0.93690028  0.19088886  0.93722363  1
  Zn  Zn161  1  0.93767075  0.68797622  0.44546054  1
  Zn  Zn162  1  0.93637220  0.68803344  0.94316295  1
  Zn  Zn163  1  0.06005156  0.31078195  0.06137475  1
  Zn  Zn164  1  0.06712732  0.30469911  0.56004306  1
  Zn  Zn165  1  0.06639881  0.81453044  0.05827290  1
  Zn  Zn166  1  0.06263485  0.81133765  0.56358408  1
  Zn  Zn167  1  0.56133245  0.31823279  0.07105297  1
  Zn  Zn168  1  0.56216834  0.31175052  0.56441717  1
  Zn  Zn169  1  0.58099945  0.80813316  0.06303972  1
  Zn  Zn170  1  0.55932853  0.81112479  0.56149801  1
  O  O171  1  0.11670853  0.12821559  0.11887329  1
  O  O172  1  0.12457204  0.11239913  0.61138104  1
  O  O173  1  0.12263876  0.61868599  0.12476939  1
  O  O174  1  0.12888341  0.62877173  0.61207954  1
  O  O175  1  0.62175839  0.11984054  0.11654288  1
  O  O176  1  0.61899696  0.11495879  0.61787481  1
  O  O177  1  0.61361476  0.61286253  0.13523608  1
  O  O178  1  0.62092503  0.62790995  0.61021828  1
  O  O179  1  0.36742111  0.36787419  0.38933760  1
  O  O180  1  0.36851106  0.37164759  0.89153201  1
  O  O181  1  0.37201377  0.88699037  0.38042479  1
  O  O182  1  0.38123242  0.88468697  0.88454154  1
  O  O183  1  0.89069050  0.37276155  0.37181910  1
  O  O184  1  0.89525553  0.39188215  0.85836746  1
  O  O185  1  0.87488396  0.87311829  0.38759739  1
  O  O186  1  0.88430010  0.87956239  0.88656164  1
  O  O187  1  0.22454751  0.02969512  0.41944680  1
  O  O188  1  0.25898374  0.00893088  0.88213610  1
  O  O189  1  0.24606042  0.51402319  0.37975046  1
  O  O190  1  0.24917397  0.50727062  0.86751885  1
  O  O191  1  0.74771611  0.00487957  0.36389700  1
  O  O192  1  0.75628009  0.01215476  0.86873043  1
  O  O193  1  0.76218042  0.50118853  0.37059131  1
  O  O194  1  0.78173792  0.49498494  0.83535144  1
  O  O195  1  0.23716911  0.49165983  0.12034848  1
  O  O196  1  0.25486694  0.48710346  0.63116294  1
  O  O197  1  0.24782080  0.98593922  0.11578397  1
  O  O198  1  0.23904211  0.98691104  0.62043345  1
  O  O199  1  0.73710025  0.50140225  0.13940236  1
  O  O200  1  0.77334319  0.48761253  0.64682321  1
  O  O201  1  0.73853843  1.00661954  0.13492207  1
  O  O202  1  0.74213209  1.00266849  0.63423950  1
  O  O203  1  0.01051783  0.36881422  0.25556696  1
  O  O204  1  0.01066027  0.37300001  0.74685144  1
  O  O205  1  0.01297506  0.87516259  0.24698501  1
  O  O206  1  -0.00341522  0.86877225  0.76864216  1
  O  O207  1  0.51058388  0.35983180  0.24591223  1
  O  O208  1  0.50954372  0.36377830  0.74305936  1
  O  O209  1  0.50698440  0.86982520  0.25383410  1
  O  O210  1  0.49062048  0.86592288  0.75446181  1
  O  O211  1  0.49444349  0.13458983  0.24402123  1
  O  O212  1  0.49866638  0.13320287  0.74426023  1
  O  O213  1  0.49360820  0.63377867  0.24792458  1
  O  O214  1  0.49540963  0.63885537  0.74526218  1
  O  O215  1  0.99547443  0.12857076  0.24086920  1
  O  O216  1  0.99736185  0.13194107  0.74370485  1
  O  O217  1  0.99010367  0.61730647  0.24275583  1
  O  O218  1  1.01089897  0.64142877  0.75338430  1
  O  O219  1  0.37311278  0.25868736  0.00846287  1
  O  O220  1  0.37000540  0.25477980  0.50434151  1
  O  O221  1  0.37311192  0.76270122  -0.00806294  1
  O  O222  1  0.36493509  0.75475021  0.50585545  1
  O  O223  1  0.87914122  0.25150209  0.01466639  1
  O  O224  1  0.86648149  0.23822524  0.50520319  1
  O  O225  1  0.87647849  0.75367836  0.01677264  1
  O  O226  1  0.87507945  0.75677365  0.51709642  1
  O  O227  1  0.13417218  0.23596191  0.49177483  1
  O  O228  1  0.12343361  0.23963387  0.99282789  1
  O  O229  1  0.13095929  0.74579578  0.49264961  1
  O  O230  1  0.13782388  0.74495540  0.99250235  1
  O  O231  1  0.63116872  0.24356907  0.49249061  1
  O  O232  1  0.62457194  0.24486595  1.00339277  1
  O  O233  1  0.62270545  0.73995297  0.49399129  1
  O  O234  1  0.59733342  0.73836903  0.98230544  1
  O  O235  1  0.49528138  0.24487278  0.13498541  1
  O  O236  1  0.49345732  0.24212351  0.63038827  1
  O  O237  1  0.50744234  0.73347463  0.13629456  1
  O  O238  1  0.48522793  0.75425444  0.63118755  1
  O  O239  1  0.99185838  0.24273901  0.12911302  1
  O  O240  1  0.99562321  0.24107796  0.62562932  1
  O  O241  1  1.00614510  0.73737049  0.12313262  1
  O  O242  1  0.99419636  0.75910438  0.64220535  1
  O  O243  1  0.00771795  0.25734966  0.36913280  1
  O  O244  1  0.00343250  0.25954577  0.86735315  1
  O  O245  1  0.01206650  0.75204564  0.38072878  1
  O  O246  1  0.00829797  0.75463331  0.87049909  1
  O  O247  1  0.51205987  0.24201547  0.36698154  1
  O  O248  1  0.49246850  0.25324885  0.86079609  1
  O  O249  1  0.50492260  0.75752446  0.36871863  1
  O  O250  1  0.49105036  0.76228615  0.85443617  1
  O  O251  1  0.25505244  0.14292927  0.51296555  1
  O  O252  1  0.24046687  0.12751515  0.99260814  1
  O  O253  1  0.24032298  0.63360973  0.49156285  1
  O  O254  1  0.24963439  0.63150588  0.99549409  1
  O  O255  1  0.74406214  0.13114407  0.49247111  1
  O  O256  1  0.74094961  0.12254178  0.99057688  1
  O  O257  1  0.73661113  0.62726446  0.50131153  1
  O  O258  1  0.74963385  0.60561038  0.98810548  1
  O  O259  1  0.25430392  0.37272081  0.01068279  1
  O  O260  1  0.25295437  0.36557499  0.50620111  1
  O  O261  1  0.26013833  0.86742474  0.00583412  1
  O  O262  1  0.25146647  0.86112328  0.50361966  1
  O  O263  1  0.74169290  0.40334134  -0.01566574  1
  O  O264  1  0.74495720  0.35853455  0.49787057  1
  O  O265  1  0.76285035  0.87615615  -0.00643084  1
  O  O266  1  0.75895678  0.87160450  0.50550610  1
  O  O267  1  0.11872839  0.48937560  0.24117992  1
  O  O268  1  0.13571496  0.48917300  0.75225276  1
  O  O269  1  0.12763952  0.98294659  0.25142052  1
  O  O270  1  0.11817402  1.00364805  0.73671018  1
  O  O271  1  0.63297528  0.49238922  0.25350768  1
  O  O272  1  0.62947927  0.48217637  0.74161697  1
  O  O273  1  0.62847788  0.99469050  0.24266561  1
  O  O274  1  0.63436163  1.00860991  0.74006232  1
  O  O275  1  0.37595465  0.01351207  0.25290343  1
  O  O276  1  0.37871571  0.00147036  0.76301295  1
  O  O277  1  0.36948208  0.49447482  0.25799668  1
  O  O278  1  0.36087894  0.49855844  0.74976256  1
  O  O279  1  0.86374057  0.00189078  0.24742988  1
  O  O280  1  0.86981769  0.00733951  0.75725853  1
  O  O281  1  0.86723748  0.51123878  0.24451868  1
  O  O282  1  0.91143561  0.51706671  0.74597532  1
  O  O283  1  0.11774113  0.36624083  0.36791971  1
  O  O284  1  0.11795212  0.37146774  0.86411489  1
  O  O285  1  0.12434716  0.86581124  0.36197517  1
  O  O286  1  0.11829592  0.86563256  0.88833814  1
  O  O287  1  0.62953423  0.36229463  0.36675542  1
  O  O288  1  0.62332737  0.36736823  0.85240455  1
  O  O289  1  0.61662147  0.86643383  0.36848022  1
  O  O290  1  0.61031559  0.88826074  0.87377367  1
  O  O291  1  0.38072460  0.12855745  0.13234197  1
  O  O292  1  0.38090478  0.12912690  0.62834194  1
  O  O293  1  0.38536826  0.61913277  0.13436026  1
  O  O294  1  0.37062822  0.63754691  0.62124656  1
  O  O295  1  0.88067465  0.13438786  0.12730123  1
  O  O296  1  0.88340752  0.13040219  0.63003761  1
  O  O297  1  0.88291391  0.63876490  0.13319268  1
  O  O298  1  0.87803560  0.64362242  0.62589905  1
  O  O299  1  0.25443189  0.26140863  0.12242712  1
  O  O300  1  0.25390354  0.26013519  0.61839539  1
  O  O301  1  0.24856818  0.75754223  0.11088695  1
  O  O302  1  0.25229598  0.75609608  0.61848686  1
  O  O303  1  0.76212750  0.25708708  0.12549110  1
  O  O304  1  0.75904882  0.24166406  0.61315955  1
  O  O305  1  0.75472800  0.74484704  0.12402821  1
  O  O306  1  0.76707049  0.75597161  0.63945337  1
  O  O307  1  0.23747747  0.25520855  0.38410695  1
  O  O308  1  0.24241916  0.24028261  0.87713331  1
  O  O309  1  0.23947208  0.74367102  0.38416112  1
  O  O310  1  0.24687911  0.74544946  0.88332099  1
  O  O311  1  0.74311477  0.24375719  0.37912272  1
  O  O312  1  0.75874591  0.24117617  0.87284134  1
  O  O313  1  0.73629750  0.74769035  0.37985831  1
  O  O314  1  0.73765775  0.74046002  0.84847138  1
  O  O315  1  0.00752790  0.12586635  0.00699489  1
  O  O316  1  0.00622611  0.11139377  0.50192710  1
  O  O317  1  0.00823384  0.61892555  0.01119209  1
  O  O318  1  0.01671103  0.62682255  0.49727348  1
  O  O319  1  0.50950262  0.12225616  0.00295071  1
  O  O320  1  0.50506422  0.11975733  0.50503061  1
  O  O321  1  0.48615355  0.61856526  0.02186776  1
  O  O322  1  0.50957614  0.62124694  0.50098102  1
  O  O323  1  0.48959492  0.38030112  0.50615280  1
  O  O324  1  0.48600856  0.37053522  1.00016977  1
  O  O325  1  0.49035319  0.87861016  0.49399423  1
  O  O326  1  0.49485126  0.88064962  0.99137114  1
  O  O327  1  1.00773183  0.36515605  0.48469366  1
  O  O328  1  1.01003789  0.38443524  0.98700893  1
  O  O329  1  0.98949254  0.88163989  0.50150498  1
  O  O330  1  0.99132683  0.87362219  0.99226062  1
  O  O331  1  0.49634201  0.50410017  0.39194304  1
  O  O332  1  0.49114650  0.49257334  0.86747857  1
  O  O333  1  0.50642719  0.99304058  0.38296868  1
  O  O334  1  0.49202742  0.99702729  0.87820171  1
  O  O335  1  0.99874015  0.48322942  0.37416073  1
  O  O336  1  1.00003132  0.49700450  0.88268162  1
  O  O337  1  0.99628664  0.99375948  0.38578980  1
  O  O338  1  0.99401357  0.99291946  0.87879137  1
  O  O339  1  0.00092020  0.01447948  0.12510899  1
  O  O340  1  0.00410630  0.00282133  0.61988174  1
  O  O341  1  0.01096965  0.50674104  0.12075284  1
  O  O342  1  -0.04890198  0.49346151  0.56226967  1
  O  O343  1  0.51031946  0.00650277  0.11963818  1
  O  O344  1  0.50593420  0.00315100  0.61911285  1
  O  O345  1  0.51068235  0.51173119  0.14412214  1
  O  O346  1  0.49025135  0.50503783  0.60812370  1
  O  O347  1  0.23734031  0.36786889  0.23904868  1
  O  O348  1  0.24332642  0.37966946  0.74297708  1
  O  O349  1  0.24226002  0.86759400  0.23670754  1
  O  O350  1  0.25493922  0.86741715  0.74088818  1
  O  O351  1  0.74308074  0.38463488  0.25347870  1
  O  O352  1  0.73736720  0.36840014  0.74509810  1
  O  O353  1  0.73602137  0.88390740  0.25685399  1
  O  O354  1  0.75892270  0.89357218  0.75370890  1
  O  O355  1  0.26457150  0.12937240  0.24335182  1
  O  O356  1  0.24845911  0.12986600  0.76277558  1
  O  O357  1  0.24892792  0.63260207  0.26589734  1
  O  O358  1  0.24691085  0.61631076  0.75725184  1
  O  O359  1  0.75250883  0.11626377  0.25301087  1
  O  O360  1  0.75629239  0.11912396  0.75898382  1
  O  O361  1  0.75936795  0.61596607  0.25519355  1
  O  O362  1  0.72787377  0.60747691  0.73304986  1
  O  O363  1  0.37505420  0.12388890  0.36058298  1
  O  O364  1  0.36546020  0.11760037  0.87602052  1
  O  O365  1  0.35698630  0.62650306  0.37888146  1
  O  O366  1  0.36029894  0.62355229  0.87288647  1
  O  O367  1  0.86934944  0.12122665  0.36520157  1
  O  O368  1  0.86954029  0.12146952  0.87218888  1
  O  O369  1  0.87726561  0.62339724  0.36881443  1
  O  O370  1  0.89032520  0.60976713  0.87392813  1
  O  O371  1  0.12876961  0.38028038  0.13076636  1
  O  O372  1  0.13447347  0.36743555  0.63207834  1
  O  O373  1  0.13193976  0.87487826  0.13419899  1
  O  O374  1  0.13304094  0.88020492  0.62338324  1
  O  O375  1  0.62856229  0.38391904  0.14015667  1
  O  O376  1  0.63122295  0.36702753  0.63520619  1
  O  O377  1  0.61837166  0.88558024  0.13564221  1
  O  O378  1  0.62641413  0.88854984  0.61863034  1
  O  O379  1  0.11956552  0.25726197  0.25641349  1
  O  O380  1  0.12048750  0.25792981  0.75242266  1
  O  O381  1  0.12761864  0.76102060  0.25878852  1
  O  O382  1  0.11784421  0.75202806  0.76334280  1
  O  O383  1  0.62145774  0.25410149  0.25602925  1
  O  O384  1  0.61577473  0.25219413  0.74306070  1
  O  O385  1  0.61762492  0.75750449  0.25728205  1
  O  O386  1  0.60353098  0.75493875  0.73250662  1
  O  O387  1  0.38297741  0.24286163  0.24628898  1
  O  O388  1  0.38221640  0.24990024  0.74191245  1
  O  O389  1  0.38558762  0.75366206  0.25647565  1
  O  O390  1  0.37741163  0.74625910  0.73752818  1
  O  O391  1  0.87929120  0.24266301  0.24007311  1
  O  O392  1  0.88227776  0.24277847  0.74104682  1
  O  O393  1  0.86682234  0.74135002  0.23835627  1
  O  O394  1  0.89083003  0.75422394  0.74550863  1
  O  O395  1  0.37814021  0.48892727  0.49372177  1
  O  O396  1  0.37141759  0.48332219  1.00096645  1
  O  O397  1  0.38137455  0.99529112  0.49908739  1
  O  O398  1  0.38312173  0.99412189  0.99107102  1
  O  O399  1  0.88116132  0.49799359  0.51928456  1
  O  O400  1  0.89186588  0.50300027  1.00942322  1
  O  O401  1  0.88086089  0.99267080  0.50160577  1
  O  O402  1  0.87707268  0.99032194  0.99836560  1
  O  O403  1  0.12185976  0.01329628  0.00422917  1
  O  O404  1  0.10856677  -0.00598900  0.51176984  1
  O  O405  1  0.11836322  0.50623090  0.00938572  1
  O  O406  1  0.12851306  0.51178422  0.50254608  1
  O  O407  1  0.62192943  0.00762410  0.00874550  1
  O  O408  1  0.62046565  0.00441358  0.50732371  1
  O  O409  1  0.61361912  0.48896412  0.02888813  1
  O  O410  1  0.61942435  0.51290855  0.49480831  1
  O  O411  1  0.36813088  0.37103638  0.11748410  1
  O  O412  1  0.36509093  0.36759988  0.61454056  1
  O  O413  1  0.37163883  0.88290939  0.11278712  1
  O  O414  1  0.36315525  0.86791436  0.61751878  1
  O  O415  1  0.87417933  0.36460300  0.12960605  1
  O  O416  1  0.87253235  0.35271467  0.62919765  1
  O  O417  1  0.87623754  0.85841109  0.12151034  1
  O  O418  1  0.87450081  0.87034576  0.61845216  1
  O  O419  1  0.11519556  0.13716374  0.37417493  1
  O  O420  1  0.12933294  0.12844849  0.88145181  1
  O  O421  1  0.13327139  0.63083661  0.38025519  1
  O  O422  1  0.13648491  0.63503968  0.88206335  1
  O  O423  1  0.63072970  0.13377219  0.37813184  1
  O  O424  1  0.63496345  0.12338779  0.88557886  1
  O  O425  1  0.62448690  0.63633554  0.37858026  1
  O  O426  1  0.62992320  0.58332757  0.88813969  1
