# generated using pymatgen
data_V85Zn86O256
_symmetry_space_group_name_H-M   'P 1'
_cell_length_a   17.02045075
_cell_length_b   16.98419666
_cell_length_c   16.97848340
_cell_angle_alpha   90.12342150
_cell_angle_beta   90.02326258
_cell_angle_gamma   89.98832474
_symmetry_Int_Tables_number   1
_chemical_formula_structural   V85Zn86O256
_chemical_formula_sum   'V85 Zn86 O256'
_cell_volume   4908.10572603
_cell_formula_units_Z   1
loop_
 _symmetry_equiv_pos_site_id
 _symmetry_equiv_pos_as_xyz
  1  'x, y, z'
loop_
 _atom_site_type_symbol
 _atom_site_label
 _atom_site_symmetry_multiplicity
 _atom_site_fract_x
 _atom_site_fract_y
 _atom_site_fract_z
 _atom_site_occupancy
  V  V0  1  -0.00189476  0.87174340  0.37267440  1
  V  V1  1  0.87903998  0.61827587  0.75323730  1
  V  V2  1  0.50117064  0.12660893  0.12926358  1
  V  V3  1  -0.00233992  0.36702063  0.37080614  1
  V  V4  1  0.50034451  0.87408863  0.87453930  1
  V  V5  1  0.75627074  0.12845059  0.87610304  1
  V  V6  1  0.38058713  0.25242487  0.12823398  1
  V  V7  1  0.11647517  0.50549788  0.12675990  1
  V  V8  1  0.74883687  0.75015541  0.49906120  1
  V  V9  1  0.38071207  0.49586805  0.37442108  1
  V  V10  1  0.62714035  0.12925584  0.00120893  1
  V  V11  1  0.25474400  0.37758939  0.63151908  1
  V  V12  1  0.24522145  0.00236953  0.24575213  1
  V  V13  1  0.49814369  0.87682061  0.37370415  1
  V  V14  1  0.61113263  0.25585941  0.37037301  1
  V  V15  1  0.50307384  0.75110816  0.74795613  1
  V  V16  1  0.74970349  0.75496483  0.01043497  1
  V  V17  1  0.50147601  0.00089079  0.50023109  1
  V  V18  1  0.87199818  -0.00080712  0.37540738  1
  V  V19  1  0.12037692  0.62600780  0.00379326  1
  V  V20  1  0.12401962  0.11759890  0.00508460  1
  V  V21  1  0.49532051  0.75336206  0.24677939  1
  V  V22  1  0.38262754  0.12790318  0.75051124  1
  V  V23  1  0.49528348  0.62876261  0.12491267  1
  V  V24  1  0.37717150  0.37815556  -0.00743622  1
  V  V25  1  0.25168026  -0.00146462  0.74902821  1
  V  V26  1  0.23211057  0.13085221  0.37859966  1
  V  V27  1  0.49608198  0.49998909  -0.00421704  1
  V  V28  1  0.74947672  0.13483846  0.37301701  1
  V  V29  1  0.25269568  0.87352797  0.12705262  1
  V  V30  1  0.87031547  0.74849244  0.62477298  1
  V  V31  1  0.37540742  -0.00127441  0.87469228  1
  V  V32  1  0.63207679  -0.00814725  0.62385587  1
  V  V33  1  0.00710086  0.62221828  0.61897901  1
  V  V34  1  0.62489362  0.75052568  0.87503147  1
  V  V35  1  0.75843390  -0.00430006  0.74771933  1
  V  V36  1  0.37629584  0.61989488  0.75242604  1
  V  V37  1  0.37929904  0.37473936  0.49767636  1
  V  V38  1  0.25584291  0.74866228  0.00538264  1
  V  V39  1  0.25596767  0.61898119  0.87682753  1
  V  V40  1  0.24863052  0.87453940  0.62344413  1
  V  V41  1  0.74900786  0.62516716  0.36253394  1
  V  V42  1  0.24563472  0.74891392  0.49972756  1
  V  V43  1  0.24909449  0.49906724  0.25037679  1
  V  V44  1  0.11794441  0.37578335  0.75209293  1
  V  V45  1  0.12181347  0.74870202  0.37327778  1
  V  V46  1  0.61109692  0.24651369  0.86356068  1
  V  V47  1  0.37432431  0.87590596  0.49874985  1
  V  V48  1  0.62249810  0.62111391  0.49602045  1
  V  V49  1  0.62314801  0.75232254  0.37188444  1
  V  V50  1  0.00518093  0.11994617  0.12386661  1
  V  V51  1  0.61477483  0.37403415  0.24854060  1
  V  V52  1  0.89332475  0.74826218  0.12830376  1
  V  V53  1  0.00657764  0.50317644  0.49754679  1
  V  V54  1  0.87215287  0.87424484  0.50218690  1
  V  V55  1  0.12564297  0.87471754  0.74940792  1
  V  V56  1  0.49917671  -0.00017731  0.00077031  1
  V  V57  1  0.87227779  0.87688354  0.00556069  1
  V  V58  1  0.62475751  0.62327722  -0.00013431  1
  V  V59  1  0.00110787  0.75083678  0.74887011  1
  V  V60  1  0.37727778  0.12886407  0.25464094  1
  V  V61  1  0.75221154  0.62659419  0.87208660  1
  V  V62  1  0.87939911  0.50707078  0.88369979  1
  V  V63  1  0.89263346  0.63096771  0.24694102  1
  V  V64  1  0.24531537  0.62286153  0.37989826  1
  V  V65  1  0.25077208  0.12354663  0.87642396  1
  V  V66  1  0.24982910  0.25079288  0.00178219  1
  V  V67  1  0.37466739  0.87332812  0.00369893  1
  V  V68  1  0.62925815  0.12753049  0.49815877  1
  V  V69  1  0.87476790  0.13064258  0.24802769  1
  V  V70  1  0.12207586  0.87690891  0.24678328  1
  V  V71  1  0.87034717  0.36593411  0.00005452  1
  V  V72  1  0.63182099  0.50137079  0.12911605  1
  V  V73  1  0.87136976  0.50375762  0.36826482  1
  V  V74  1  0.38006139  0.24858452  0.62939857  1
  V  V75  1  0.74885834  -0.00241912  0.24228434  1
  V  V76  1  0.87134253  0.37004207  0.50163837  1
  V  V77  1  0.11880701  0.25149794  0.87449108  1
  V  V78  1  0.74847336  0.36982452  0.12404293  1
  V  V79  1  0.62697412  0.87764478  0.24227374  1
  V  V80  1  0.00002717  0.87711809  0.87671729  1
  V  V81  1  0.37216101  0.63121116  0.24636910  1
  V  V82  1  0.12251521  0.37012375  0.25056948  1
  V  V83  1  0.12102509  0.01231334  0.61863026  1
  V  V84  1  0.50187249  0.62173959  0.61928196  1
  Zn  Zn85  1  0.37411436  0.75037327  0.62418329  1
  Zn  Zn86  1  0.12709853  0.74856007  0.87528365  1
  Zn  Zn87  1  0.12851072  0.50267070  0.62402081  1
  Zn  Zn88  1  -0.00751993  0.37265245  0.87626141  1
  Zn  Zn89  1  0.25385736  0.49981433  0.75566809  1
  Zn  Zn90  1  0.24415279  0.24003034  0.50394135  1
  Zn  Zn91  1  0.00376582  -0.00216000  0.00485936  1
  Zn  Zn92  1  0.37197070  0.00408919  0.37679001  1
  Zn  Zn93  1  0.00566532  0.24583883  0.25047381  1
  Zn  Zn94  1  0.87319898  0.24468966  0.11569003  1
  Zn  Zn95  1  0.72919652  0.28720024  0.54671985  1
  Zn  Zn96  1  -0.02080908  0.14572069  0.63616445  1
  Zn  Zn97  1  0.50489693  0.49379177  0.49439321  1
  Zn  Zn98  1  0.62888169  -0.00184538  0.12076629  1
  Zn  Zn99  1  -0.00045632  0.50119707  0.00545477  1
  Zn  Zn100  1  0.63055273  0.87115098  0.74473439  1
  Zn  Zn101  1  0.50651316  0.12806161  0.62982680  1
  Zn  Zn102  1  0.50362815  0.37653345  0.86483289  1
  Zn  Zn103  1  0.00232426  0.01089620  0.50061183  1
  Zn  Zn104  1  0.69008398  0.42860229  0.68790463  1
  Zn  Zn105  1  0.87808129  0.00517621  0.87485231  1
  Zn  Zn106  1  0.24845951  0.37597465  0.12477236  1
  Zn  Zn107  1  0.19034601  0.18732747  0.18711448  1
  Zn  Zn108  1  0.19152765  0.19065286  0.69116075  1
  Zn  Zn109  1  0.18428710  0.69069390  0.18861213  1
  Zn  Zn110  1  0.18845886  0.68767212  0.68927062  1
  Zn  Zn111  1  0.68733988  0.19148994  0.18777337  1
  Zn  Zn112  1  0.68677476  0.17996217  0.69255611  1
  Zn  Zn113  1  0.68518087  0.69016581  0.18598785  1
  Zn  Zn114  1  0.71366764  0.62582881  0.66072082  1
  Zn  Zn115  1  0.31075962  0.31198352  0.31370887  1
  Zn  Zn116  1  0.31269376  0.31032632  0.81459286  1
  Zn  Zn117  1  0.31048097  0.81399669  0.31488274  1
  Zn  Zn118  1  0.31351234  0.80782789  0.81467144  1
  Zn  Zn119  1  0.80560318  0.31910258  0.30821461  1
  Zn  Zn120  1  0.79197356  0.31176375  0.80141915  1
  Zn  Zn121  1  0.81158199  0.81095209  0.30840334  1
  Zn  Zn122  1  0.81288272  0.81213975  0.81416761  1
  Zn  Zn123  1  0.17016715  0.39667880  0.45494518  1
  Zn  Zn124  1  0.18787948  0.43896296  0.93970357  1
  Zn  Zn125  1  0.18738208  0.94107976  0.43520809  1
  Zn  Zn126  1  0.18897504  0.93548014  0.93648828  1
  Zn  Zn127  1  0.68886409  0.44083405  0.43065092  1
  Zn  Zn128  1  0.70722987  0.41851270  0.90207283  1
  Zn  Zn129  1  0.68930083  0.93856891  0.43183670  1
  Zn  Zn130  1  0.68804300  0.93947400  0.93533130  1
  Zn  Zn131  1  0.31244035  0.06170776  0.06525040  1
  Zn  Zn132  1  0.31079426  0.06244728  0.56277837  1
  Zn  Zn133  1  0.31004567  0.56094529  0.06384534  1
  Zn  Zn134  1  0.31528880  0.56081734  0.56358296  1
  Zn  Zn135  1  0.81553383  0.06339332  0.05897065  1
  Zn  Zn136  1  0.82252823  0.07350568  0.55834816  1
  Zn  Zn137  1  0.81140436  0.56721244  0.06590324  1
  Zn  Zn138  1  0.84316820  0.51213784  0.59709306  1
  Zn  Zn139  1  0.43730143  0.44009830  0.18336656  1
  Zn  Zn140  1  0.44002518  0.44211395  0.68308997  1
  Zn  Zn141  1  0.43452250  0.94251250  0.18809286  1
  Zn  Zn142  1  0.43829531  0.93792722  0.68484907  1
  Zn  Zn143  1  0.93424604  0.43919595  0.18805914  1
  Zn  Zn144  1  0.93032490  0.32802121  0.68143586  1
  Zn  Zn145  1  0.93587911  0.93859538  0.18703005  1
  Zn  Zn146  1  0.93902639  0.93649941  0.68644482  1
  Zn  Zn147  1  0.05765896  0.05769484  0.31221076  1
  Zn  Zn148  1  0.06450362  0.06238297  0.80869004  1
  Zn  Zn149  1  0.06313057  0.55863930  0.31528719  1
  Zn  Zn150  1  0.06499121  0.56207311  0.81480920  1
  Zn  Zn151  1  0.56319810  0.06301532  0.31228093  1
  Zn  Zn152  1  0.56705948  0.05799023  0.81248739  1
  Zn  Zn153  1  0.56214460  0.56286431  0.30824482  1
  Zn  Zn154  1  0.56057979  0.56204670  0.81125265  1
  Zn  Zn155  1  0.43490432  0.18976684  0.44226300  1
  Zn  Zn156  1  0.43793828  0.18685005  0.94035216  1
  Zn  Zn157  1  0.43355007  0.68873407  0.43329683  1
  Zn  Zn158  1  0.43623640  0.68814839  0.93707700  1
  Zn  Zn159  1  0.93599089  0.18689504  0.44486947  1
  Zn  Zn160  1  0.93538595  0.18679880  0.81261409  1
  Zn  Zn161  1  0.93702876  0.68568792  0.43694303  1
  Zn  Zn162  1  0.93911252  0.69479063  0.94025822  1
  Zn  Zn163  1  0.05639264  0.31178573  0.06511537  1
  Zn  Zn164  1  0.06812745  0.29769113  0.55937920  1
  Zn  Zn165  1  0.06751829  0.81325330  0.06142425  1
  Zn  Zn166  1  0.06028817  0.81546111  0.56151222  1
  Zn  Zn167  1  0.56419350  0.31443583  0.05804886  1
  Zn  Zn168  1  0.56141199  0.31902298  0.57500915  1
  Zn  Zn169  1  0.56125538  0.81108381  0.06109328  1
  Zn  Zn170  1  0.56228629  0.80960471  0.56153858  1
  O  O171  1  0.11882323  0.13121882  0.11705315  1
  O  O172  1  0.13044938  0.11278947  0.62943976  1
  O  O173  1  0.13477696  0.61710740  0.11625842  1
  O  O174  1  0.11188519  0.62208608  0.63262790  1
  O  O175  1  0.61642205  0.12491487  0.12111750  1
  O  O176  1  0.62496637  0.11648476  0.61308083  1
  O  O177  1  0.61679796  0.61963687  0.12210605  1
  O  O178  1  0.61343651  0.63471533  0.60698562  1
  O  O179  1  0.36621960  0.38360824  0.38480616  1
  O  O180  1  0.38371162  0.36611119  0.88797299  1
  O  O181  1  0.38032081  0.88040761  0.37994474  1
  O  O182  1  0.37997419  0.87983791  0.88205764  1
  O  O183  1  0.87936640  0.38584562  0.37196658  1
  O  O184  1  0.87221059  0.39229122  0.89250530  1
  O  O185  1  0.88135966  0.87646640  0.37929348  1
  O  O186  1  0.88578907  0.87149370  0.88650029  1
  O  O187  1  0.25141551  0.01122808  0.36499451  1
  O  O188  1  0.25693854  0.00330729  0.86960760  1
  O  O189  1  0.25736925  0.50940803  0.36332291  1
  O  O190  1  0.25060395  0.51471821  0.87815032  1
  O  O191  1  0.75266827  0.01080427  0.36309089  1
  O  O192  1  0.75183019  0.00648662  0.86595803  1
  O  O193  1  0.76171411  0.51409257  0.37781673  1
  O  O194  1  0.76260187  0.52249680  0.88911853  1
  O  O195  1  0.24337097  0.49921896  0.13819701  1
  O  O196  1  0.24903187  0.49236737  0.62996751  1
  O  O197  1  0.25141449  0.99209732  0.13687692  1
  O  O198  1  0.24082357  0.99420568  0.62835891  1
  O  O199  1  0.73642517  0.49468241  0.11861265  1
  O  O200  1  0.73994245  0.51864646  0.63600123  1
  O  O201  1  0.74945269  1.00666461  0.13857700  1
  O  O202  1  0.74399556  1.00876114  0.63936407  1
  O  O203  1  0.00426087  0.37239657  0.25362194  1
  O  O204  1  0.01803805  0.37722467  0.75450635  1
  O  O205  1  0.00823591  0.88381112  0.26262883  1
  O  O206  1  0.00420552  0.87014798  0.75722379  1
  O  O207  1  0.51448753  0.37581433  0.23952144  1
  O  O208  1  0.52624297  0.40626274  0.75066400  1
  O  O209  1  0.50418581  0.87370488  0.25353605  1
  O  O210  1  0.49825771  0.86667901  0.75535478  1
  O  O211  1  0.48986490  0.11857646  0.24037625  1
  O  O212  1  0.48573286  0.11397476  0.74825427  1
  O  O213  1  0.49078202  0.63154590  0.24342674  1
  O  O214  1  0.49625069  0.63216383  0.74173475  1
  O  O215  1  0.99103664  0.12457807  0.24558212  1
  O  O216  1  0.99027049  0.11641415  0.74594799  1
  O  O217  1  0.99122536  0.62944481  0.25801290  1
  O  O218  1  0.99607061  0.63221348  0.74587629  1
  O  O219  1  0.36812911  0.25527637  0.00793378  1
  O  O220  1  0.36826503  0.25711734  0.50883614  1
  O  O221  1  0.36408803  0.75687899  -0.00244075  1
  O  O222  1  0.36181445  0.75711704  0.49673859  1
  O  O223  1  0.87331221  0.26796366  -0.00375957  1
  O  O224  1  0.87278540  0.27017961  0.49549084  1
  O  O225  1  0.86849101  0.75534249  0.01000569  1
  O  O226  1  0.86828290  0.75472930  0.50368086  1
  O  O227  1  0.14421412  0.28791590  0.48503503  1
  O  O228  1  0.13521072  0.24625856  0.99574338  1
  O  O229  1  0.13650266  0.75868152  0.48832624  1
  O  O230  1  0.13865937  0.74276761  1.00051813  1
  O  O231  1  0.62961625  0.24090086  0.48722801  1
  O  O232  1  0.61911656  0.23219092  0.99690550  1
  O  O233  1  0.63065059  0.74690643  0.49061696  1
  O  O234  1  0.63068464  0.74488953  0.99520366  1
  O  O235  1  0.48982933  0.23866943  0.11721241  1
  O  O236  1  0.48434347  0.24547034  0.62119238  1
  O  O237  1  0.50381453  0.73613430  0.12928597  1
  O  O238  1  0.49710825  0.74421026  0.63205567  1
  O  O239  1  0.99378034  0.23686150  0.12899956  1
  O  O240  1  0.99815029  0.25634394  0.62734632  1
  O  O241  1  0.99227120  0.74921965  0.12068181  1
  O  O242  1  0.99156562  0.74256685  0.62583957  1
  O  O243  1  -0.00860647  0.26262043  0.37296462  1
  O  O244  1  0.01742060  0.25184114  0.87844872  1
  O  O245  1  0.00992728  0.76058084  0.38341782  1
  O  O246  1  0.00355686  0.76142120  0.86900892  1
  O  O247  1  0.51321105  0.24853621  0.37949384  1
  O  O248  1  0.50678261  0.24743529  0.87411956  1
  O  O249  1  0.50329824  0.75696613  0.36655159  1
  O  O250  1  0.50473475  0.75363365  0.86881723  1
  O  O251  1  0.25297600  0.12167664  0.48239245  1
  O  O252  1  0.24608927  0.13262603  0.99782639  1
  O  O253  1  0.25668219  0.63359526  0.48868331  1
  O  O254  1  0.24791333  0.63169342  0.99621996  1
  O  O255  1  0.73784951  0.11704113  0.48553562  1
  O  O256  1  0.73862606  0.11234506  0.98700619  1
  O  O257  1  0.73725604  0.63907603  0.48356421  1
  O  O258  1  0.74372076  0.63724846  0.99467001  1
  O  O259  1  0.25855412  0.36680992  0.00089423  1
  O  O260  1  0.26826398  0.38209980  0.51741241  1
  O  O261  1  0.25300761  0.86877544  0.00800654  1
  O  O262  1  0.25453025  0.86907529  0.50203038  1
  O  O263  1  0.76325958  0.38475177  0.00669850  1
  O  O264  1  0.76665464  0.38025124  0.48676155  1
  O  O265  1  0.76111456  0.86626215  -0.00823887  1
  O  O266  1  0.75682844  0.85937230  0.48961779  1
  O  O267  1  0.13239593  0.49697325  0.24373564  1
  O  O268  1  0.13119755  0.48665524  0.75277603  1
  O  O269  1  0.13455790  0.98843629  0.25681402  1
  O  O270  1  0.13377000  0.99398620  0.74085356  1
  O  O271  1  0.61935249  0.49326961  0.23764633  1
  O  O272  1  0.58613999  0.46896268  0.74486718  1
  O  O273  1  0.63166370  0.99395309  0.24869841  1
  O  O274  1  0.63071793  0.99552554  0.73941955  1
  O  O275  1  0.36405914  0.01184491  0.25187933  1
  O  O276  1  0.36957529  0.00556563  0.75403512  1
  O  O277  1  0.36722437  0.50622117  0.25422712  1
  O  O278  1  0.37676475  0.51637003  0.74745898  1
  O  O279  1  0.86719937  0.00758840  0.25513425  1
  O  O280  1  0.86170890  -0.00516291  0.74930627  1
  O  O281  1  0.88020866  0.51266480  0.26054322  1
  O  O282  1  0.87932669  0.51763720  0.76562127  1
  O  O283  1  0.10860713  0.38914055  0.35805749  1
  O  O284  1  0.12820257  0.36974822  0.86764713  1
  O  O285  1  0.11778419  0.86986126  0.36906627  1
  O  O286  1  0.11725402  0.87441436  0.86898254  1
  O  O287  1  0.63016760  0.36260439  0.36714646  1
  O  O288  1  0.61810841  0.34804812  0.89317193  1
  O  O289  1  0.61742494  0.87172772  0.36461732  1
  O  O290  1  0.61636771  0.86789814  0.87534453  1
  O  O291  1  0.38087827  0.13218883  0.13216294  1
  O  O292  1  0.37269631  0.13182829  0.63333768  1
  O  O293  1  0.38204760  0.61905720  0.13681237  1
  O  O294  1  0.38219652  0.63095746  0.63190702  1
  O  O295  1  0.88142245  0.12520397  0.13202726  1
  O  O296  1  0.83651329  0.16073727  0.63250059  1
  O  O297  1  0.87118840  0.63495065  0.13655935  1
  O  O298  1  0.88739025  0.62941039  0.63597041  1
  O  O299  1  0.25996078  0.25016813  0.11486345  1
  O  O300  1  0.26080567  0.25982866  0.62590083  1
  O  O301  1  0.24835128  0.76012024  0.11760547  1
  O  O302  1  0.24877278  0.75430916  0.61422990  1
  O  O303  1  0.75240134  0.26309137  0.12381714  1
  O  O304  1  0.77732148  0.22112213  0.63340155  1
  O  O305  1  0.75191437  0.74968768  0.11286990  1
  O  O306  1  0.76455538  0.73105803  0.61232790  1
  O  O307  1  0.25241794  0.23188939  0.37097814  1
  O  O308  1  0.24635385  0.24417167  0.88724963  1
  O  O309  1  0.24260261  0.74329714  0.38095681  1
  O  O310  1  0.24828995  0.74227930  0.88693542  1
  O  O311  1  0.74459549  0.23841998  0.37012227  1
  O  O312  1  0.73437802  0.23045774  0.87196054  1
  O  O313  1  0.74384486  0.74435660  0.37847440  1
  O  O314  1  0.74585770  0.74369781  0.88536103  1
  O  O315  1  0.01405342  0.12104518  0.01007646  1
  O  O316  1  -0.04964915  0.11007956  0.52772414  1
  O  O317  1  0.01834561  0.62865356  -0.00639434  1
  O  O318  1  -0.00315128  0.61761842  0.50614281  1
  O  O319  1  0.50440306  0.11799571  0.00960909  1
  O  O320  1  0.51154437  0.11620911  0.49811982  1
  O  O321  1  0.50175006  0.62169011  0.00721636  1
  O  O322  1  0.50681218  0.63227741  0.50238668  1
  O  O323  1  0.48493567  0.37727672  0.51078481  1
  O  O324  1  0.49112830  0.38472851  1.00425860  1
  O  O325  1  0.49570604  0.88192198  0.49423647  1
  O  O326  1  0.49377923  0.87888932  0.99595004  1
  O  O327  1  0.98708058  0.38355385  0.48545532  1
  O  O328  1  0.98605813  0.38020841  1.00135457  1
  O  O329  1  0.98824279  0.87870141  0.49087793  1
  O  O330  1  0.99636442  0.87594546  0.99318385  1
  O  O331  1  0.48401383  0.50625023  0.37212635  1
  O  O332  1  0.50483123  0.50062764  0.89318419  1
  O  O333  1  0.50130115  0.99594210  0.38601951  1
  O  O334  1  0.49430176  0.99386531  0.88094049  1
  O  O335  1  0.99050829  0.49631451  0.37962073  1
  O  O336  1  0.99045489  0.49944623  0.88004950  1
  O  O337  1  0.99121063  0.99144878  0.38164397  1
  O  O338  1  0.99805578  0.98719174  0.87508570  1
  O  O339  1  -0.00214637  0.01421315  0.12627678  1
  O  O340  1  0.01703198  -0.00303259  0.62673682  1
  O  O341  1  0.01351907  0.50130337  0.12834560  1
  O  O342  1  -0.00412274  0.51200331  0.61152919  1
  O  O343  1  0.49879824  0.01140883  0.11912177  1
  O  O344  1  0.50951194  0.00166587  0.61338407  1
  O  O345  1  0.50520992  0.51342141  0.11970889  1
  O  O346  1  0.49438074  0.51858325  0.61364309  1
  O  O347  1  0.24161110  0.38501067  0.25164937  1
  O  O348  1  0.25273094  0.37935290  0.74484416  1
  O  O349  1  0.24485677  0.88228004  0.24578651  1
  O  O350  1  0.24711041  0.87801824  0.74502904  1
  O  O351  1  0.73577596  0.37503223  0.23595841  1
  O  O352  1  0.73315362  0.40072869  0.78949072  1
  O  O353  1  0.73839967  0.88543652  0.25758190  1
  O  O354  1  0.74629718  0.88910249  0.75876846  1
  O  O355  1  0.25486521  0.11927517  0.25687292  1
  O  O356  1  0.25953842  0.11837427  0.75751456  1
  O  O357  1  0.25568423  0.62033817  0.25593299  1
  O  O358  1  0.25900123  0.62766496  0.75871441  1
  O  O359  1  0.75553317  0.11876320  0.25454463  1
  O  O360  1  0.74116273  0.10786963  0.76821267  1
  O  O361  1  0.75178070  0.63190204  0.26013250  1
  O  O362  1  0.76453292  0.63781787  0.76451771  1
  O  O363  1  0.37438402  0.12615776  0.36368674  1
  O  O364  1  0.37036093  0.11910472  0.87015914  1
  O  O365  1  0.36525823  0.61809059  0.36515626  1
  O  O366  1  0.36730422  0.63125812  0.86581518  1
  O  O367  1  0.86736278  0.12015151  0.36727753  1
  O  O368  1  0.85878718  0.12523115  0.87975325  1
  O  O369  1  0.86778166  0.62457541  0.36580403  1
  O  O370  1  0.87264893  0.62739588  0.87195240  1
  O  O371  1  0.12683313  0.38608644  0.13212425  1
  O  O372  1  0.13756849  0.37468079  0.64272388  1
  O  O373  1  0.13559323  0.87047251  0.13737676  1
  O  O374  1  0.13052299  0.88106367  0.63061608  1
  O  O375  1  0.63025072  0.38091165  0.12725293  1
  O  O376  1  0.65852286  0.34014987  0.62064505  1
  O  O377  1  0.61794524  0.87728522  0.13806102  1
  O  O378  1  0.62428135  0.88724300  0.62167834  1
  O  O379  1  0.12675455  0.26633711  0.24249188  1
  O  O380  1  0.13906561  0.26474277  0.76335629  1
  O  O381  1  0.13227236  0.76315296  0.26325092  1
  O  O382  1  0.11869503  0.75767124  0.75084830  1
  O  O383  1  0.62444661  0.25463356  0.26306501  1
  O  O384  1  0.61983714  0.23914048  0.76408375  1
  O  O385  1  0.61724053  0.75952461  0.25260255  1
  O  O386  1  0.61021532  0.75160812  0.75647084  1
  O  O387  1  0.36728258  0.24153700  0.23815865  1
  O  O388  1  0.37007988  0.23831052  0.74365324  1
  O  O389  1  0.37787432  0.73889038  0.25664857  1
  O  O390  1  0.38715696  0.74204135  0.74958038  1
  O  O391  1  0.87141469  0.23587696  0.24975040  1
  O  O392  1  0.88692935  0.27550947  0.76908792  1
  O  O393  1  0.87205513  0.74512862  0.23863964  1
  O  O394  1  0.88153587  0.74630277  0.74164071  1
  O  O395  1  0.37725637  0.49490714  0.48940702  1
  O  O396  1  0.38234217  0.48885883  1.01034770  1
  O  O397  1  0.38633332  0.99649541  0.50028895  1
  O  O398  1  0.37850088  0.99454226  0.99466540  1
  O  O399  1  0.88536358  0.49555460  0.48554286  1
  O  O400  1  0.88097498  0.50822141  0.99525257  1
  O  O401  1  0.86010370  0.98226090  0.49400061  1
  O  O402  1  0.87856260  0.98807997  0.99759904  1
  O  O403  1  0.12900630  0.01354760  -0.00411624  1
  O  O404  1  0.12370374  -0.00249269  0.51423172  1
  O  O405  1  0.12632149  0.50793725  0.01041470  1
  O  O406  1  0.10996601  0.48612361  0.50313404  1
  O  O407  1  0.61730016  0.00729128  0.00180773  1
  O  O408  1  0.62098705  0.00506436  0.50282857  1
  O  O409  1  0.61209177  0.50854628  0.01342675  1
  O  O410  1  0.61990758  0.51632016  0.48362868  1
  O  O411  1  0.37300979  0.36579320  0.11859389  1
  O  O412  1  0.37210725  0.36821608  0.62523194  1
  O  O413  1  0.36219611  0.88003788  0.12052808  1
  O  O414  1  0.36698061  0.87376684  0.61724883  1
  O  O415  1  0.86633150  0.37868568  0.11620090  1
  O  O416  1  0.87426186  0.39244345  0.60390063  1
  O  O417  1  0.88204274  0.86665847  0.11380713  1
  O  O418  1  0.88104526  0.86078597  0.61408838  1
  O  O419  1  0.13300855  0.12336139  0.37015878  1
  O  O420  1  0.13210998  0.13251878  0.88227245  1
  O  O421  1  0.13621122  0.63421188  0.36701342  1
  O  O422  1  0.13700481  0.62696800  0.88434158  1
  O  O423  1  0.62964991  0.13534818  0.37701859  1
  O  O424  1  0.62439535  0.12954153  0.88401562  1
  O  O425  1  0.62893962  0.63311971  0.37428282  1
  O  O426  1  0.63315850  0.62896246  0.87757892  1
