# generated using pymatgen
data_V85Zn86O256
_symmetry_space_group_name_H-M   'P 1'
_cell_length_a   16.98088302
_cell_length_b   16.99465678
_cell_length_c   16.96559371
_cell_angle_alpha   89.98068590
_cell_angle_beta   89.97784415
_cell_angle_gamma   89.93688553
_symmetry_Int_Tables_number   1
_chemical_formula_structural   V85Zn86O256
_chemical_formula_sum   'V85 Zn86 O256'
_cell_volume   4896.00001009
_cell_formula_units_Z   1
loop_
 _symmetry_equiv_pos_site_id
 _symmetry_equiv_pos_as_xyz
  1  'x, y, z'
loop_
 _atom_site_type_symbol
 _atom_site_label
 _atom_site_symmetry_multiplicity
 _atom_site_fract_x
 _atom_site_fract_y
 _atom_site_fract_z
 _atom_site_occupancy
  V  V0  1  0.62558913  0.37400538  0.25100041  1
  V  V1  1  0.49543939  0.37973189  0.38963371  1
  V  V2  1  0.49866977  0.87547540  0.37533788  1
  V  V3  1  0.74954175  0.62499709  0.37579145  1
  V  V4  1  0.74951353  0.49586335  0.74757356  1
  V  V5  1  0.12297832  0.38026349  0.74371437  1
  V  V6  1  0.12222562  0.75173094  0.37959178  1
  V  V7  1  0.25413153  0.50198574  0.25041087  1
  V  V8  1  0.49851951  0.74682511  0.24723089  1
  V  V9  1  0.87482940  0.37567122  -0.00071424  1
  V  V10  1  0.25686150  0.37417655  0.62035457  1
  V  V11  1  0.37524885  -0.00309364  0.88071416  1
  V  V12  1  0.74863168  0.12865538  0.87445812  1
  V  V13  1  0.87402319  0.62324510  0.24894469  1
  V  V14  1  0.87561852  0.25114495  0.12178422  1
  V  V15  1  0.11364307  0.62131872  0.51038613  1
  V  V16  1  0.63247854  0.87934463  0.74195163  1
  V  V17  1  -0.00269336  -0.01023896  0.52021274  1
  V  V18  1  0.24781589  0.62695128  0.37303464  1
  V  V19  1  0.38412608  0.49758830  0.88450142  1
  V  V20  1  0.75733093  0.75813195  0.51134002  1
  V  V21  1  0.75003604  0.62453111  0.87396186  1
  V  V22  1  0.61580680  0.49966968  0.12230869  1
  V  V23  1  0.75647246  0.35675605  0.61152951  1
  V  V24  1  0.12918306  0.14206739  0.00552214  1
  V  V25  1  0.36442439  0.00462062  0.37682808  1
  V  V26  1  0.49790723  -0.00141400  0.50258529  1
  V  V27  1  0.00538416  0.25102477  0.75596408  1
  V  V28  1  0.87652426  0.11977175  0.24005790  1
  V  V29  1  0.49995286  0.12325541  0.12598452  1
  V  V30  1  0.24205769  0.87774989  0.62783633  1
  V  V31  1  0.75038002  0.74991883  -0.00288569  1
  V  V32  1  0.49775376  0.24939458  0.24731224  1
  V  V33  1  -0.00157888  0.74976394  0.25113530  1
  V  V34  1  0.01465354  0.13247367  0.62808679  1
  V  V35  1  0.24561437  0.13966514  0.87721877  1
  V  V36  1  0.88395193  0.87426932  -0.00690809  1
  V  V37  1  0.24852315  -0.00369049  0.24292722  1
  V  V38  1  0.62336137  0.36621410  0.76042253  1
  V  V39  1  0.62600379  0.12780010  -0.00370819  1
  V  V40  1  -0.00259090  0.37624238  0.38330788  1
  V  V41  1  0.36464458  0.12587561  0.25347447  1
  V  V42  1  0.11665502  0.87774951  0.75842057  1
  V  V43  1  0.87425520  0.74849832  0.12265618  1
  V  V44  1  0.62155062  0.12693767  0.49578330  1
  V  V45  1  0.75045092  0.49878703  0.25130301  1
  V  V46  1  0.87779986  0.13064627  0.74980876  1
  V  V47  1  0.12592896  0.50167973  0.12559178  1
  V  V48  1  0.62681194  -0.00010682  0.12192257  1
  V  V49  1  0.25571901  0.76364329  0.00278767  1
  V  V50  1  0.78901086  0.13863520  0.40114408  1
  V  V51  1  0.50500004  0.24876615  0.76426564  1
  V  V52  1  -0.00274614  0.73851973  0.74723050  1
  V  V53  1  0.87400647  0.49864742  0.87403546  1
  V  V54  1  0.62546622  0.75009931  0.37594241  1
  V  V55  1  0.62694010  0.24469114  0.37742039  1
  V  V56  1  0.37304874  0.76351111  0.12251526  1
  V  V57  1  0.49959520  0.74619903  0.74613272  1
  V  V58  1  0.75589626  0.00512682  0.25810165  1
  V  V59  1  0.24471192  0.50331750  0.74862316  1
  V  V60  1  -0.00108082  0.62413177  0.12441353  1
  V  V61  1  0.61877862  0.62336126  -0.00095935  1
  V  V62  1  0.49803082  0.87613663  0.87858902  1
  V  V63  1  0.62606266  0.87554465  0.24945058  1
  V  V64  1  0.00872084  0.37132542  0.87745455  1
  V  V65  1  0.12793218  0.87488823  0.24573954  1
  V  V66  1  0.37096779  0.87525890  0.50239939  1
  V  V67  1  0.12650128  0.37267336  0.25599711  1
  V  V68  1  -0.00065416  0.50142850  -0.00005719  1
  V  V69  1  0.61876888  0.49949477  0.62311327  1
  V  V70  1  0.37591875  0.12918980  0.75036858  1
  V  V71  1  0.75065306  0.37548682  0.12568622  1
  V  V72  1  0.12589403  0.62588178  -0.00026566  1
  V  V73  1  0.75197171  0.87540191  0.12355721  1
  V  V74  1  0.25550042  0.36915964  0.11520797  1
  V  V75  1  0.88185270  -0.00191726  0.87678075  1
  V  V76  1  0.24948658  0.62738862  0.87522066  1
  V  V77  1  0.61912568  0.62366118  0.50493341  1
  V  V78  1  -0.01674592  0.88251005  0.37833028  1
  V  V79  1  0.87647666  0.49531268  0.38471124  1
  V  V80  1  0.24794149  0.00005681  0.74760355  1
  V  V81  1  0.87550994  0.62402986  0.73544728  1
  V  V82  1  0.00334936  0.25053537  0.25057095  1
  V  V83  1  0.49987546  0.12519214  0.62648471  1
  V  V84  1  0.37694845  0.74526783  0.62527524  1
  Zn  Zn85  1  0.12964687  -0.00574117  0.11570108  1
  Zn  Zn86  1  0.41251453  0.36592907  -0.01275400  1
  Zn  Zn87  1  0.01050531  -0.00241097  -0.00299944  1
  Zn  Zn88  1  0.37636720  0.50013433  0.39003147  1
  Zn  Zn89  1  0.49213916  -0.00726598  0.00517658  1
  Zn  Zn90  1  -0.00080890  0.49756390  0.52524155  1
  Zn  Zn91  1  0.37501341  0.62538790  0.24783899  1
  Zn  Zn92  1  0.62476829  0.75221762  0.87289557  1
  Zn  Zn93  1  0.45352818  0.55690889  0.56025475  1
  Zn  Zn94  1  0.64053719  -0.00228792  0.61669048  1
  Zn  Zn95  1  0.38225284  0.26253422  0.61353875  1
  Zn  Zn96  1  0.37951838  0.62160194  0.74617470  1
  Zn  Zn97  1  0.75857456  -0.00094010  0.73906503  1
  Zn  Zn98  1  0.25298003  0.23493744  0.48265496  1
  Zn  Zn99  1  0.24528236  0.75235299  0.50303825  1
  Zn  Zn100  1  0.00624952  0.12029001  0.11867991  1
  Zn  Zn101  1  0.13303399  0.11743229  0.48752010  1
  Zn  Zn102  1  0.81388563  0.92773035  0.56485410  1
  Zn  Zn103  1  0.36158116  0.24263739  0.11230951  1
  Zn  Zn104  1  0.11528653  0.75646523  0.88234807  1
  Zn  Zn105  1  0.74538792  0.25352226  -0.00677722  1
  Zn  Zn106  1  0.49257290  0.62301778  0.11535352  1
  Zn  Zn107  1  0.17502827  0.18856495  0.32389791  1
  Zn  Zn108  1  0.18775401  0.19542038  0.68918128  1
  Zn  Zn109  1  0.18753346  0.69136385  0.18577925  1
  Zn  Zn110  1  0.18457645  0.69464257  0.68891205  1
  Zn  Zn111  1  0.68858475  0.18765018  0.18672609  1
  Zn  Zn112  1  0.68779459  0.18377557  0.68670201  1
  Zn  Zn113  1  0.68630047  0.68566183  0.18533635  1
  Zn  Zn114  1  0.68522454  0.68692689  0.68792494  1
  Zn  Zn115  1  0.31674483  0.31620085  0.31063299  1
  Zn  Zn116  1  0.31654324  0.31807049  0.80948757  1
  Zn  Zn117  1  0.31202544  0.81391025  0.31243010  1
  Zn  Zn118  1  0.31343139  0.81227761  0.81302567  1
  Zn  Zn119  1  0.81544989  0.31003295  0.31387473  1
  Zn  Zn120  1  0.81446239  0.31163399  0.80944516  1
  Zn  Zn121  1  0.80806773  0.80927583  0.31120710  1
  Zn  Zn122  1  0.81570385  0.81037896  0.80862997  1
  Zn  Zn123  1  0.18510293  0.43991163  0.43883330  1
  Zn  Zn124  1  0.18997834  0.44099223  0.93485163  1
  Zn  Zn125  1  0.17943673  0.93759670  0.43991560  1
  Zn  Zn126  1  0.19002465  0.94440600  0.93352705  1
  Zn  Zn127  1  0.68476411  0.43634976  0.43893713  1
  Zn  Zn128  1  0.68063783  0.43655852  0.94094815  1
  Zn  Zn129  1  0.68906598  0.94246760  0.43089535  1
  Zn  Zn130  1  0.69238989  0.93824266  0.93007427  1
  Zn  Zn131  1  0.30822402  0.06640900  0.06233332  1
  Zn  Zn132  1  0.31026897  0.06721497  0.56483427  1
  Zn  Zn133  1  0.31431815  0.56805727  0.06358951  1
  Zn  Zn134  1  0.28956088  0.56281837  0.56105489  1
  Zn  Zn135  1  0.81200933  0.06007685  0.05956228  1
  Zn  Zn136  1  0.82350603  0.09226001  0.56142688  1
  Zn  Zn137  1  0.80806829  0.56120800  0.06180560  1
  Zn  Zn138  1  0.80320802  0.55969962  0.56011860  1
  Zn  Zn139  1  0.43542070  0.43424127  0.18940423  1
  Zn  Zn140  1  0.43605731  0.43639740  0.70259927  1
  Zn  Zn141  1  0.43682183  0.93841161  0.18988924  1
  Zn  Zn142  1  0.43606898  0.93493711  0.69046465  1
  Zn  Zn143  1  0.93804467  0.43716697  0.19034619  1
  Zn  Zn144  1  0.93321098  0.43207548  0.68169676  1
  Zn  Zn145  1  0.94343871  0.93596188  0.18108939  1
  Zn  Zn146  1  0.93907362  0.93968946  0.69571808  1
  Zn  Zn147  1  0.05632383  0.05507795  0.30591069  1
  Zn  Zn148  1  0.06612320  0.06311254  0.81685253  1
  Zn  Zn149  1  0.06234770  0.55995512  0.31469761  1
  Zn  Zn150  1  0.06179098  0.56275420  0.81224876  1
  Zn  Zn151  1  0.55808660  0.05989832  0.31085404  1
  Zn  Zn152  1  0.56431285  0.05769602  0.81297085  1
  Zn  Zn153  1  0.56430771  0.56134539  0.31429707  1
  Zn  Zn154  1  0.56560598  0.56157890  0.81114830  1
  Zn  Zn155  1  0.43365943  0.19197649  0.43642144  1
  Zn  Zn156  1  0.43787111  0.18116213  0.94203957  1
  Zn  Zn157  1  0.43299592  0.69051984  0.43465210  1
  Zn  Zn158  1  0.43419054  0.69001086  0.93242030  1
  Zn  Zn159  1  0.97250940  0.16802004  0.42228066  1
  Zn  Zn160  1  0.93984062  0.18601740  0.93755324  1
  Zn  Zn161  1  0.93562389  0.68506156  0.43510420  1
  Zn  Zn162  1  0.93681081  0.68825754  0.92944027  1
  Zn  Zn163  1  0.06720438  0.31508752  0.06680556  1
  Zn  Zn164  1  0.07417508  0.30788873  0.55934776  1
  Zn  Zn165  1  0.06389025  0.80900057  0.06254050  1
  Zn  Zn166  1  -0.05973073  0.80411516  0.57013640  1
  Zn  Zn167  1  0.56067668  0.31117048  0.05963449  1
  Zn  Zn168  1  0.56848315  0.31120849  0.56933393  1
  Zn  Zn169  1  0.56328264  0.80981223  0.06157960  1
  Zn  Zn170  1  0.56350489  0.81057057  0.56221037  1
  O  O171  1  0.13118060  0.12397399  0.10573891  1
  O  O172  1  0.11390707  0.12053838  0.64161294  1
  O  O173  1  0.11803917  0.62169386  0.12023858  1
  O  O174  1  0.13278649  0.63363143  0.60749769  1
  O  O175  1  0.62240188  0.11543722  0.12053343  1
  O  O176  1  0.61390347  0.12099530  0.61636379  1
  O  O177  1  0.62342396  0.61743995  0.11674667  1
  O  O178  1  0.63058883  0.61348146  0.61693209  1
  O  O179  1  0.39286780  0.37779482  0.37192305  1
  O  O180  1  0.36938444  0.39236325  0.87794733  1
  O  O181  1  0.37910307  0.88333175  0.38148019  1
  O  O182  1  0.38539184  0.88611448  0.86606153  1
  O  O183  1  0.88213855  0.38549766  0.36953978  1
  O  O184  1  0.88295776  0.38035766  0.87941420  1
  O  O185  1  0.88520910  0.86853242  0.37039331  1
  O  O186  1  0.86616872  0.88519652  0.88285228  1
  O  O187  1  0.26060841  -0.00678136  0.36845031  1
  O  O188  1  0.25976857  0.00803260  0.86328348  1
  O  O189  1  0.24859491  0.50924128  0.36610397  1
  O  O190  1  0.25612484  0.51075481  0.86916404  1
  O  O191  1  0.75058777  0.01784326  0.36359732  1
  O  O192  1  0.76223101  0.01135285  0.87041324  1
  O  O193  1  0.75599809  0.50361666  0.37128781  1
  O  O194  1  0.75254281  0.50205684  0.86463532  1
  O  O195  1  0.24480739  0.49988665  0.13428376  1
  O  O196  1  0.25005610  0.49139851  0.64132212  1
  O  O197  1  0.25078547  1.00185707  0.13935072  1
  O  O198  1  0.25991860  0.99237552  0.64058462  1
  O  O199  1  0.74275772  0.49430022  0.13222618  1
  O  O200  1  0.74085246  0.49227882  0.63524709  1
  O  O201  1  0.74209290  0.99531645  0.13228125  1
  O  O202  1  0.75590745  1.01135647  0.62101587  1
  O  O203  1  0.00767213  0.37007864  0.25433609  1
  O  O204  1  0.00436210  0.36887694  0.75910935  1
  O  O205  1  0.00484724  0.86994393  0.26001807  1
  O  O206  1  0.01476813  0.87206752  0.75333310  1
  O  O207  1  0.50659183  0.36418776  0.25365883  1
  O  O208  1  0.51506076  0.36380660  0.74635587  1
  O  O209  1  0.50609999  0.86703145  0.25488326  1
  O  O210  1  0.50875774  0.86915763  0.75719969  1
  O  O211  1  0.49189037  0.13062022  0.24536589  1
  O  O212  1  0.49682859  0.12794031  0.74473588  1
  O  O213  1  0.50124907  0.64019282  0.25378396  1
  O  O214  1  0.50278282  0.64221723  0.75331870  1
  O  O215  1  0.99394848  0.13350370  0.23728690  1
  O  O216  1  0.99910911  0.13258839  0.75016445  1
  O  O217  1  0.99428267  0.62952040  0.24444165  1
  O  O218  1  0.99249232  0.63146977  0.75181969  1
  O  O219  1  0.38730822  0.25684406  0.00426839  1
  O  O220  1  0.36484033  0.24268941  0.50493140  1
  O  O221  1  0.36298963  0.74702043  0.00590575  1
  O  O222  1  0.37168529  0.75787495  0.50761438  1
  O  O223  1  0.87651847  0.25654744  0.00924273  1
  O  O224  1  0.85470664  0.17122718  0.47369601  1
  O  O225  1  0.86988237  0.75473600  0.00245735  1
  O  O226  1  0.86236565  0.74697359  0.50060023  1
  O  O227  1  0.13931625  0.23313535  0.51042732  1
  O  O228  1  0.12406487  0.24200322  1.00053564  1
  O  O229  1  0.12364345  0.74042432  0.48377094  1
  O  O230  1  0.13779013  0.74541145  1.00041773  1
  O  O231  1  0.61697490  0.23869284  0.48868170  1
  O  O232  1  0.62765275  0.23143800  1.00820169  1
  O  O233  1  0.63321657  0.74463062  0.49539210  1
  O  O234  1  0.63384690  0.74146103  0.99824475  1
  O  O235  1  0.50641886  0.24157071  0.13883245  1
  O  O236  1  0.50051286  0.23753178  0.63346352  1
  O  O237  1  0.49426223  0.74946219  0.13291594  1
  O  O238  1  0.48713602  0.75923574  0.63288336  1
  O  O239  1  0.98954052  0.25502371  0.13322385  1
  O  O240  1  1.00618600  0.23780947  0.63548157  1
  O  O241  1  0.99337849  0.74293641  0.13036658  1
  O  O242  1  1.00375973  0.75119564  0.64758032  1
  O  O243  1  -0.01436711  0.26419929  0.35830823  1
  O  O244  1  -0.00289146  0.26250702  0.87036234  1
  O  O245  1  0.00368956  0.75815036  0.36992035  1
  O  O246  1  0.00197023  0.74900463  0.86056794  1
  O  O247  1  0.50656493  0.25863088  0.36574146  1
  O  O248  1  0.50170339  0.23846816  0.86261302  1
  O  O249  1  0.50433831  0.75703211  0.36728884  1
  O  O250  1  0.49983579  0.76014366  0.86503004  1
  O  O251  1  0.24665354  0.11471479  0.49070675  1
  O  O252  1  0.24450273  0.12690669  0.98540033  1
  O  O253  1  0.23410577  0.63141017  0.48650786  1
  O  O254  1  0.24333003  0.63065201  0.99181860  1
  O  O255  1  0.72453667  0.10922222  0.49176142  1
  O  O256  1  0.74356639  0.12556745  0.99255989  1
  O  O257  1  0.74074598  0.63646451  0.49477939  1
  O  O258  1  0.74395690  0.63053541  0.99376072  1
  O  O259  1  0.24241537  0.38275601  0.01592015  1
  O  O260  1  0.24146335  0.38241777  0.52075594  1
  O  O261  1  0.24794226  0.86128409  -0.00602757  1
  O  O262  1  0.25198154  0.87681298  0.51001998  1
  O  O263  1  0.75589232  0.37298829  0.00531423  1
  O  O264  1  0.74607970  0.37594862  0.51255466  1
  O  O265  1  0.75742286  0.86925343  0.00435663  1
  O  O266  1  0.74691501  0.86399105  0.49402089  1
  O  O267  1  0.13238608  0.49425271  0.24496880  1
  O  O268  1  0.13445201  0.49211996  0.75930864  1
  O  O269  1  0.13376351  0.99134551  0.25014376  1
  O  O270  1  0.13498494  0.98812418  0.75833275  1
  O  O271  1  0.63263932  0.49527141  0.24400033  1
  O  O272  1  0.63208362  0.48970460  0.74462541  1
  O  O273  1  0.63314537  0.99734374  0.24233579  1
  O  O274  1  0.62797363  0.98869663  0.74429151  1
  O  O275  1  0.36833583  0.00492249  0.25733418  1
  O  O276  1  0.37036330  0.01045087  0.75830937  1
  O  O277  1  0.36327340  0.50281898  0.25437550  1
  O  O278  1  0.36242600  0.50470422  0.76114683  1
  O  O279  1  0.86471632  0.00721556  0.23316247  1
  O  O280  1  0.87703844  0.01129031  0.76113304  1
  O  O281  1  0.86876182  0.50515326  0.25633348  1
  O  O282  1  0.86411673  0.50364258  0.75442551  1
  O  O283  1  0.11467114  0.38539129  0.36152991  1
  O  O284  1  0.11311628  0.38200689  0.86884904  1
  O  O285  1  0.11551394  0.86701922  0.36695271  1
  O  O286  1  0.13530313  0.87196168  0.86156985  1
  O  O287  1  0.61980374  0.36340462  0.37113527  1
  O  O288  1  0.63034767  0.37611435  0.85890194  1
  O  O289  1  0.61936665  0.87141207  0.36843698  1
  O  O290  1  0.61746175  0.87631061  0.86223300  1
  O  O291  1  0.37977059  0.12431840  0.13580369  1
  O  O292  1  0.38429408  0.12244658  0.63860775  1
  O  O293  1  0.37809818  0.63819804  0.12944958  1
  O  O294  1  0.37085586  0.63687386  0.62385433  1
  O  O295  1  0.87688477  0.13515749  0.12406937  1
  O  O296  1  0.89475550  0.12251755  0.64524097  1
  O  O297  1  0.87880436  0.62846477  0.12856293  1
  O  O298  1  0.86640188  0.61891964  0.63688636  1
  O  O299  1  0.24860019  0.27064763  0.13030164  1
  O  O300  1  0.25601795  0.26886596  0.63625662  1
  O  O301  1  0.25670744  0.74738966  0.11135417  1
  O  O302  1  0.26007536  0.76028238  0.62588255  1
  O  O303  1  0.76080107  0.25721594  0.12519112  1
  O  O304  1  0.74271151  0.25684162  0.62014900  1
  O  O305  1  0.75553701  0.75514730  0.11982614  1
  O  O306  1  0.74411018  0.74967287  0.60922403  1
  O  O307  1  0.24360665  0.26096196  0.37064858  1
  O  O308  1  0.25587541  0.23707032  0.86551429  1
  O  O309  1  0.24023775  0.74399283  0.37325622  1
  O  O310  1  0.25358007  0.74216149  0.88634443  1
  O  O311  1  0.74214333  0.23362911  0.36738691  1
  O  O312  1  0.75685688  0.23452721  0.87543869  1
  O  O313  1  0.74344865  0.74405695  0.38136203  1
  O  O314  1  0.74927271  0.74176736  0.87892819  1
  O  O315  1  0.01712160  0.12521321  -0.00353942  1
  O  O316  1  0.00313528  0.11536013  0.52222656  1
  O  O317  1  0.00411730  0.62124414  0.00423190  1
  O  O318  1  0.01059554  0.62690661  0.49730395  1
  O  O319  1  0.51027782  0.11502324  0.00712796  1
  O  O320  1  0.50271242  0.11716330  0.50739287  1
  O  O321  1  0.51484610  0.63395376  -0.00331400  1
  O  O322  1  0.51389643  0.63389553  0.49747832  1
  O  O323  1  0.50714999  0.36927409  0.48833657  1
  O  O324  1  0.51756433  0.39455010  1.00668464  1
  O  O325  1  0.49371356  0.88205105  0.49646560  1
  O  O326  1  0.50903095  0.87637588  0.98449738  1
  O  O327  1  1.01151117  0.37509716  0.48586970  1
  O  O328  1  0.99633677  0.38116600  0.99496686  1
  O  O329  1  0.99439930  0.88136239  0.49125802  1
  O  O330  1  0.98682753  0.87051128  1.00125588  1
  O  O331  1  0.50449846  0.48343275  0.37258640  1
  O  O332  1  0.48194009  0.50799056  0.86505498  1
  O  O333  1  0.49048523  0.99403686  0.38278019  1
  O  O334  1  0.49121205  0.99343899  0.87514972  1
  O  O335  1  0.98949472  0.49122714  0.37182250  1
  O  O336  1  0.99376468  0.49247601  0.88068064  1
  O  O337  1  0.99326554  0.98334944  0.37438391  1
  O  O338  1  0.98633744  1.00564256  0.87773901  1
  O  O339  1  0.00935242  0.00243831  0.11762975  1
  O  O340  1  0.00544055  0.00367083  0.62267734  1
  O  O341  1  0.00414811  0.50506797  0.12011946  1
  O  O342  1  0.00748605  0.49392941  0.63471577  1
  O  O343  1  0.51083666  0.00271107  0.12704302  1
  O  O344  1  0.49585342  0.00773356  0.61530380  1
  O  O345  1  0.51344336  0.50586272  0.13955257  1
  O  O346  1  0.51308818  0.49722579  0.63661173  1
  O  O347  1  0.24373129  0.38679577  0.24352680  1
  O  O348  1  0.24042169  0.38457356  0.74930045  1
  O  O349  1  0.23950583  0.88344550  0.25594645  1
  O  O350  1  0.24818117  0.88323175  0.74705756  1
  O  O351  1  0.74525980  0.37827300  0.24701231  1
  O  O352  1  0.74024204  0.37805386  0.74460251  1
  O  O353  1  0.74609654  0.88462479  0.24579995  1
  O  O354  1  0.73531097  0.87485401  0.75326398  1
  O  O355  1  0.25998822  0.11517081  0.25831578  1
  O  O356  1  0.25689176  0.12054977  0.75635718  1
  O  O357  1  0.24577766  0.61815101  0.25660083  1
  O  O358  1  0.24565600  0.62053719  0.75894803  1
  O  O359  1  0.76164344  0.11826975  0.24468333  1
  O  O360  1  0.76025355  0.12550492  0.75608272  1
  O  O361  1  0.75385132  0.61989756  0.25553685  1
  O  O362  1  0.75387148  0.61572982  0.75350686  1
  O  O363  1  0.38570412  0.11300205  0.36380548  1
  O  O364  1  0.36732725  0.11844223  0.86652239  1
  O  O365  1  0.36007243  0.62790929  0.37030454  1
  O  O366  1  0.36374991  0.61921899  0.87146320  1
  O  O367  1  0.88680482  0.12199556  0.34493742  1
  O  O368  1  0.86965915  0.11858988  0.87082192  1
  O  O369  1  0.86938108  0.61661443  0.36726580  1
  O  O370  1  0.86753597  0.61545188  0.86695032  1
  O  O371  1  0.13250819  0.38326317  0.13608739  1
  O  O372  1  0.13492757  0.37269753  0.63930991  1
  O  O373  1  0.11889596  0.87164254  0.14209556  1
  O  O374  1  0.14114258  0.87240570  0.64478857  1
  O  O375  1  0.63241500  0.38193462  0.13268261  1
  O  O376  1  0.63528285  0.38184983  0.63296280  1
  O  O377  1  0.63081651  0.88209996  0.12919845  1
  O  O378  1  0.61951732  0.87909099  0.63727756  1
  O  O379  1  0.11248513  0.26103281  0.24675293  1
  O  O380  1  0.11310770  0.26246561  0.75267522  1
  O  O381  1  0.11899139  0.75582335  0.25754096  1
  O  O382  1  0.11634884  0.75912107  0.75623205  1
  O  O383  1  0.61827709  0.25082167  0.25861518  1
  O  O384  1  0.62107642  0.25959484  0.74686095  1
  O  O385  1  0.61901885  0.75536314  0.25394652  1
  O  O386  1  0.61811578  0.76144657  0.74844625  1
  O  O387  1  0.38427997  0.24132450  0.24678926  1
  O  O388  1  0.38618338  0.24073149  0.74922292  1
  O  O389  1  0.38326926  0.75237924  0.24304657  1
  O  O390  1  0.38199034  0.74879054  0.74200104  1
  O  O391  1  0.88064046  0.24384827  0.23753855  1
  O  O392  1  0.89064793  0.24088184  0.75741329  1
  O  O393  1  0.87768540  0.74299466  0.24265305  1
  O  O394  1  0.88663431  0.73807415  0.75500498  1
  O  O395  1  0.37105387  0.51213036  0.50205291  1
  O  O396  1  0.37337168  0.50638781  0.98605858  1
  O  O397  1  0.38217839  0.99622035  0.49424680  1
  O  O398  1  0.37318177  1.00733481  0.98561445  1
  O  O399  1  0.87867510  0.50892203  0.48767043  1
  O  O400  1  0.87927552  0.49504632  0.99518278  1
  O  O401  1  0.89281542  1.00428429  0.50802649  1
  O  O402  1  0.87627267  0.98981123  0.99381228  1
  O  O403  1  0.12813569  0.00977992  -0.00166595  1
  O  O404  1  0.10087549  0.00145787  0.49216413  1
  O  O405  1  0.11799638  0.50670671  0.00552718  1
  O  O406  1  0.12011735  0.51827863  0.49351925  1
  O  O407  1  0.62977028  0.00463527  0.01226508  1
  O  O408  1  0.60977239  0.00404285  0.49654531  1
  O  O409  1  0.63413897  0.51241561  0.01183205  1
  O  O410  1  0.63014994  0.51105438  0.51012551  1
  O  O411  1  0.36197326  0.37850479  0.12234777  1
  O  O412  1  0.36172069  0.37846014  0.63594594  1
  O  O413  1  0.37995061  0.86377955  0.12541262  1
  O  O414  1  0.36643770  0.86874814  0.62158708  1
  O  O415  1  0.87086879  0.37023998  0.12024098  1
  O  O416  1  0.85423177  0.36993275  0.63273725  1
  O  O417  1  0.87063127  0.86763577  0.11531383  1
  O  O418  1  0.87690319  0.87022189  0.63596314  1
  O  O419  1  0.08887204  0.13497695  0.37726013  1
  O  O420  1  0.14136678  0.12526845  0.87826181  1
  O  O421  1  0.13009579  0.63367460  0.37420837  1
  O  O422  1  0.13445166  0.62646452  0.88158933  1
  O  O423  1  0.61152008  0.13419385  0.38142051  1
  O  O424  1  0.63556071  0.11235322  0.88537164  1
  O  O425  1  0.63031394  0.62934126  0.38338365  1
  O  O426  1  0.63308177  0.62480056  0.88186376  1
