# generated using pymatgen
data_V85Zn86O256
_symmetry_space_group_name_H-M   'P 1'
_cell_length_a   16.95301796
_cell_length_b   16.95857503
_cell_length_c   16.95209881
_cell_angle_alpha   89.91362798
_cell_angle_beta   90.14469246
_cell_angle_gamma   89.97156287
_symmetry_Int_Tables_number   1
_chemical_formula_structural   V85Zn86O256
_chemical_formula_sum   'V85 Zn86 O256'
_cell_volume   4873.69022672
_cell_formula_units_Z   1
loop_
 _symmetry_equiv_pos_site_id
 _symmetry_equiv_pos_as_xyz
  1  'x, y, z'
loop_
 _atom_site_type_symbol
 _atom_site_label
 _atom_site_symmetry_multiplicity
 _atom_site_fract_x
 _atom_site_fract_y
 _atom_site_fract_z
 _atom_site_occupancy
  V  V0  1  0.62702791  0.62270782  -0.00027482  1
  V  V1  1  0.74993665  -0.00125817  0.75125108  1
  V  V2  1  0.12160400  0.49900057  0.11243235  1
  V  V3  1  0.12448419  0.63171057  0.49172565  1
  V  V4  1  0.62581145  0.50096430  0.62509774  1
  V  V5  1  0.37659370  0.12680564  0.24690216  1
  V  V6  1  0.37684649  0.87674609  0.49687596  1
  V  V7  1  0.87286216  0.24970484  0.62517258  1
  V  V8  1  0.62616125  0.74404112  0.38293562  1
  V  V9  1  0.74941213  0.00046454  0.25553458  1
  V  V10  1  0.87592479  0.74440844  0.13532454  1
  V  V11  1  0.50828347  0.25032731  0.25279652  1
  V  V12  1  -0.00066648  0.12494606  0.62425073  1
  V  V13  1  0.50084052  0.49212670  -0.00521245  1
  V  V14  1  0.37224219  0.37075204  -0.00292159  1
  V  V15  1  0.24042976  0.00197193  0.23967443  1
  V  V16  1  0.74664272  0.14134808  0.38344297  1
  V  V17  1  -0.00085958  0.25095433  0.75171673  1
  V  V18  1  0.25248610  0.37718635  0.62287400  1
  V  V19  1  0.24845654  0.75156393  0.48747551  1
  V  V20  1  0.75663724  0.23811319  0.00337783  1
  V  V21  1  0.75290621  0.87455013  0.12821540  1
  V  V22  1  -0.00048659  0.37379407  0.37378300  1
  V  V23  1  0.49701177  0.62707591  0.12411653  1
  V  V24  1  0.25552374  0.12786003  0.87954712  1
  V  V25  1  0.37363608  0.24882682  0.63009921  1
  V  V26  1  0.87399486  0.62642397  0.76180919  1
  V  V27  1  0.49705236  0.49573310  0.50027758  1
  V  V28  1  0.75464518  0.86885216  0.62509825  1
  V  V29  1  0.62524958  0.24233721  0.88077585  1
  V  V30  1  0.62110148  0.37442594  0.75718640  1
  V  V31  1  0.37379777  0.49384947  0.37753787  1
  V  V32  1  0.12450038  0.25058453  0.37448070  1
  V  V33  1  0.62742567  0.14046280  0.49888744  1
  V  V34  1  0.25549258  0.25486635  0.49975023  1
  V  V35  1  0.25005910  0.36967151  0.11830302  1
  V  V36  1  -0.00150489  0.62154562  0.12553542  1
  V  V37  1  0.49094201  -0.00586726  -0.00104437  1
  V  V38  1  0.50515972  0.62501880  0.61803298  1
  V  V39  1  0.62439871  0.49514636  0.12783071  1
  V  V40  1  0.75138428  0.74804943  0.00214282  1
  V  V41  1  0.24782465  0.49771333  0.24724307  1
  V  V42  1  0.62557738  0.00017550  0.62512571  1
  V  V43  1  0.50069036  0.00205981  0.49913959  1
  V  V44  1  0.12691565  0.25118791  0.88508090  1
  V  V45  1  0.00841814  0.74712545  0.25492453  1
  V  V46  1  0.87510604  0.12437767  0.75173391  1
  V  V47  1  0.25027626  0.12692520  0.37418229  1
  V  V48  1  0.50472701  0.37153026  0.37610781  1
  V  V49  1  0.00460399  0.87509125  0.37765510  1
  V  V50  1  0.37556695  0.62659069  0.24722934  1
  V  V51  1  0.25603522  0.00692100  0.74938321  1
  V  V52  1  0.12108930  0.00140200  0.62440028  1
  V  V53  1  0.87098429  0.37137767  0.50094993  1
  V  V54  1  0.37633714  0.75017793  0.61947671  1
  V  V55  1  -0.00983653  0.63567559  0.62053205  1
  V  V56  1  0.12000873  0.12228774  0.50080098  1
  V  V57  1  0.74785808  0.36835338  0.62414657  1
  V  V58  1  0.10981587  0.10948076  0.00663788  1
  V  V59  1  0.88415733  -0.00233223  0.87621108  1
  V  V60  1  0.12507019  0.37763164  0.74895847  1
  V  V61  1  0.75686221  0.37136665  0.12344762  1
  V  V62  1  0.50102505  0.75037444  0.24952826  1
  V  V63  1  0.37730260  0.00189122  0.37422892  1
  V  V64  1  -0.00308793  0.38738220  0.87622145  1
  V  V65  1  0.75282757  0.62311805  0.38180011  1
  V  V66  1  0.87549542  0.38772267  -0.00848972  1
  V  V67  1  -0.00399022  0.24765547  0.23966914  1
  V  V68  1  0.62613697  0.75115638  0.87564647  1
  V  V69  1  0.00569283  0.86558234  0.87558317  1
  V  V70  1  0.87749152  0.00227154  0.38507586  1
  V  V71  1  0.12757194  0.64320870  -0.00484861  1
  V  V72  1  0.75605593  0.50547157  0.24921047  1
  V  V73  1  0.87492694  0.13284912  0.24471405  1
  V  V74  1  0.25339188  0.85931053  0.11760915  1
  V  V75  1  0.37603322  0.49798431  0.87228943  1
  V  V76  1  0.87581465  0.86936059  0.50376700  1
  V  V77  1  0.00117845  0.49979062  0.50061416  1
  V  V78  1  0.49790885  0.25031175  0.75570469  1
  V  V79  1  0.50676739  0.12618350  0.11929080  1
  V  V80  1  0.63133995  0.00260503  0.11573057  1
  V  V81  1  0.37297321  0.62412116  0.74706018  1
  V  V82  1  0.49604030  0.12467528  0.62989209  1
  V  V83  1  0.88464126  0.87510296  0.00213479  1
  V  V84  1  0.12612044  0.86911016  0.75186396  1
  Zn  Zn85  1  0.50232231  0.75288571  0.74933145  1
  Zn  Zn86  1  0.24493420  0.62753435  0.36899399  1
  Zn  Zn87  1  0.62234975  0.87484712  0.75287444  1
  Zn  Zn88  1  0.31917652  0.79993092  -0.03661258  1
  Zn  Zn89  1  0.74900281  0.73793744  0.51205846  1
  Zn  Zn90  1  0.87854493  0.50564710  0.36891156  1
  Zn  Zn91  1  0.12472070  0.87555532  0.24950412  1
  Zn  Zn92  1  0.24906641  0.50241535  0.75069910  1
  Zn  Zn93  1  0.76579896  0.49155583  0.75915299  1
  Zn  Zn94  1  0.24916467  0.87810650  0.62174508  1
  Zn  Zn95  1  0.75553694  0.61543212  0.88120215  1
  Zn  Zn96  1  -0.00115025  0.75197769  0.74585832  1
  Zn  Zn97  1  0.37001193  -0.00890574  0.87627257  1
  Zn  Zn98  1  0.37430867  0.24929950  0.11797609  1
  Zn  Zn99  1  0.63103874  0.36873838  0.25747886  1
  Zn  Zn100  1  0.24635822  0.63897096  0.87818419  1
  Zn  Zn101  1  0.12307221  0.37271917  0.24531893  1
  Zn  Zn102  1  0.62559999  0.87473219  0.25180720  1
  Zn  Zn103  1  0.12737875  0.50481332  0.62473219  1
  Zn  Zn104  1  0.50516205  0.87598996  0.37396913  1
  Zn  Zn105  1  0.74940935  0.11649553  0.88664424  1
  Zn  Zn106  1  0.48906028  0.86727481  0.87747761  1
  Zn  Zn107  1  0.18212169  0.18792906  0.18401751  1
  Zn  Zn108  1  0.18651857  0.18913261  0.69170997  1
  Zn  Zn109  1  0.18465895  0.68606295  0.18448450  1
  Zn  Zn110  1  0.18775382  0.68808699  0.67654716  1
  Zn  Zn111  1  0.69157438  0.18486078  0.18801973  1
  Zn  Zn112  1  0.68519143  0.18556017  0.68953751  1
  Zn  Zn113  1  0.68584625  0.68559111  0.19125080  1
  Zn  Zn114  1  0.68921857  0.68549155  0.69321600  1
  Zn  Zn115  1  0.31585150  0.31290178  0.30894887  1
  Zn  Zn116  1  0.31170981  0.31143508  0.81244886  1
  Zn  Zn117  1  0.31711784  0.81718476  0.30657694  1
  Zn  Zn118  1  0.31128530  0.81476063  0.80195016  1
  Zn  Zn119  1  0.81268844  0.31731757  0.31288414  1
  Zn  Zn120  1  0.80867231  0.31044838  0.81529967  1
  Zn  Zn121  1  0.81470482  0.81135685  0.31768947  1
  Zn  Zn122  1  0.81537536  0.80647162  0.81226864  1
  Zn  Zn123  1  0.18517788  0.43929373  0.43632002  1
  Zn  Zn124  1  0.19131656  0.44394729  0.93258292  1
  Zn  Zn125  1  0.19018594  0.94040920  0.43460047  1
  Zn  Zn126  1  0.18490881  0.93959094  0.93971145  1
  Zn  Zn127  1  0.68510940  0.43988250  0.44049588  1
  Zn  Zn128  1  0.68860027  0.43421735  0.93663516  1
  Zn  Zn129  1  0.68620839  0.93732504  0.43965582  1
  Zn  Zn130  1  0.69183734  0.93373125  0.94009572  1
  Zn  Zn131  1  0.30882587  0.06685255  0.05992152  1
  Zn  Zn132  1  0.31078206  0.06496726  0.56230453  1
  Zn  Zn133  1  0.31163189  0.56647383  0.05874545  1
  Zn  Zn134  1  0.31159743  0.56380854  0.55893131  1
  Zn  Zn135  1  0.84852376  0.05002281  0.07764461  1
  Zn  Zn136  1  0.81018470  0.06138303  0.56265380  1
  Zn  Zn137  1  0.81371291  0.56165732  0.06418759  1
  Zn  Zn138  1  0.81161160  0.55464239  0.56458550  1
  Zn  Zn139  1  0.43628541  0.43577623  0.18760929  1
  Zn  Zn140  1  0.43731618  0.43465544  0.68705617  1
  Zn  Zn141  1  0.43552528  0.93722448  0.18338376  1
  Zn  Zn142  1  0.43865873  0.93511387  0.68924463  1
  Zn  Zn143  1  0.93688308  0.43537008  0.18404465  1
  Zn  Zn144  1  0.93958703  0.44134704  0.68648113  1
  Zn  Zn145  1  0.94451170  0.93758250  0.19149529  1
  Zn  Zn146  1  0.93943810  0.93712244  0.68808015  1
  Zn  Zn147  1  0.05784208  0.06403447  0.31352782  1
  Zn  Zn148  1  0.06683549  0.06207663  0.81464294  1
  Zn  Zn149  1  0.06124523  0.56187120  0.30813482  1
  Zn  Zn150  1  0.06192899  0.56718813  0.81115253  1
  Zn  Zn151  1  0.56677747  0.06617456  0.31370557  1
  Zn  Zn152  1  0.56340318  0.06301448  0.81522839  1
  Zn  Zn153  1  0.56650960  0.56127137  0.31435271  1
  Zn  Zn154  1  0.56283679  0.56443949  0.81122771  1
  Zn  Zn155  1  0.43852199  0.18883298  0.43920706  1
  Zn  Zn156  1  0.43906883  0.18412214  0.93712893  1
  Zn  Zn157  1  0.43764191  0.68324432  0.43367478  1
  Zn  Zn158  1  0.44093727  0.68261094  0.93517694  1
  Zn  Zn159  1  0.93559777  0.18907108  0.43562350  1
  Zn  Zn160  1  0.93624135  0.19313730  0.93752962  1
  Zn  Zn161  1  0.93247755  0.69131103  0.43514571  1
  Zn  Zn162  1  0.94326819  0.68749960  0.94281691  1
  Zn  Zn163  1  0.05938462  0.31529587  0.06010851  1
  Zn  Zn164  1  0.06365527  0.30987798  0.56256075  1
  Zn  Zn165  1  0.06838149  0.81995589  0.07146063  1
  Zn  Zn166  1  0.06452432  0.81618914  0.55842432  1
  Zn  Zn167  1  0.56535941  0.30978469  0.06209341  1
  Zn  Zn168  1  0.55746189  0.31682153  0.56536688  1
  Zn  Zn169  1  0.56312027  0.81341746  0.06376386  1
  Zn  Zn170  1  0.56615917  0.81576088  0.56169394  1
  O  O171  1  0.13073695  0.13165970  0.10354975  1
  O  O172  1  0.12038084  0.12213926  0.61953925  1
  O  O173  1  0.11888214  0.61789525  0.11602297  1
  O  O174  1  0.11392194  0.62341914  0.61155186  1
  O  O175  1  0.61683110  0.11478883  0.13244229  1
  O  O176  1  0.61718071  0.12039850  0.61867813  1
  O  O177  1  0.61868167  0.61295505  0.12147475  1
  O  O178  1  0.61580100  0.61439183  0.63473179  1
  O  O179  1  0.38582153  0.38681165  0.36706147  1
  O  O180  1  0.36655507  0.38766315  0.88141301  1
  O  O181  1  0.38053935  0.88374190  0.37949725  1
  O  O182  1  0.37335488  0.87532948  0.88049883  1
  O  O183  1  0.88343103  0.37678762  0.38481463  1
  O  O184  1  0.88039257  0.37329019  0.88280137  1
  O  O185  1  0.87945786  0.88378674  0.38306810  1
  O  O186  1  0.88426914  0.87728657  0.88100468  1
  O  O187  1  0.25784835  0.00894267  0.36609985  1
  O  O188  1  0.24759204  0.01084374  0.86693495  1
  O  O189  1  0.25636123  0.49810909  0.36544684  1
  O  O190  1  0.26245472  0.51338534  0.87157781  1
  O  O191  1  0.75631691  0.00484587  0.36947182  1
  O  O192  1  0.75716405  -0.00248233  0.86547268  1
  O  O193  1  0.74746299  0.50848421  0.36870155  1
  O  O194  1  0.73714408  0.50501247  0.86694484  1
  O  O195  1  0.24272648  0.49316984  0.13090819  1
  O  O196  1  0.24941528  0.48877327  0.62316333  1
  O  O197  1  0.25119952  1.00573324  0.13956018  1
  O  O198  1  0.23977561  1.00451649  0.63167205  1
  O  O199  1  0.74361009  0.49337944  0.13040730  1
  O  O200  1  0.74075673  0.48986071  0.63136342  1
  O  O201  1  0.74872292  0.99712093  0.13505691  1
  O  O202  1  0.74622746  0.99286448  0.63467552  1
  O  O203  1  -0.00272820  0.36835250  0.26039227  1
  O  O204  1  0.00646720  0.37181370  0.75451762  1
  O  O205  1  0.00099992  0.86742610  0.25824552  1
  O  O206  1  0.00770728  0.87240861  0.75564278  1
  O  O207  1  0.50219504  0.36660672  0.25530040  1
  O  O208  1  0.50928474  0.36106254  0.74210992  1
  O  O209  1  0.49906415  0.86188367  0.24843263  1
  O  O210  1  0.50449187  0.87219735  0.75696437  1
  O  O211  1  0.49435060  0.13021072  0.24331886  1
  O  O212  1  0.50719619  0.13359354  0.73722499  1
  O  O213  1  0.49533752  0.62783255  0.24360750  1
  O  O214  1  0.48987579  0.62581521  0.73576190  1
  O  O215  1  0.98350798  0.13269793  0.25700122  1
  O  O216  1  0.99527334  0.13092265  0.74560950  1
  O  O217  1  1.00411187  0.63306390  0.23832272  1
  O  O218  1  0.99601266  0.62669884  0.73421866  1
  O  O219  1  0.38339915  0.26626815  -0.00254464  1
  O  O220  1  0.36248652  0.24624711  0.50966668  1
  O  O221  1  0.38716203  0.73111584  0.01665439  1
  O  O222  1  0.37098962  0.75341179  0.50221989  1
  O  O223  1  0.85979634  0.26042723  -0.00466423  1
  O  O224  1  0.88252714  0.26437046  0.50819064  1
  O  O225  1  0.87117208  0.75644368  0.00877952  1
  O  O226  1  0.86475328  0.76415616  0.49466941  1
  O  O227  1  0.13428248  0.24213124  0.49588334  1
  O  O228  1  0.12453071  0.25498029  0.98640829  1
  O  O229  1  0.13723373  0.74412402  0.50343968  1
  O  O230  1  0.12301726  0.74174762  1.00403605  1
  O  O231  1  0.61835274  0.23943163  0.50703458  1
  O  O232  1  0.63760107  0.25714419  0.98969415  1
  O  O233  1  0.63020951  0.75304322  0.48820162  1
  O  O234  1  0.63107375  0.74354169  0.99709207  1
  O  O235  1  0.49971608  0.24214463  0.13190799  1
  O  O236  1  0.49150830  0.24429781  0.63173633  1
  O  O237  1  0.51291309  0.73488793  0.13581670  1
  O  O238  1  0.49363390  0.74125206  0.61867345  1
  O  O239  1  1.00038256  0.25967936  0.14115150  1
  O  O240  1  0.99397902  0.24558079  0.63205070  1
  O  O241  1  0.99384123  0.74460531  0.13499620  1
  O  O242  1  1.00178754  0.73760918  0.61945966  1
  O  O243  1  0.00502223  0.25895359  0.37096159  1
  O  O244  1  0.00804641  0.26179988  0.86865633  1
  O  O245  1  -0.00973912  0.76071856  0.36439134  1
  O  O246  1  -0.00087218  0.76233949  0.87122678  1
  O  O247  1  0.49132404  0.26007197  0.36611512  1
  O  O248  1  0.50780815  0.23987354  0.86375953  1
  O  O249  1  0.50916290  0.74651392  0.36712768  1
  O  O250  1  0.51332354  0.74813544  0.87373709  1
  O  O251  1  0.24195556  0.13566945  0.49491297  1
  O  O252  1  0.23717235  0.11838844  0.98385991  1
  O  O253  1  0.24198058  0.63258479  0.49563285  1
  O  O254  1  0.23147642  0.62316152  1.00295481  1
  O  O255  1  0.73979304  0.12249781  0.49546448  1
  O  O256  1  0.76183682  0.13697279  1.00751339  1
  O  O257  1  0.75113979  0.61990149  0.48801471  1
  O  O258  1  0.74415626  0.63037676  1.00283098  1
  O  O259  1  0.26016752  0.38435128  0.00756002  1
  O  O260  1  0.23948662  0.36442678  0.50938643  1
  O  O261  1  0.24622614  0.87610724  0.01297106  1
  O  O262  1  0.25681594  0.86882401  0.49940673  1
  O  O263  1  0.75972998  0.36944799  0.00477942  1
  O  O264  1  0.75995139  0.38361355  0.51088333  1
  O  O265  1  0.76049522  0.86651622  0.00853719  1
  O  O266  1  0.75719946  0.87705315  0.51116516  1
  O  O267  1  0.13596803  0.49892097  0.24226040  1
  O  O268  1  0.12648765  0.48964843  0.74705138  1
  O  O269  1  0.13897502  1.00818582  0.25397571  1
  O  O270  1  0.13222619  0.99393215  0.74112666  1
  O  O271  1  0.63257950  0.49580879  0.24028121  1
  O  O272  1  0.61421768  0.48788712  0.73848888  1
  O  O273  1  0.63698535  1.00075394  0.24386548  1
  O  O274  1  0.63501956  1.00004144  0.74594650  1
  O  O275  1  0.37014230  0.01323148  0.25340641  1
  O  O276  1  0.36021584  -0.00306233  0.74948138  1
  O  O277  1  0.36717576  0.50554352  0.25565611  1
  O  O278  1  0.37639100  0.50514663  0.75517713  1
  O  O279  1  0.86407891  0.01551283  0.26232732  1
  O  O280  1  0.86838972  0.00328058  0.75722284  1
  O  O281  1  0.86106252  0.49203590  0.25078721  1
  O  O282  1  0.87971192  0.51913061  0.74189571  1
  O  O283  1  0.11406249  0.37038531  0.37305743  1
  O  O284  1  0.12173051  0.37170109  0.86734301  1
  O  O285  1  0.10925763  0.88593657  0.37394647  1
  O  O286  1  0.11560840  0.88465598  0.86310601  1
  O  O287  1  0.61045201  0.38132647  0.37450231  1
  O  O288  1  0.62873802  0.36194911  0.86315022  1
  O  O289  1  0.62491099  0.86416375  0.37102077  1
  O  O290  1  0.62568636  0.86144545  0.87845883  1
  O  O291  1  0.38392035  0.12712783  0.13164080  1
  O  O292  1  0.38469674  0.13521265  0.62086585  1
  O  O293  1  0.38697943  0.61096594  0.13703269  1
  O  O294  1  0.38349373  0.63058900  0.62621216  1
  O  O295  1  0.85691070  0.14113793  0.14834928  1
  O  O296  1  0.87958489  0.12913857  0.62964603  1
  O  O297  1  0.88508721  0.63404111  0.11790425  1
  O  O298  1  0.88792895  0.62421406  0.62041631  1
  O  O299  1  0.25244166  0.26615866  0.13193524  1
  O  O300  1  0.25518482  0.25463527  0.62062465  1
  O  O301  1  0.25374593  0.75984856  0.13398038  1
  O  O302  1  0.26340451  0.75094789  0.61021308  1
  O  O303  1  0.73958076  0.25996695  0.11247146  1
  O  O304  1  0.75486246  0.26101377  0.63078215  1
  O  O305  1  0.75648766  0.75210167  0.12408946  1
  O  O306  1  0.74308027  0.76386474  0.62745466  1
  O  O307  1  0.24682674  0.24871679  0.38067782  1
  O  O308  1  0.24126245  0.23640301  0.86661378  1
  O  O309  1  0.25866621  0.74872661  0.38340672  1
  O  O310  1  0.25977140  0.74957091  0.87735432  1
  O  O311  1  0.75204914  0.24060564  0.37424627  1
  O  O312  1  0.74435218  0.24491971  0.88724473  1
  O  O313  1  0.74428347  0.73555486  0.37175999  1
  O  O314  1  0.74429432  0.74433992  0.88401703  1
  O  O315  1  0.01137789  0.13262587  -0.00534080  1
  O  O316  1  0.01303064  0.13380680  0.50561556  1
  O  O317  1  0.01211360  0.62969322  0.01532369  1
  O  O318  1  0.00239702  0.62143312  0.50347218  1
  O  O319  1  0.49795832  0.11682553  0.01311217  1
  O  O320  1  0.50614336  0.12205137  0.50913047  1
  O  O321  1  0.50774324  0.61012612  0.00939538  1
  O  O322  1  0.49651680  0.61288121  0.50935107  1
  O  O323  1  0.49851685  0.38567377  0.49299673  1
  O  O324  1  0.49167936  0.38664960  1.00868835  1
  O  O325  1  0.49453086  0.88432374  0.49867292  1
  O  O326  1  0.50380625  0.89102147  1.00233577  1
  O  O327  1  0.99603112  0.38131257  0.49408885  1
  O  O328  1  0.98257889  0.36989000  0.99246837  1
  O  O329  1  0.98924026  0.86923883  0.48986283  1
  O  O330  1  0.99106174  0.86773822  0.99415357  1
  O  O331  1  0.49459695  0.49474008  0.38096352  1
  O  O332  1  0.49227029  0.50393107  0.88529743  1
  O  O333  1  0.49494608  1.00211843  0.38001328  1
  O  O334  1  0.49936507  1.00571843  0.89175449  1
  O  O335  1  0.99909251  0.49187877  0.38095812  1
  O  O336  1  1.00499366  0.48591821  0.87124317  1
  O  O337  1  0.98541163  0.99152657  0.36755667  1
  O  O338  1  0.98892161  0.98884749  0.86668198  1
  O  O339  1  -0.05038675  0.01276301  0.11486510  1
  O  O340  1  0.01278966  0.00893735  0.63101423  1
  O  O341  1  0.01014240  0.50839460  0.13462897  1
  O  O342  1  0.00277817  0.50864242  0.61201974  1
  O  O343  1  0.50926976  0.00539221  0.11782155  1
  O  O344  1  0.50298434  0.00883065  0.62161475  1
  O  O345  1  0.50818444  0.50516282  0.12126683  1
  O  O346  1  0.50250398  0.50398094  0.61763714  1
  O  O347  1  0.25046230  0.38439826  0.24081111  1
  O  O348  1  0.24106190  0.37519915  0.74115136  1
  O  O349  1  0.24861972  0.89262742  0.25045994  1
  O  O350  1  0.24077277  0.88696301  0.74290057  1
  O  O351  1  0.74815313  0.37982062  0.24064227  1
  O  O352  1  0.74087596  0.37418002  0.74181153  1
  O  O353  1  0.75530148  0.88635439  0.24713064  1
  O  O354  1  0.75354986  0.88403782  0.74392701  1
  O  O355  1  0.25728101  0.12096376  0.25277115  1
  O  O356  1  0.23921000  0.11660219  0.76339260  1
  O  O357  1  0.25725185  0.61561363  0.24807696  1
  O  O358  1  0.26329991  0.62372947  0.74078338  1
  O  O359  1  0.75603368  0.12146136  0.26355589  1
  O  O360  1  0.75691879  0.11288555  0.74843794  1
  O  O361  1  0.74591020  0.61269869  0.25858896  1
  O  O362  1  0.76717401  0.62337492  0.75066089  1
  O  O363  1  0.37088786  0.12318308  0.36652617  1
  O  O364  1  0.35847639  0.12265969  0.88105350  1
  O  O365  1  0.37462804  0.61165510  0.36309763  1
  O  O366  1  0.38014172  0.61563768  0.85955597  1
  O  O367  1  0.86494674  0.11886329  0.37833841  1
  O  O368  1  0.87414023  0.11461956  0.87007401  1
  O  O369  1  0.85922763  0.62304661  0.37528762  1
  O  O370  1  0.88167288  0.62535568  0.86506306  1
  O  O371  1  0.13125588  0.38237960  0.12461571  1
  O  O372  1  0.13236445  0.37346310  0.63380527  1
  O  O373  1  0.14328768  0.87688986  0.13425427  1
  O  O374  1  0.12490508  0.88709468  0.62884147  1
  O  O375  1  0.63545235  0.38419478  0.12324790  1
  O  O376  1  0.63129212  0.37874764  0.63296989  1
  O  O377  1  0.63447565  0.88470519  0.12958762  1
  O  O378  1  0.63494622  0.88339544  0.62738486  1
  O  O379  1  0.11487469  0.24934577  0.25753601  1
  O  O380  1  0.11927860  0.26087549  0.75750578  1
  O  O381  1  0.11249061  0.75068107  0.25000626  1
  O  O382  1  0.12629920  0.76583949  0.73718931  1
  O  O383  1  0.61245789  0.24870075  0.24724260  1
  O  O384  1  0.61813161  0.25548069  0.75613964  1
  O  O385  1  0.61636807  0.74974454  0.25950474  1
  O  O386  1  0.62551634  0.75075518  0.76227299  1
  O  O387  1  0.38380464  0.23938945  0.24663090  1
  O  O388  1  0.38403505  0.25291317  0.74199799  1
  O  O389  1  0.38684338  0.73603787  0.25794762  1
  O  O390  1  0.37786320  0.74205620  0.73325014  1
  O  O391  1  0.88219666  0.23969370  0.26370034  1
  O  O392  1  0.87896476  0.24475289  0.74615170  1
  O  O393  1  0.88190948  0.75368592  0.23951695  1
  O  O394  1  0.88019924  0.73357694  0.74874314  1
  O  O395  1  0.38231452  0.50437774  0.48797135  1
  O  O396  1  0.38231693  0.49600056  0.99164226  1
  O  O397  1  0.37937688  0.99809553  0.49492703  1
  O  O398  1  0.38883432  1.00317210  1.00329050  1
  O  O399  1  0.88586400  0.48874235  0.49866493  1
  O  O400  1  0.86955344  0.48687751  0.99729264  1
  O  O401  1  0.87022937  0.99137876  0.49137550  1
  O  O402  1  0.86227417  0.98429205  0.98337950  1
  O  O403  1  0.11537119  0.00978373  -0.00331877  1
  O  O404  1  0.13476882  0.01354163  0.50978561  1
  O  O405  1  0.12492618  0.50104680  0.01054315  1
  O  O406  1  0.11501862  0.50836484  0.49978164  1
  O  O407  1  0.62304834  -0.00095673  0.01144737  1
  O  O408  1  0.61837870  0.00735841  0.50750610  1
  O  O409  1  0.61881893  0.50008514  0.00853790  1
  O  O410  1  0.61413112  0.49453389  0.51627529  1
  O  O411  1  0.36690287  0.37706702  0.11522696  1
  O  O412  1  0.36309207  0.36355157  0.62890141  1
  O  O413  1  0.35240199  0.88222212  0.13334950  1
  O  O414  1  0.37571109  0.86506085  0.61636376  1
  O  O415  1  0.86452547  0.37819665  0.11165591  1
  O  O416  1  0.86772315  0.37155416  0.62113348  1
  O  O417  1  0.87175083  0.86232273  0.11854550  1
  O  O418  1  0.86768397  0.88326230  0.61606508  1
  O  O419  1  0.12875506  0.12990732  0.38298079  1
  O  O420  1  0.12838202  0.13357333  0.88379084  1
  O  O421  1  0.12368659  0.62162311  0.38690271  1
  O  O422  1  0.12062278  0.62285009  0.89132991  1
  O  O423  1  0.63420279  0.12227531  0.38681143  1
  O  O424  1  0.63261333  0.13667870  0.87145736  1
  O  O425  1  0.63659314  0.63169304  0.37265370  1
  O  O426  1  0.62423341  0.63416991  0.88264230  1
