# generated using pymatgen
data_V85Zn86O256
_symmetry_space_group_name_H-M   'P 1'
_cell_length_a   16.96078693
_cell_length_b   16.96392944
_cell_length_c   16.95995677
_cell_angle_alpha   89.95242479
_cell_angle_beta   90.12303730
_cell_angle_gamma   90.02437214
_symmetry_Int_Tables_number   1
_chemical_formula_structural   V85Zn86O256
_chemical_formula_sum   'V85 Zn86 O256'
_cell_volume   4879.73240330
_cell_formula_units_Z   1
loop_
 _symmetry_equiv_pos_site_id
 _symmetry_equiv_pos_as_xyz
  1  'x, y, z'
loop_
 _atom_site_type_symbol
 _atom_site_label
 _atom_site_symmetry_multiplicity
 _atom_site_fract_x
 _atom_site_fract_y
 _atom_site_fract_z
 _atom_site_occupancy
  V  V0  1  0.49617849  0.87929002  0.39161023  1
  V  V1  1  -0.00717830  0.25273807  0.25278889  1
  V  V2  1  0.62712906  0.24882626  0.87451128  1
  V  V3  1  0.36778589  0.11991469  0.25245229  1
  V  V4  1  0.50025326  0.24841654  0.25095219  1
  V  V5  1  0.25002577  0.37560345  0.12934534  1
  V  V6  1  0.88275026  0.37418311  0.49879010  1
  V  V7  1  0.25485474  0.24095036  0.49713167  1
  V  V8  1  0.75635893  0.24876928  0.50204357  1
  V  V9  1  0.87700806  0.62630473  0.24987781  1
  V  V10  1  0.12490625  0.74359421  0.38250780  1
  V  V11  1  0.50110099  0.37421583  0.87555464  1
  V  V12  1  0.49977834  0.62925345  0.62897319  1
  V  V13  1  0.62446868  0.50005456  0.12589520  1
  V  V14  1  0.75456105  0.50474286  0.75132149  1
  V  V15  1  0.00160540  0.50050924  0.00137091  1
  V  V16  1  0.00276293  0.74957535  0.25048037  1
  V  V17  1  0.62670421  0.12432294  -0.00077753  1
  V  V18  1  0.00371920  0.50781868  0.50178831  1
  V  V19  1  0.12113570  0.37631448  0.26184532  1
  V  V20  1  0.75690760  0.37171530  0.62478257  1
  V  V21  1  0.12270724  0.00455876  0.12226283  1
  V  V22  1  0.74914232  0.74968538  0.49949501  1
  V  V23  1  0.37303187  0.87117917  0.00169069  1
  V  V24  1  0.62577706  0.62636571  0.00046697  1
  V  V25  1  0.49682316  0.38405589  0.38338978  1
  V  V26  1  0.75871582  0.24943547  0.00178124  1
  V  V27  1  0.87283019  0.88012861  0.49092008  1
  V  V28  1  0.12556766  0.36582223  0.75366854  1
  V  V29  1  0.37926230  0.63290215  0.75019186  1
  V  V30  1  0.61483310  0.87325655  0.24803487  1
  V  V31  1  0.37318449  0.00143721  0.38832643  1
  V  V32  1  0.75370441  0.10983118  0.37109748  1
  V  V33  1  0.00383625  0.36980542  0.87811890  1
  V  V34  1  0.49415203  0.12188184  0.62158352  1
  V  V35  1  0.49905860  0.49952382  0.00205690  1
  V  V36  1  0.75790986  0.36974674  0.12448634  1
  V  V37  1  0.37629698  0.49935303  0.87516521  1
  V  V38  1  0.00966915  0.62670836  0.12555181  1
  V  V39  1  0.25923253  0.61897571  0.38722024  1
  V  V40  1  0.74933655  0.62444813  0.37357252  1
  V  V41  1  0.25804717  0.36789457  0.62288567  1
  V  V42  1  -0.01177248  0.25242654  0.74728623  1
  V  V43  1  -0.00965067  0.13176529  0.12477910  1
  V  V44  1  -0.00406077  0.13097023  0.61988782  1
  V  V45  1  0.48986926  0.63973128  0.13753435  1
  V  V46  1  0.25078772  0.49869585  0.75045877  1
  V  V47  1  0.49802285  0.86992538  0.86802359  1
  V  V48  1  0.75043712  0.87593795  0.13144401  1
  V  V49  1  0.12579109  0.23391756  0.37981354  1
  V  V50  1  0.61548943  0.74860851  0.36943624  1
  V  V51  1  0.12544640  0.50188821  0.62119561  1
  V  V52  1  0.75432394  0.11191868  0.87163066  1
  V  V53  1  0.12551949  0.87557794  0.25221465  1
  V  V54  1  0.12150967  0.00501069  0.62052319  1
  V  V55  1  0.87027577  0.10659926  0.74835432  1
  V  V56  1  0.62697573  0.37350188  0.25062859  1
  V  V57  1  0.62425854  0.11645131  0.50112064  1
  V  V58  1  0.50014802  0.12417546  0.12482712  1
  V  V59  1  0.49647751  0.24939316  0.74404171  1
  V  V60  1  0.24141099  0.13120870  0.87522895  1
  V  V61  1  -0.00413722  0.87108432  0.86955834  1
  V  V62  1  0.24353221  0.75257647  -0.00619797  1
  V  V63  1  -0.00370461  0.00282569  0.49303294  1
  V  V64  1  0.62893966  0.00030045  0.13161585  1
  V  V65  1  0.74899485  0.88226303  0.62847955  1
  V  V66  1  0.62205947  0.74813626  0.86903685  1
  V  V67  1  0.61802356  0.62010024  0.49925342  1
  V  V68  1  -0.00547885  0.00163773  -0.00838660  1
  V  V69  1  0.37276744  0.24964864  0.12363173  1
  V  V70  1  0.37350429  0.00413274  0.87007538  1
  V  V71  1  0.49977179  -0.00025772  -0.00022261  1
  V  V72  1  0.25050643  0.87636435  0.12313941  1
  V  V73  1  0.62588228  0.24691209  0.37495892  1
  V  V74  1  0.62675820  0.37422855  0.74938978  1
  V  V75  1  0.88282673  0.49631966  0.37562901  1
  V  V76  1  0.87218424  0.87790613  -0.00508571  1
  V  V77  1  0.25654353  0.75747775  0.50541821  1
  V  V78  1  0.26324431  0.50347992  0.25851116  1
  V  V79  1  0.62835781  0.88081836  0.75151128  1
  V  V80  1  0.12097476  0.86898863  0.74623771  1
  V  V81  1  0.62163024  0.49904480  0.62078006  1
  V  V82  1  0.87284764  0.10913805  0.25411468  1
  V  V83  1  0.75191253  0.49866341  0.24978550  1
  V  V84  1  0.87953054  0.74579436  0.63010083  1
  Zn  Zn85  1  0.26009975  0.88407178  0.62215872  1
  Zn  Zn86  1  0.87584242  0.50240631  0.87730229  1
  Zn  Zn87  1  0.37019059  0.13049066  0.74460055  1
  Zn  Zn88  1  -0.00513776  0.87989257  0.37114325  1
  Zn  Zn89  1  0.12624005  0.62601022  -0.00489106  1
  Zn  Zn90  1  0.38575183  0.76000985  0.62491655  1
  Zn  Zn91  1  0.11655210  0.13408022  -0.00772250  1
  Zn  Zn92  1  0.37693041  0.38279574  0.49963403  1
  Zn  Zn93  1  0.24068572  0.25734285  -0.00753576  1
  Zn  Zn94  1  0.62607730  0.00119712  0.62842135  1
  Zn  Zn95  1  0.01197309  0.63374536  0.62961456  1
  Zn  Zn96  1  0.75113514  0.74996939  -0.00025234  1
  Zn  Zn97  1  0.37399751  0.37596132  0.00104129  1
  Zn  Zn98  1  0.75248523  0.62652514  0.87534310  1
  Zn  Zn99  1  0.88737744  0.63297859  0.76069305  1
  Zn  Zn100  1  0.24618502  0.00398988  0.74668724  1
  Zn  Zn101  1  0.87443003  0.75019067  0.12546955  1
  Zn  Zn102  1  0.87988236  0.37220521  0.00226968  1
  Zn  Zn103  1  0.11598242  0.74026083  0.86510596  1
  Zn  Zn104  1  0.12880818  0.50188905  0.12979630  1
  Zn  Zn105  1  0.24519182  0.00560031  0.25851632  1
  Zn  Zn106  1  0.25003692  0.62723946  0.87541411  1
  Zn  Zn107  1  0.18256238  0.19053463  0.18796039  1
  Zn  Zn108  1  0.18483516  0.18668789  0.68525277  1
  Zn  Zn109  1  0.22758162  0.70740410  0.20739992  1
  Zn  Zn110  1  0.19003246  0.68524249  0.68790692  1
  Zn  Zn111  1  0.69235895  0.18619470  0.18840338  1
  Zn  Zn112  1  0.68779343  0.18633626  0.68743666  1
  Zn  Zn113  1  0.68579265  0.68822840  0.18541178  1
  Zn  Zn114  1  0.68852603  0.68999270  0.68820641  1
  Zn  Zn115  1  0.31183210  0.31019797  0.31483656  1
  Zn  Zn116  1  0.31529552  0.31301493  0.81094799  1
  Zn  Zn117  1  0.31820008  0.81286323  0.31852418  1
  Zn  Zn118  1  0.30752151  0.81811819  0.80921350  1
  Zn  Zn119  1  0.81300647  0.30970374  0.31545961  1
  Zn  Zn120  1  0.81470651  0.31383766  0.81683097  1
  Zn  Zn121  1  0.80785093  0.81271709  0.30888371  1
  Zn  Zn122  1  0.80926292  0.81409439  0.81464045  1
  Zn  Zn123  1  0.18804412  0.43256705  0.43975462  1
  Zn  Zn124  1  0.18550354  0.43867498  0.93972072  1
  Zn  Zn125  1  0.18656846  0.93852413  0.43922095  1
  Zn  Zn126  1  0.18270219  0.94215687  0.93276619  1
  Zn  Zn127  1  0.68962895  0.43579111  0.43615882  1
  Zn  Zn128  1  0.68764923  0.43754399  0.93823544  1
  Zn  Zn129  1  0.68431062  0.93409209  0.43678873  1
  Zn  Zn130  1  0.68534721  0.93519276  0.94100299  1
  Zn  Zn131  1  0.31131137  0.06229228  0.05798428  1
  Zn  Zn132  1  0.31041473  0.06265479  0.56233261  1
  Zn  Zn133  1  0.31254231  0.56491692  0.06475014  1
  Zn  Zn134  1  0.31703096  0.55934293  0.56251110  1
  Zn  Zn135  1  0.81246912  0.06188247  0.06335971  1
  Zn  Zn136  1  0.81517902  0.06467493  0.56170319  1
  Zn  Zn137  1  0.81590524  0.56113090  0.06447772  1
  Zn  Zn138  1  0.81069249  0.56082254  0.56162511  1
  Zn  Zn139  1  0.44104314  0.43841596  0.19119621  1
  Zn  Zn140  1  0.43797855  0.43982218  0.68481273  1
  Zn  Zn141  1  0.43634108  0.93627866  0.18981573  1
  Zn  Zn142  1  0.44034170  0.94079356  0.68555746  1
  Zn  Zn143  1  0.94072735  0.43884408  0.18807024  1
  Zn  Zn144  1  0.93999445  0.44106378  0.68797138  1
  Zn  Zn145  1  0.93958475  0.93745374  0.18258337  1
  Zn  Zn146  1  0.93844800  0.93394453  0.67979172  1
  Zn  Zn147  1  0.06030684  0.06500877  0.30943816  1
  Zn  Zn148  1  0.05874247  0.06016492  0.80548071  1
  Zn  Zn149  1  0.06855983  0.56356613  0.31305254  1
  Zn  Zn150  1  0.06260046  0.56072547  0.81112805  1
  Zn  Zn151  1  0.55865527  0.06094381  0.31398511  1
  Zn  Zn152  1  0.56243831  0.06285900  0.81175112  1
  Zn  Zn153  1  0.56016427  0.56149633  0.30996410  1
  Zn  Zn154  1  0.56361456  0.56027862  0.81126147  1
  Zn  Zn155  1  0.43515216  0.18859928  0.43968397  1
  Zn  Zn156  1  0.43607269  0.18886783  0.93663612  1
  Zn  Zn157  1  0.43572240  0.68528479  0.43727654  1
  Zn  Zn158  1  0.43672228  0.68613704  0.94126761  1
  Zn  Zn159  1  0.93750716  0.18708926  0.43163830  1
  Zn  Zn160  1  0.93706643  0.18656850  0.93012672  1
  Zn  Zn161  1  0.93853323  0.68756483  0.43870392  1
  Zn  Zn162  1  0.93543290  0.68929804  0.94018908  1
  Zn  Zn163  1  0.06658639  0.31190321  0.06657893  1
  Zn  Zn164  1  0.06807055  0.31250197  0.56331099  1
  Zn  Zn165  1  0.06270731  0.81275213  0.06001700  1
  Zn  Zn166  1  0.06176769  0.81733884  0.55867167  1
  Zn  Zn167  1  0.56563509  0.31191583  0.06236936  1
  Zn  Zn168  1  0.56701619  0.30723427  0.56237564  1
  Zn  Zn169  1  0.56141452  0.81166745  0.05881885  1
  Zn  Zn170  1  0.56549402  0.81085138  0.56496689  1
  O  O171  1  0.11295674  0.11553399  0.12914054  1
  O  O172  1  0.10863258  0.11504469  0.63272346  1
  O  O173  1  0.11305996  0.62557613  0.12622275  1
  O  O174  1  0.12989805  0.60586358  0.62894625  1
  O  O175  1  0.62184878  0.11793465  0.12151681  1
  O  O176  1  0.62243243  0.12263503  0.61670129  1
  O  O177  1  0.61798192  0.62017899  0.11778239  1
  O  O178  1  0.62116214  0.61924346  0.61859237  1
  O  O179  1  0.39515454  0.36798410  0.37116378  1
  O  O180  1  0.38303456  0.38116062  0.87672124  1
  O  O181  1  0.38913982  0.88322140  0.37359040  1
  O  O182  1  0.38030101  0.88326803  0.87892997  1
  O  O183  1  0.86826038  0.38778975  0.38451675  1
  O  O184  1  0.88922978  0.37954044  0.87858507  1
  O  O185  1  0.87225902  0.86941275  0.38668724  1
  O  O186  1  0.87980342  0.87365053  0.88450019  1
  O  O187  1  0.26816698  -0.01006361  0.37459484  1
  O  O188  1  0.25806881  0.01023197  0.87278002  1
  O  O189  1  0.24512153  0.50847611  0.37074894  1
  O  O190  1  0.25625825  0.49591571  0.86393008  1
  O  O191  1  0.74333601  0.01099943  0.37635083  1
  O  O192  1  0.74651887  0.01315329  0.88171780  1
  O  O193  1  0.75855892  0.50524563  0.37021806  1
  O  O194  1  0.74961571  0.49981615  0.86360550  1
  O  O195  1  0.25174918  0.49297946  0.13937131  1
  O  O196  1  0.24498829  0.48999142  0.63386624  1
  O  O197  1  0.23701390  0.99379872  0.11954456  1
  O  O198  1  0.23700254  1.00179299  0.62398350  1
  O  O199  1  0.74486072  0.49122861  0.13016243  1
  O  O200  1  0.74226238  0.49241043  0.63063833  1
  O  O201  1  0.73746771  0.99125048  0.11962705  1
  O  O202  1  0.74835304  0.98551109  0.61685589  1
  O  O203  1  0.00986398  0.36466066  0.24181628  1
  O  O204  1  0.00617728  0.37066800  0.75557109  1
  O  O205  1  0.00924256  0.87036461  0.24988836  1
  O  O206  1  0.00776785  0.88215113  0.75703817  1
  O  O207  1  0.50882540  0.36774680  0.25946776  1
  O  O208  1  0.50737479  0.36914186  0.75292584  1
  O  O209  1  0.51107811  0.87330849  0.25388722  1
  O  O210  1  0.50854424  0.87777064  0.76302749  1
  O  O211  1  0.49208452  0.12916019  0.24343158  1
  O  O212  1  0.50335147  0.13289478  0.73916442  1
  O  O213  1  0.50508264  0.62471297  0.23680265  1
  O  O214  1  0.49137108  0.61827034  0.74158738  1
  O  O215  1  0.99090627  0.13160437  0.24393788  1
  O  O216  1  0.98621013  0.13132683  0.74520055  1
  O  O217  1  0.99713217  0.62936095  0.24426079  1
  O  O218  1  0.99592518  0.61401724  0.73953988  1
  O  O219  1  0.37137470  0.25085301  0.01409926  1
  O  O220  1  0.35863298  0.25821792  0.49023401  1
  O  O221  1  0.36465263  0.76536034  -0.00774163  1
  O  O222  1  0.36045923  0.74558458  0.50303600  1
  O  O223  1  0.86226265  0.24997224  -0.00472299  1
  O  O224  1  0.86380171  0.25944303  0.48941246  1
  O  O225  1  0.87299290  0.76445325  0.00518366  1
  O  O226  1  0.86371191  0.75662755  0.50422850  1
  O  O227  1  0.12967067  0.25348518  0.48493227  1
  O  O228  1  0.12976859  0.24452655  1.00554941  1
  O  O229  1  0.13171422  0.75635506  0.48955618  1
  O  O230  1  0.13123586  0.75220511  0.99039522  1
  O  O231  1  0.63658400  0.24018530  0.49188209  1
  O  O232  1  0.63328807  0.24275323  0.99440380  1
  O  O233  1  0.63257096  0.74225097  0.49196011  1
  O  O234  1  0.62569748  0.74161501  0.99034720  1
  O  O235  1  0.49285372  0.24564292  0.13000661  1
  O  O236  1  0.51059336  0.23893928  0.63538077  1
  O  O237  1  0.50333590  0.73892983  0.12235532  1
  O  O238  1  0.50327832  0.73427703  0.62245167  1
  O  O239  1  1.00570233  0.23833048  0.13701342  1
  O  O240  1  1.00566959  0.24022344  0.63191228  1
  O  O241  1  0.99995648  0.74369727  0.13179316  1
  O  O242  1  0.98283026  0.75075367  0.61405043  1
  O  O243  1  0.01476427  0.24408313  0.36673383  1
  O  O244  1  -0.00172049  0.26050869  0.86455892  1
  O  O245  1  0.00874366  0.75075906  0.37013692  1
  O  O246  1  0.00007712  0.76633557  0.87888041  1
  O  O247  1  0.51277878  0.25007618  0.37052115  1
  O  O248  1  0.50763152  0.25346909  0.86814295  1
  O  O249  1  0.50777376  0.76117627  0.38180570  1
  O  O250  1  0.50770955  0.76079297  0.88248740  1
  O  O251  1  0.25183415  0.14171670  0.50376158  1
  O  O252  1  0.24761164  0.12506658  0.98424740  1
  O  O253  1  0.24892473  0.62882861  0.49115981  1
  O  O254  1  0.24921996  0.63901861  1.00137669  1
  O  O255  1  0.74647402  0.13157030  0.49308710  1
  O  O256  1  0.74749625  0.13102592  0.99348393  1
  O  O257  1  0.74137434  0.63281936  0.49480983  1
  O  O258  1  0.73639039  0.62328301  1.00234561  1
  O  O259  1  0.25252367  0.37730331  0.01496614  1
  O  O260  1  0.25133744  0.36757663  0.50935429  1
  O  O261  1  0.25433713  0.87440802  0.00108166  1
  O  O262  1  0.24846713  0.86137964  0.50210729  1
  O  O263  1  0.75038058  0.36702926  0.00732054  1
  O  O264  1  0.75705032  0.36828851  0.50575898  1
  O  O265  1  0.75688668  0.87603886  0.00919614  1
  O  O266  1  0.75200892  0.86691709  0.50468393  1
  O  O267  1  0.13069723  0.48944153  0.25051952  1
  O  O268  1  0.13499493  0.48770184  0.74281051  1
  O  O269  1  0.12341151  0.99401548  0.24138636  1
  O  O270  1  0.12151289  0.99203122  0.73651681  1
  O  O271  1  0.63393362  0.49346587  0.24624768  1
  O  O272  1  0.63424085  0.49422831  0.74093089  1
  O  O273  1  0.61845184  0.99211954  0.23839092  1
  O  O274  1  0.62453159  0.98513510  0.75201636  1
  O  O275  1  0.37315661  0.00743716  0.25518988  1
  O  O276  1  0.37405439  0.00466296  0.76166660  1
  O  O277  1  0.36187143  0.49334247  0.25479280  1
  O  O278  1  0.36791871  0.50545109  0.75431512  1
  O  O279  1  0.88331210  0.00974257  0.25197383  1
  O  O280  1  0.87720495  0.00816287  0.74756169  1
  O  O281  1  0.87259851  0.50431426  0.25854767  1
  O  O282  1  0.86211010  0.49952069  0.74882203  1
  O  O283  1  0.12664116  0.36787231  0.36476511  1
  O  O284  1  0.11624401  0.38034177  0.86486514  1
  O  O285  1  0.12515801  0.86947907  0.36422046  1
  O  O286  1  0.11512644  0.87873706  0.85995439  1
  O  O287  1  0.62187784  0.36403583  0.37191852  1
  O  O288  1  0.62054349  0.36927222  0.86935727  1
  O  O289  1  0.61428056  0.86944130  0.36909910  1
  O  O290  1  0.61834574  0.86862780  0.87153599  1
  O  O291  1  0.37951005  0.13017382  0.12994537  1
  O  O292  1  0.39057655  0.12263871  0.62416540  1
  O  O293  1  0.39191844  0.62253051  0.12116698  1
  O  O294  1  0.38497775  0.62668658  0.63348189  1
  O  O295  1  0.88362170  0.12067933  0.13461318  1
  O  O296  1  0.88088618  0.12318250  0.63862837  1
  O  O297  1  0.88538190  0.62663825  0.13262654  1
  O  O298  1  0.86696970  0.64235300  0.62148929  1
  O  O299  1  0.25943830  0.25965611  0.13176505  1
  O  O300  1  0.23765673  0.25709947  0.60963599  1
  O  O301  1  0.23490895  0.77081313  0.10757315  1
  O  O302  1  0.24570864  0.74725615  0.60962653  1
  O  O303  1  0.74274241  0.25849971  0.11409184  1
  O  O304  1  0.74322391  0.26020756  0.61314795  1
  O  O305  1  0.74959090  0.76221278  0.12205762  1
  O  O306  1  0.75344161  0.75858489  0.61436730  1
  O  O307  1  0.23765950  0.25456736  0.38455697  1
  O  O308  1  0.25796187  0.23529512  0.87406189  1
  O  O309  1  0.24456950  0.74125736  0.38840189  1
  O  O310  1  0.24488044  0.75221269  0.88322536  1
  O  O311  1  0.74014786  0.24423277  0.38228352  1
  O  O312  1  0.74539766  0.24335726  0.88246800  1
  O  O313  1  0.73975657  0.74578483  0.38265292  1
  O  O314  1  0.73685182  0.74839803  0.87917880  1
  O  O315  1  -0.00543429  0.11924612  0.00602355  1
  O  O316  1  -0.01375553  0.11804768  0.51093268  1
  O  O317  1  0.00133945  0.61849148  0.00860483  1
  O  O318  1  -0.00617397  0.61206261  0.50905338  1
  O  O319  1  0.50622900  0.12087588  0.00473481  1
  O  O320  1  0.51023498  0.13649813  0.51384799  1
  O  O321  1  0.50972083  0.61959263  0.00730617  1
  O  O322  1  0.51294094  0.62763029  0.50594180  1
  O  O323  1  0.50341874  0.36367656  0.48600029  1
  O  O324  1  0.49981889  0.38035122  0.99461600  1
  O  O325  1  0.50643555  0.87643713  0.49043647  1
  O  O326  1  0.49158898  0.87988088  0.99174898  1
  O  O327  1  0.98662482  0.38026308  0.50703993  1
  O  O328  1  1.00243532  0.38065364  0.99638355  1
  O  O329  1  0.98870565  0.88421132  0.49657957  1
  O  O330  1  0.99232144  0.88341296  0.99321881  1
  O  O331  1  0.51149006  0.48265991  0.37492583  1
  O  O332  1  0.49684799  0.49348084  0.88034368  1
  O  O333  1  0.49295937  0.98617215  0.37331719  1
  O  O334  1  0.49354611  0.99298242  0.88002112  1
  O  O335  1  0.98970866  0.50762441  0.38346552  1
  O  O336  1  1.00140253  0.48997154  0.88613508  1
  O  O337  1  1.00660508  1.00168618  0.38868166  1
  O  O338  1  1.00332666  0.99342367  0.88566872  1
  O  O339  1  0.00581316  0.00852052  0.11525778  1
  O  O340  1  0.00265177  0.00855130  0.61523671  1
  O  O341  1  0.00274586  0.50809536  0.11909298  1
  O  O342  1  0.01034171  0.49585776  0.61641557  1
  O  O343  1  0.50757172  0.00399675  0.11936677  1
  O  O344  1  0.50681638  0.01776387  0.63075762  1
  O  O345  1  0.50733955  0.50341643  0.12117427  1
  O  O346  1  0.51597529  0.50733985  0.62883695  1
  O  O347  1  0.24432531  0.38366662  0.24931916  1
  O  O348  1  0.24407658  0.37770185  0.74514914  1
  O  O349  1  0.23750748  0.88243368  0.23953142  1
  O  O350  1  0.23164464  0.88261015  0.74867800  1
  O  O351  1  0.74659249  0.37696161  0.24436027  1
  O  O352  1  0.74666175  0.37904877  0.74195519  1
  O  O353  1  0.73597742  0.87269765  0.24019671  1
  O  O354  1  0.74154929  0.86985368  0.73914055  1
  O  O355  1  0.26299864  0.12409837  0.24396576  1
  O  O356  1  0.25251781  0.12513988  0.75866295  1
  O  O357  1  0.24418680  0.60584295  0.25998552  1
  O  O358  1  0.25902536  0.61173569  0.74895751  1
  O  O359  1  0.76090436  0.12997929  0.25860933  1
  O  O360  1  0.76294938  0.12845732  0.75445964  1
  O  O361  1  0.75504074  0.61921254  0.25370299  1
  O  O362  1  0.75096951  0.61458506  0.74956030  1
  O  O363  1  0.38662159  0.11001185  0.36624531  1
  O  O364  1  0.36867085  0.11660847  0.87454548  1
  O  O365  1  0.35785985  0.62896061  0.37473461  1
  O  O366  1  0.37473358  0.61749658  0.86788892  1
  O  O367  1  0.86429337  0.12644305  0.36734345  1
  O  O368  1  0.86847004  0.12695989  0.85796422  1
  O  O369  1  0.86907243  0.61700131  0.37127787  1
  O  O370  1  0.86987459  0.62213962  0.87556465  1
  O  O371  1  0.13841794  0.37372078  0.13932222  1
  O  O372  1  0.13386002  0.38205654  0.63389633  1
  O  O373  1  0.12645000  0.88661142  0.13065233  1
  O  O374  1  0.11932897  0.88371203  0.63549660  1
  O  O375  1  0.63379588  0.37953054  0.13110303  1
  O  O376  1  0.63468783  0.38178618  0.62665872  1
  O  O377  1  0.62853091  0.88081645  0.12935433  1
  O  O378  1  0.63091222  0.87539087  0.63355579  1
  O  O379  1  0.11938491  0.25514611  0.26165380  1
  O  O380  1  0.11487176  0.26165432  0.74497858  1
  O  O381  1  0.12493117  0.75976697  0.25810338  1
  O  O382  1  0.12599445  0.76470225  0.74507611  1
  O  O383  1  0.62216461  0.25193690  0.25767152  1
  O  O384  1  0.62025163  0.25512614  0.75548485  1
  O  O385  1  0.62981861  0.75643582  0.26323358  1
  O  O386  1  0.62715234  0.75894107  0.76120497  1
  O  O387  1  0.37970721  0.24064999  0.24356348  1
  O  O388  1  0.39218878  0.24838538  0.75388258  1
  O  O389  1  0.33001419  0.74598856  0.23473907  1
  O  O390  1  0.36445439  0.73448548  0.75106297  1
  O  O391  1  0.88856958  0.24515494  0.25910672  1
  O  O392  1  0.88570617  0.25214690  0.74692896  1
  O  O393  1  0.88264984  0.74421717  0.25119919  1
  O  O394  1  0.86843763  0.75302210  0.73283876  1
  O  O395  1  0.38432813  0.49332010  0.50790411  1
  O  O396  1  0.38073705  0.49925246  0.99292011  1
  O  O397  1  0.37651547  1.00621080  0.48716667  1
  O  O398  1  0.37948093  0.99242496  0.98958167  1
  O  O399  1  0.88100251  0.49402416  0.49442407  1
  O  O400  1  0.88925810  0.49632747  1.00163558  1
  O  O401  1  0.88235312  0.98933595  0.50564601  1
  O  O402  1  0.88407907  0.98989430  1.00638448  1
  O  O403  1  0.11309545  0.00427713  0.00689215  1
  O  O404  1  0.11285351  -0.00907715  0.51167199  1
  O  O405  1  0.11514508  0.50230725  0.00750283  1
  O  O406  1  0.11325536  0.48866538  0.50776259  1
  O  O407  1  0.61878742  0.00464925  0.00946587  1
  O  O408  1  0.62657486  0.01360737  0.49921747  1
  O  O409  1  0.61971085  0.50732916  0.00465796  1
  O  O410  1  0.63690437  0.51021938  0.50869535  1
  O  O411  1  0.36831467  0.36561607  0.13001593  1
  O  O412  1  0.36120273  0.37329525  0.63062704  1
  O  O413  1  0.36320686  0.88840140  0.11184662  1
  O  O414  1  0.37014322  0.86914591  0.64144612  1
  O  O415  1  0.86118594  0.37870564  0.12583723  1
  O  O416  1  0.86300708  0.38241902  0.61527225  1
  O  O417  1  0.86516203  0.87560485  0.11949959  1
  O  O418  1  0.86680866  0.86479986  0.61481364  1
  O  O419  1  0.13053426  0.13486360  0.36963929  1
  O  O420  1  0.13828599  0.11840146  0.87024281  1
  O  O421  1  0.13630360  0.63748207  0.37057892  1
  O  O422  1  0.13171100  0.62513218  0.87537542  1
  O  O423  1  0.63009671  0.13041703  0.37913039  1
  O  O424  1  0.63361628  0.12885323  0.87885763  1
  O  O425  1  0.62710906  0.63055320  0.38068131  1
  O  O426  1  0.62240127  0.63173455  0.88273195  1
