# generated using pymatgen
data_V85Zn86O256
_symmetry_space_group_name_H-M   'P 1'
_cell_length_a   16.95589485
_cell_length_b   16.99506920
_cell_length_c   16.97267590
_cell_angle_alpha   90.07659033
_cell_angle_beta   90.01141968
_cell_angle_gamma   89.97327369
_symmetry_Int_Tables_number   1
_chemical_formula_structural   V85Zn86O256
_chemical_formula_sum   'V85 Zn86 O256'
_cell_volume   4890.95341444
_cell_formula_units_Z   1
loop_
 _symmetry_equiv_pos_site_id
 _symmetry_equiv_pos_as_xyz
  1  'x, y, z'
loop_
 _atom_site_type_symbol
 _atom_site_label
 _atom_site_symmetry_multiplicity
 _atom_site_fract_x
 _atom_site_fract_y
 _atom_site_fract_z
 _atom_site_occupancy
  V  V0  1  0.24616531  0.50017776  0.74824373  1
  V  V1  1  0.87336755  0.37458834  -0.00272169  1
  V  V2  1  0.75546034  0.62210099  0.37753322  1
  V  V3  1  0.24155409  0.87446398  0.12765315  1
  V  V4  1  0.12444890  0.62745326  -0.00350898  1
  V  V5  1  0.37409483  0.37415002  -0.00036736  1
  V  V6  1  0.74460273  0.37925499  0.62296883  1
  V  V7  1  0.24710398  0.24820749  0.50057284  1
  V  V8  1  0.12343702  0.37399089  0.24831003  1
  V  V9  1  0.00688543  0.75539328  0.24977155  1
  V  V10  1  -0.00024554  -0.00167221  -0.00580876  1
  V  V11  1  0.75003734  0.12040334  0.36914324  1
  V  V12  1  0.62060448  0.11240218  0.00247194  1
  V  V13  1  -0.00101780  0.49460645  -0.00306464  1
  V  V14  1  0.00829839  0.87791052  0.37122630  1
  V  V15  1  0.87586488  0.49476993  0.87450634  1
  V  V16  1  0.38433951  0.88510765  0.00023839  1
  V  V17  1  0.87256907  0.00054317  0.36790516  1
  V  V18  1  0.24146987  0.87776567  0.62849780  1
  V  V19  1  0.38493870  0.75575733  0.61906668  1
  V  V20  1  0.50038493  0.61730192  0.62746027  1
  V  V21  1  0.74221910  0.50065361  0.74708350  1
  V  V22  1  0.62658440  0.61766409  0.50794257  1
  V  V23  1  -0.00399761  0.38926823  0.37488279  1
  V  V24  1  0.13044133  0.24979782  0.87559137  1
  V  V25  1  0.00197690  0.00426901  0.50995002  1
  V  V26  1  0.38222155  0.62322282  0.24381582  1
  V  V27  1  0.37491381  0.24279735  0.12912712  1
  V  V28  1  0.75078103  0.24874611  0.49995437  1
  V  V29  1  0.24735669  -0.00344050  0.24999690  1
  V  V30  1  0.74463169  0.75039553  -0.00285555  1
  V  V31  1  0.37848204  0.63348606  0.74746016  1
  V  V32  1  0.24403863  0.37398093  0.62526383  1
  V  V33  1  0.62595329  0.74953198  0.37772563  1
  V  V34  1  -0.00168927  0.24886265  0.25218693  1
  V  V35  1  0.38177748  0.74951856  0.12344006  1
  V  V36  1  0.37555907  0.50004293  0.87453556  1
  V  V37  1  0.62263546  0.36839793  0.75015762  1
  V  V38  1  0.24993526  0.37184564  0.12237291  1
  V  V39  1  -0.00487865  0.25156493  0.76005141  1
  V  V40  1  0.88674285  0.74930379  0.62657038  1
  V  V41  1  0.87620352  0.87675585  0.50125800  1
  V  V42  1  0.24782919  0.63077274  0.87238751  1
  V  V43  1  0.49836165  0.12420810  0.63413132  1
  V  V44  1  0.37790946  0.49947242  0.38484487  1
  V  V45  1  0.50413476  0.37063292  0.87288577  1
  V  V46  1  0.86967832  -0.00028321  0.87061269  1
  V  V47  1  0.87737133  0.75044022  0.12628157  1
  V  V48  1  0.63089875  0.88071010  0.25441272  1
  V  V49  1  0.74733159  0.37622470  0.12551779  1
  V  V50  1  0.74434867  0.12686699  0.87148768  1
  V  V51  1  0.87863286  0.38561511  0.49548841  1
  V  V52  1  0.11908793  0.12430966  0.51095253  1
  V  V53  1  0.62978163  0.85743408  0.75613312  1
  V  V54  1  0.25273010  0.49955836  0.24631590  1
  V  V55  1  0.74105600  0.62804414  0.87739123  1
  V  V56  1  0.87294317  0.24997272  0.12263154  1
  V  V57  1  0.25084940  0.62701060  0.37507371  1
  V  V58  1  0.50134005  0.86219256  0.87005553  1
  V  V59  1  0.62260740  0.37449148  0.25268640  1
  V  V60  1  0.12842614  0.12564862  -0.00562791  1
  V  V61  1  0.00009050  0.12444619  0.12528073  1
  V  V62  1  0.87334131  0.12212028  0.74581680  1
  V  V63  1  0.49669131  0.24139723  0.25075308  1
  V  V64  1  0.50436604  0.50483108  0.00693912  1
  V  V65  1  0.38068702  0.01250566  0.86179054  1
  V  V66  1  0.49269455  -0.00688547  0.50246351  1
  V  V67  1  0.87905495  0.87457377  -0.00480478  1
  V  V68  1  0.24867027  0.75320235  -0.00285724  1
  V  V69  1  0.75097002  0.88334627  0.13000334  1
  V  V70  1  0.75419848  0.49952939  0.25267235  1
  V  V71  1  0.12598203  0.49829305  0.12107867  1
  V  V72  1  0.25419014  0.12374864  0.37031979  1
  V  V73  1  0.73835171  0.25160851  -0.00406256  1
  V  V74  1  0.75168871  0.75362502  0.50591684  1
  V  V75  1  0.62469903  0.12164955  0.50153225  1
  V  V76  1  0.50476900  0.74750456  0.24853847  1
  V  V77  1  0.11684442  0.37836755  0.75332431  1
  V  V78  1  0.88486610  0.24735209  0.62466842  1
  V  V79  1  0.87929996  0.62644800  0.74797512  1
  V  V80  1  0.25280519  0.75580140  0.49595582  1
  V  V81  1  0.87554406  0.62390204  0.25262243  1
  V  V82  1  0.37516803  -0.00599638  0.37589747  1
  V  V83  1  0.37537450  0.24663932  0.63544809  1
  V  V84  1  0.63162069  -0.00118333  0.63738445  1
  Zn  Zn85  1  0.25399571  0.24331176  -0.00411407  1
  Zn  Zn86  1  0.13152401  0.75739536  0.36877741  1
  Zn  Zn87  1  0.49764452  0.37144730  0.37875487  1
  Zn  Zn88  1  0.12144523  -0.00547790  0.12897159  1
  Zn  Zn89  1  0.12477184  0.24915457  0.37484450  1
  Zn  Zn90  1  0.49581329  0.86869993  0.38414517  1
  Zn  Zn91  1  0.01904249  0.60802011  0.62180482  1
  Zn  Zn92  1  0.00104805  0.62494316  0.12584979  1
  Zn  Zn93  1  0.61975168  0.24794380  0.37667434  1
  Zn  Zn94  1  0.37758248  0.37187983  0.50249828  1
  Zn  Zn95  1  0.11715086  0.87856551  0.77022755  1
  Zn  Zn96  1  0.75777951  0.88215650  0.64165793  1
  Zn  Zn97  1  0.49040473  0.11067265  0.12556606  1
  Zn  Zn98  1  0.61629991  -0.00312487  0.12890850  1
  Zn  Zn99  1  0.10342522  0.62265678  0.48422230  1
  Zn  Zn100  1  0.61490054  0.63715076  0.00527630  1
  Zn  Zn101  1  0.61867154  0.51339787  0.13323876  1
  Zn  Zn102  1  0.01305079  0.75190850  0.77170063  1
  Zn  Zn103  1  0.50982919  0.49274609  0.50382666  1
  Zn  Zn104  1  0.86722356  0.12016264  0.24494396  1
  Zn  Zn105  1  0.50053621  0.24027721  0.75828150  1
  Zn  Zn106  1  0.23726570  0.01806669  0.76283344  1
  Zn  Zn107  1  0.18789562  0.18422490  0.18735706  1
  Zn  Zn108  1  0.18027920  0.18903563  0.69110188  1
  Zn  Zn109  1  0.19063303  0.68741434  0.18300817  1
  Zn  Zn110  1  0.18310017  0.70071969  0.68342953  1
  Zn  Zn111  1  0.68223479  0.18957470  0.18485845  1
  Zn  Zn112  1  0.68928703  0.18831365  0.68615520  1
  Zn  Zn113  1  0.68857622  0.68973175  0.18412039  1
  Zn  Zn114  1  0.69026403  0.68556411  0.68675322  1
  Zn  Zn115  1  0.31361156  0.31226861  0.31238007  1
  Zn  Zn116  1  0.31128735  0.31219878  0.81346470  1
  Zn  Zn117  1  0.31610925  0.81558476  0.31007311  1
  Zn  Zn118  1  0.30894602  0.81908284  0.81036980  1
  Zn  Zn119  1  0.81375385  0.31025950  0.31372322  1
  Zn  Zn120  1  0.80733553  0.31070143  0.81236728  1
  Zn  Zn121  1  0.81466607  0.81202975  0.31584396  1
  Zn  Zn122  1  0.81661070  0.81023375  0.81374260  1
  Zn  Zn123  1  0.19010748  0.43412407  0.42990493  1
  Zn  Zn124  1  0.18741190  0.43617685  0.93388024  1
  Zn  Zn125  1  0.18921741  0.94281651  0.44466999  1
  Zn  Zn126  1  0.19615361  0.94770099  0.93756966  1
  Zn  Zn127  1  0.69149938  0.43626273  0.43454028  1
  Zn  Zn128  1  0.68570963  0.43882444  0.93456859  1
  Zn  Zn129  1  0.68595595  0.93841902  0.44040581  1
  Zn  Zn130  1  0.68944546  0.93503516  0.93520958  1
  Zn  Zn131  1  0.31169989  0.05866249  0.06146384  1
  Zn  Zn132  1  0.29197935  0.07902755  0.59668629  1
  Zn  Zn133  1  0.31447137  0.56239130  0.06075162  1
  Zn  Zn134  1  0.21871362  0.56066930  0.56737871  1
  Zn  Zn135  1  0.80980728  0.06386038  0.05870523  1
  Zn  Zn136  1  0.81413172  0.06025371  0.56073576  1
  Zn  Zn137  1  0.80760985  0.56334726  0.06550753  1
  Zn  Zn138  1  0.81803440  0.56427094  0.56408156  1
  Zn  Zn139  1  0.43668260  0.43142075  0.18871278  1
  Zn  Zn140  1  0.43192457  0.43803082  0.68660083  1
  Zn  Zn141  1  0.43592491  0.93726763  0.19472435  1
  Zn  Zn142  1  0.44356501  0.93668230  0.69098648  1
  Zn  Zn143  1  0.93729643  0.43717535  0.18462499  1
  Zn  Zn144  1  0.93017302  0.43432946  0.68780044  1
  Zn  Zn145  1  0.93926480  0.93602206  0.18486142  1
  Zn  Zn146  1  0.94578849  0.93262136  0.69235374  1
  Zn  Zn147  1  0.06689984  0.06208951  0.31753894  1
  Zn  Zn148  1  0.05801917  0.06277625  0.80768406  1
  Zn  Zn149  1  0.06531839  0.56509935  0.30695404  1
  Zn  Zn150  1  0.06059138  0.56497886  0.81206042  1
  Zn  Zn151  1  0.55991572  0.06098443  0.31546121  1
  Zn  Zn152  1  0.56027623  0.05243900  0.82072084  1
  Zn  Zn153  1  0.56468198  0.56237396  0.31822960  1
  Zn  Zn154  1  0.56028785  0.56069835  0.81416417  1
  Zn  Zn155  1  0.43447533  0.18411358  0.44162484  1
  Zn  Zn156  1  0.43972725  0.18889913  0.94199765  1
  Zn  Zn157  1  0.43912524  0.68268382  0.44003410  1
  Zn  Zn158  1  0.43472960  0.68821774  0.93518311  1
  Zn  Zn159  1  0.93620776  0.18957914  0.43669432  1
  Zn  Zn160  1  0.93502714  0.18635836  0.93571546  1
  Zn  Zn161  1  0.94044838  0.68895201  0.43865074  1
  Zn  Zn162  1  0.92872877  0.67805305  0.94115390  1
  Zn  Zn163  1  0.06109007  0.31148194  0.06069788  1
  Zn  Zn164  1  0.06032913  0.44042313  0.55682321  1
  Zn  Zn165  1  0.06314443  0.81324976  -0.06344150  1
  Zn  Zn166  1  0.06731750  0.80973922  0.55464386  1
  Zn  Zn167  1  0.55883534  0.31471376  0.06645204  1
  Zn  Zn168  1  0.56059497  0.31094274  0.56509170  1
  Zn  Zn169  1  0.56274056  0.81900953  0.06518641  1
  Zn  Zn170  1  0.56677516  0.81181264  0.56842151  1
  O  O171  1  0.11241839  0.12530846  0.11616379  1
  O  O172  1  0.11590003  0.13413107  0.60834254  1
  O  O173  1  0.12786343  0.61720114  0.11215210  1
  O  O174  1  0.13562026  0.62702906  0.61399797  1
  O  O175  1  0.63127461  0.11841202  0.11171870  1
  O  O176  1  0.62230650  0.11864529  0.61867656  1
  O  O177  1  0.63023145  0.62389630  0.11718943  1
  O  O178  1  0.61523359  0.63123242  0.61837551  1
  O  O179  1  0.37375506  0.38774385  0.37625773  1
  O  O180  1  0.38057695  0.38136538  0.87873008  1
  O  O181  1  0.37740381  0.88747744  0.37603829  1
  O  O182  1  0.38613810  0.87642190  0.88031765  1
  O  O183  1  0.88388298  0.36728375  0.38383619  1
  O  O184  1  0.86506351  0.38803407  0.87921484  1
  O  O185  1  0.88178840  0.88255372  0.38126780  1
  O  O186  1  0.86481629  0.88562413  0.88732939  1
  O  O187  1  0.25538559  0.00371541  0.37091470  1
  O  O188  1  0.27416141  -0.00079208  0.87397578  1
  O  O189  1  0.25999672  0.50763359  0.36494224  1
  O  O190  1  0.25626797  0.50909948  0.86945252  1
  O  O191  1  0.75991093  0.00968454  0.38464036  1
  O  O192  1  0.76127162  0.01216226  0.88257272  1
  O  O193  1  0.74863548  0.51121252  0.36474666  1
  O  O194  1  0.75639639  0.50716770  0.86859369  1
  O  O195  1  0.24672961  0.49287794  0.12673521  1
  O  O196  1  0.26156685  0.48701703  0.64034642  1
  O  O197  1  0.25235129  0.99187033  0.13383436  1
  O  O198  1  0.26529289  0.97058073  0.60136287  1
  O  O199  1  0.74753343  0.49337276  0.13647922  1
  O  O200  1  0.75906319  0.48950956  0.63585595  1
  O  O201  1  0.75147474  0.98568867  0.12166516  1
  O  O202  1  0.73740303  0.99507861  0.61573089  1
  O  O203  1  0.00172253  0.36659611  0.25269061  1
  O  O204  1  0.00814509  0.36537249  0.74640063  1
  O  O205  1  -0.00697949  0.86618372  0.25853460  1
  O  O206  1  0.00039796  0.86636878  0.75881945  1
  O  O207  1  0.50882007  0.36660606  0.25266605  1
  O  O208  1  0.50813616  0.38074499  0.75587877  1
  O  O209  1  0.50986926  0.86032848  0.25597151  1
  O  O210  1  0.51218256  0.87248771  0.76174800  1
  O  O211  1  0.51101502  0.13826165  0.24560869  1
  O  O212  1  0.51327679  0.12436237  0.73806592  1
  O  O213  1  0.49340010  0.63460013  0.25521157  1
  O  O214  1  0.48886442  0.61742312  0.74434563  1
  O  O215  1  1.00102585  0.13173582  0.24066988  1
  O  O216  1  0.98273099  0.13700190  0.75539822  1
  O  O217  1  0.99012892  0.63334350  0.24896375  1
  O  O218  1  0.98772819  0.62736973  0.74768663  1
  O  O219  1  0.37347110  0.25705129  0.00824205  1
  O  O220  1  0.36268822  0.24809785  0.51066887  1
  O  O221  1  0.36855052  0.75215676  0.00853531  1
  O  O222  1  0.37044204  0.74451405  0.51158592  1
  O  O223  1  0.86612456  0.25520957  0.00376430  1
  O  O224  1  0.86720713  0.25307171  0.50724645  1
  O  O225  1  0.86806817  0.75701867  0.00885500  1
  O  O226  1  0.86828548  0.75580468  0.50700009  1
  O  O227  1  0.13881380  0.23828418  0.49519251  1
  O  O228  1  0.12373175  0.24461081  0.99155607  1
  O  O229  1  0.13839308  0.74330113  0.48945414  1
  O  O230  1  0.14047666  0.73790919  1.00375931  1
  O  O231  1  0.63393226  0.23937842  0.50231279  1
  O  O232  1  0.63526263  0.24497517  1.00701982  1
  O  O233  1  0.63494287  0.74146590  0.49870457  1
  O  O234  1  0.64076392  0.75511782  1.00520579  1
  O  O235  1  0.49065442  0.24929342  0.13339048  1
  O  O236  1  0.49291231  0.24204967  0.62887547  1
  O  O237  1  0.49159524  0.75408728  0.13395262  1
  O  O238  1  0.49013455  0.74017849  0.61915324  1
  O  O239  1  0.99366051  0.24339161  0.13073753  1
  O  O240  1  0.98420971  0.25044610  0.63773461  1
  O  O241  1  0.98383095  0.74789000  0.13429445  1
  O  O242  1  0.98822868  0.74907700  0.61940322  1
  O  O243  1  -0.00017767  0.25373299  0.36132081  1
  O  O244  1  0.00370580  0.25129238  0.86621655  1
  O  O245  1  0.00018891  0.76078655  0.36627659  1
  O  O246  1  -0.00504384  0.74358815  0.88421051  1
  O  O247  1  0.49819366  0.24913381  0.36723068  1
  O  O248  1  0.49320287  0.26642640  0.87309147  1
  O  O249  1  0.50683076  0.74823076  0.36882507  1
  O  O250  1  0.49716799  0.76181506  0.87510028  1
  O  O251  1  0.23879134  0.12865609  0.49897951  1
  O  O252  1  0.23238640  0.12469135  1.00703850  1
  O  O253  1  0.25730548  0.63406979  0.48221922  1
  O  O254  1  0.24629251  0.63051428  0.99208170  1
  O  O255  1  0.74350476  0.13169725  0.49473320  1
  O  O256  1  0.74182167  0.13336441  0.99314740  1
  O  O257  1  0.74804466  0.63243650  0.49649558  1
  O  O258  1  0.75417120  0.63408149  0.99192989  1
  O  O259  1  0.25606143  0.37341558  0.00454082  1
  O  O260  1  0.24961301  0.36520346  0.50785099  1
  O  O261  1  0.26483763  0.86660706  0.00798991  1
  O  O262  1  0.24905653  0.85955337  0.49853309  1
  O  O263  1  0.75168400  0.36956178  0.00371344  1
  O  O264  1  0.75413660  0.36625632  0.50375019  1
  O  O265  1  0.75828030  0.86859174  0.00739679  1
  O  O266  1  0.75560811  0.86349819  0.49842993  1
  O  O267  1  0.13215003  0.49473857  0.24045111  1
  O  O268  1  0.13677331  0.49243577  0.76084344  1
  O  O269  1  0.13979597  1.00267225  0.24797729  1
  O  O270  1  0.12674604  0.99247714  0.75982488  1
  O  O271  1  0.63369441  0.49308282  0.25217926  1
  O  O272  1  0.63743896  0.49305336  0.75284324  1
  O  O273  1  0.62311593  0.98324493  0.25611714  1
  O  O274  1  0.62278822  0.99459945  0.74037074  1
  O  O275  1  0.36293283  -0.00119333  0.26318073  1
  O  O276  1  0.37743255  -0.00037960  0.75945208  1
  O  O277  1  0.37270429  0.50773290  0.25119856  1
  O  O278  1  0.36495051  0.50744373  0.75686973  1
  O  O279  1  0.87963929  0.00096140  0.26318612  1
  O  O280  1  0.88096891  0.00990742  0.75974522  1
  O  O281  1  0.86567809  0.51114295  0.24316610  1
  O  O282  1  0.86457730  0.50561812  0.75767224  1
  O  O283  1  0.11559020  0.37042429  0.36575973  1
  O  O284  1  0.12708742  0.36605368  0.86334404  1
  O  O285  1  0.11148424  0.87877237  0.37926682  1
  O  O286  1  0.14341042  0.86747202  0.88444293  1
  O  O287  1  0.62555002  0.37143549  0.36413487  1
  O  O288  1  0.61590139  0.38028151  0.86389166  1
  O  O289  1  0.62834038  0.86568881  0.36966888  1
  O  O290  1  0.61489209  0.87952743  0.86636363  1
  O  O291  1  0.37439878  0.13889806  0.11535421  1
  O  O292  1  0.39191771  0.13422118  0.61732250  1
  O  O293  1  0.36956807  0.63535644  0.13430176  1
  O  O294  1  0.38458137  0.63752551  0.63456083  1
  O  O295  1  0.88290413  0.12895134  0.12446271  1
  O  O296  1  0.86173823  0.13433773  0.63610351  1
  O  O297  1  0.87123438  0.63381872  0.13559162  1
  O  O298  1  0.87055785  0.63371686  0.63697238  1
  O  O299  1  0.25747424  0.25482499  0.12488025  1
  O  O300  1  0.25516087  0.25707350  0.62008621  1
  O  O301  1  0.26091073  0.75568551  0.11859297  1
  O  O302  1  0.26320491  0.75983202  0.61416152  1
  O  O303  1  0.75419771  0.25597352  0.11693528  1
  O  O304  1  0.75538972  0.25844109  0.61544945  1
  O  O305  1  0.76125704  0.75899837  0.11884711  1
  O  O306  1  0.75847895  0.75142063  0.61585451  1
  O  O307  1  0.25406028  0.24129771  0.38267610  1
  O  O308  1  0.23608441  0.24945547  0.87479244  1
  O  O309  1  0.25445149  0.74363635  0.37575361  1
  O  O310  1  0.26271225  0.73883306  0.88519035  1
  O  O311  1  0.75006005  0.24141432  0.38723885  1
  O  O312  1  0.75298239  0.24077081  0.88591449  1
  O  O313  1  0.74752371  0.74095839  0.38578358  1
  O  O314  1  0.75950897  0.73916421  0.88618270  1
  O  O315  1  0.00292511  0.11994997  0.00865332  1
  O  O316  1  0.01197776  0.11966327  0.48852422  1
  O  O317  1  0.00761031  0.61332583  0.00410019  1
  O  O318  1  -0.00628465  0.62175626  0.50713557  1
  O  O319  1  0.51961648  0.13240380  0.00341408  1
  O  O320  1  0.51121890  0.11867897  0.50864301  1
  O  O321  1  0.49820578  0.60859101  -0.00932055  1
  O  O322  1  0.51161315  0.62138805  0.50729165  1
  O  O323  1  0.49696273  0.37723343  0.49830519  1
  O  O324  1  0.49508192  0.38273685  0.99224616  1
  O  O325  1  0.51411865  0.88774124  0.50008480  1
  O  O326  1  0.49314968  0.86791695  0.98862132  1
  O  O327  1  0.99143850  0.37646965  0.48760859  1
  O  O328  1  0.99218255  0.38740103  1.00430269  1
  O  O329  1  0.99559136  0.88325254  0.49133738  1
  O  O330  1  0.98824937  0.88612257  1.00177209  1
  O  O331  1  0.49003164  0.49884865  0.37856338  1
  O  O332  1  0.49407632  0.49024541  0.88331967  1
  O  O333  1  0.49203897  0.99900720  0.38376436  1
  O  O334  1  0.48742739  0.98322063  0.87508920  1
  O  O335  1  1.00080980  0.48782565  0.36210633  1
  O  O336  1  0.98683245  0.50716673  0.88434597  1
  O  O337  1  0.99237260  0.99476207  0.38077440  1
  O  O338  1  0.98447202  1.01139417  0.88881094  1
  O  O339  1  -0.00052803  0.00792338  0.11579754  1
  O  O340  1  -0.01057021  -0.00122070  0.60819374  1
  O  O341  1  0.00588063  0.50245168  0.11579152  1
  O  O342  1  0.00264735  0.49661040  0.63421153  1
  O  O343  1  0.50182112  -0.00079131  0.13076685  1
  O  O344  1  0.50907242  0.00582656  0.62012466  1
  O  O345  1  0.49701876  0.49421264  0.11013731  1
  O  O346  1  0.49076015  0.51296758  0.62064159  1
  O  O347  1  0.24383945  0.37946648  0.24349520  1
  O  O348  1  0.24187562  0.38097740  0.74611714  1
  O  O349  1  0.25553922  0.88217807  0.23981668  1
  O  O350  1  0.25125901  0.88140789  0.73349542  1
  O  O351  1  0.74525315  0.38122020  0.24813923  1
  O  O352  1  0.74307275  0.38042718  0.74325783  1
  O  O353  1  0.74266753  0.86450051  0.24216906  1
  O  O354  1  0.73557595  0.87213761  0.75773306  1
  O  O355  1  0.24767386  0.11724204  0.26130609  1
  O  O356  1  0.25586139  0.11022430  0.70287236  1
  O  O357  1  0.26150902  0.62179608  0.25450951  1
  O  O358  1  0.25613275  0.61795749  0.75687988  1
  O  O359  1  0.74716960  0.13350034  0.26514275  1
  O  O360  1  0.75848080  0.13423655  0.76135907  1
  O  O361  1  0.75603483  0.62047657  0.25840070  1
  O  O362  1  0.75505867  0.61791192  0.75638505  1
  O  O363  1  0.36150721  0.11203335  0.38571423  1
  O  O364  1  0.39087611  0.11154370  0.87684374  1
  O  O365  1  0.37117106  0.61825443  0.36320159  1
  O  O366  1  0.36721576  0.62034984  0.86716526  1
  O  O367  1  0.86672118  0.11755736  0.37394563  1
  O  O368  1  0.86444994  0.11965629  0.86882828  1
  O  O369  1  0.86475610  0.63356153  0.36486297  1
  O  O370  1  0.86344440  0.61368623  0.86629506  1
  O  O371  1  0.12929317  0.37907755  0.12815981  1
  O  O372  1  0.13798730  0.37521466  0.63766406  1
  O  O373  1  0.14284630  0.87622239  0.11551555  1
  O  O374  1  0.14070870  0.87087879  0.61889899  1
  O  O375  1  0.62951265  0.37803679  0.13836355  1
  O  O376  1  0.63788259  0.37332999  0.62997025  1
  O  O377  1  0.63500997  0.87435986  0.13604336  1
  O  O378  1  0.62650199  0.87889991  0.64254413  1
  O  O379  1  0.11380950  0.25548988  0.24705639  1
  O  O380  1  0.11487137  0.25563349  0.75726850  1
  O  O381  1  0.11096287  0.74334810  0.24709311  1
  O  O382  1  0.12683140  0.76013694  0.75534048  1
  O  O383  1  0.61720629  0.25932217  0.25184625  1
  O  O384  1  0.62281374  0.26457988  0.74523080  1
  O  O385  1  0.62037983  0.75342384  0.25688569  1
  O  O386  1  0.62693775  0.75860682  0.74991401  1
  O  O387  1  0.38432133  0.25560607  0.24037902  1
  O  O388  1  0.37710516  0.25319116  0.73922529  1
  O  O389  1  0.38458668  0.74343803  0.24320674  1
  O  O390  1  0.36536587  0.73940469  0.73910570  1
  O  O391  1  0.88302964  0.24718182  0.24187300  1
  O  O392  1  0.87749529  0.24644126  0.74547857  1
  O  O393  1  0.87972792  0.74264131  0.24520541  1
  O  O394  1  0.87232250  0.74001955  0.74164146  1
  O  O395  1  0.37198050  0.50178212  0.48488494  1
  O  O396  1  0.38347953  0.49474435  0.99484878  1
  O  O397  1  0.39098502  1.00333366  0.49453707  1
  O  O398  1  0.37314111  0.98778115  0.99397903  1
  O  O399  1  0.86449271  0.48397400  0.49971604  1
  O  O400  1  0.87893599  0.49685454  0.99435267  1
  O  O401  1  0.88245509  0.99707099  0.48992472  1
  O  O402  1  0.88007695  0.99351264  0.99452671  1
  O  O403  1  0.11494615  0.00941307  0.00070854  1
  O  O404  1  0.11732487  0.01512411  0.49788960  1
  O  O405  1  0.11788198  0.50486292  0.00069555  1
  O  O406  1  0.13801552  0.50479672  0.50049081  1
  O  O407  1  0.62982170  0.01012358  0.00244430  1
  O  O408  1  0.61907059  0.00897574  0.50765952  1
  O  O409  1  0.60990497  0.49669408  0.00147805  1
  O  O410  1  0.63189779  0.51404942  0.49691448  1
  O  O411  1  0.36910476  0.36556152  0.11939604  1
  O  O412  1  0.36424514  0.36488980  0.62468048  1
  O  O413  1  0.37295858  0.86476014  0.11849547  1
  O  O414  1  0.37922396  0.85712548  0.63320379  1
  O  O415  1  0.86715437  0.37013983  0.11780437  1
  O  O416  1  0.86413302  0.36504726  0.61690989  1
  O  O417  1  0.86951598  0.86946436  0.11741210  1
  O  O418  1  0.87282660  0.86662573  0.62034495  1
  O  O419  1  0.13845348  0.12817736  0.38205039  1
  O  O420  1  0.11412442  0.13671051  0.88529112  1
  O  O421  1  0.14023745  0.62743054  0.36783761  1
  O  O422  1  0.13647959  0.61848683  0.88565629  1
  O  O423  1  0.63226565  0.12352013  0.38660704  1
  O  O424  1  0.63422359  0.11696788  0.88712671  1
  O  O425  1  0.63629037  0.63070118  0.38463400  1
  O  O426  1  0.63750993  0.61857198  0.88063606  1
