# generated using pymatgen
data_V85Zn86O256
_symmetry_space_group_name_H-M   'P 1'
_cell_length_a   16.95135042
_cell_length_b   16.94730980
_cell_length_c   16.94514567
_cell_angle_alpha   89.94817809
_cell_angle_beta   90.05843653
_cell_angle_gamma   89.89150062
_symmetry_Int_Tables_number   1
_chemical_formula_structural   V85Zn86O256
_chemical_formula_sum   'V85 Zn86 O256'
_cell_volume   4867.98458039
_cell_formula_units_Z   1
loop_
 _symmetry_equiv_pos_site_id
 _symmetry_equiv_pos_as_xyz
  1  'x, y, z'
loop_
 _atom_site_type_symbol
 _atom_site_label
 _atom_site_symmetry_multiplicity
 _atom_site_fract_x
 _atom_site_fract_y
 _atom_site_fract_z
 _atom_site_occupancy
  V  V0  1  0.24754683  0.49858784  0.74883461  1
  V  V1  1  0.37383836  0.12643908  0.74991569  1
  V  V2  1  0.36657957  0.75326045  0.62209983  1
  V  V3  1  0.75203052  0.37342392  0.62139312  1
  V  V4  1  0.24361929  0.63126080  0.37524479  1
  V  V5  1  0.37339392  0.62516979  0.74894919  1
  V  V6  1  0.49510378  -0.00348558  -0.00063360  1
  V  V7  1  0.24811113  0.00029673  0.74564763  1
  V  V8  1  0.87691964  0.87466940  0.50056322  1
  V  V9  1  0.88331487  0.13573778  0.23576946  1
  V  V10  1  0.50274264  0.49926844  0.00166708  1
  V  V11  1  0.24536556  0.63912603  0.87808336  1
  V  V12  1  0.50031884  0.74914869  0.74822707  1
  V  V13  1  0.75019893  -0.00378000  0.24924200  1
  V  V14  1  0.62372581  0.13033218  0.49636648  1
  V  V15  1  0.88053607  0.49372913  0.87519506  1
  V  V16  1  0.62443764  0.74842121  0.87429665  1
  V  V17  1  0.75041116  0.00353706  0.75662860  1
  V  V18  1  0.12351082  0.00434560  0.62391218  1
  V  V19  1  0.23701537  0.12708543  0.37864476  1
  V  V20  1  0.63078248  0.24610628  0.87294446  1
  V  V21  1  0.24177208  0.37810778  0.12057319  1
  V  V22  1  0.62603258  0.62050651  -0.00014430  1
  V  V23  1  0.50389779  0.61943986  0.60989105  1
  V  V24  1  0.74919843  0.87147503  0.12630174  1
  V  V25  1  -0.00625071  0.25329927  0.74884296  1
  V  V26  1  -0.00056764  0.00424699  0.00319047  1
  V  V27  1  0.87787622  0.74728698  0.12551283  1
  V  V28  1  -0.00602757  0.12978823  0.62365355  1
  V  V29  1  0.62443647  0.38126912  0.74388744  1
  V  V30  1  0.37307670  0.49936507  0.87483226  1
  V  V31  1  0.87052467  0.12740000  0.75443658  1
  V  V32  1  0.88018715  0.74547553  0.62475036  1
  V  V33  1  0.88065355  0.62325035  0.74781456  1
  V  V34  1  0.74931461  0.87552639  0.62544603  1
  V  V35  1  0.11940854  0.25422759  0.87966609  1
  V  V36  1  0.23353549  0.24607194  0.50063327  1
  V  V37  1  0.88060879  0.37137858  0.00203341  1
  V  V38  1  0.00297871  0.87262323  0.37669903  1
  V  V39  1  0.00411831  0.74852283  0.75291517  1
  V  V40  1  0.74776088  0.12974768  0.37174335  1
  V  V41  1  0.49898096  0.25012544  0.74812529  1
  V  V42  1  0.12408247  0.13038545  0.00225629  1
  V  V43  1  0.00516082  0.74777291  0.25573036  1
  V  V44  1  0.88008855  0.37124174  0.49590884  1
  V  V45  1  0.74605714  0.37255736  0.12526854  1
  V  V46  1  0.87583021  0.87341811  -0.00057670  1
  V  V47  1  0.49977869  0.37414517  0.87288082  1
  V  V48  1  0.49926978  0.12564167  0.62232628  1
  V  V49  1  0.37127482  0.75194979  0.12078569  1
  V  V50  1  0.50680132  0.87287725  0.37673520  1
  V  V51  1  0.12812615  0.87255637  0.25480130  1
  V  V52  1  0.00171585  0.49890935  0.50357227  1
  V  V53  1  0.25328738  0.00462137  0.24928820  1
  V  V54  1  0.06720471  0.31367505  0.30008500  1
  V  V55  1  0.62970149  0.12299781  -0.00324229  1
  V  V56  1  0.11889216  0.63323468  0.50298503  1
  V  V57  1  0.23857087  0.50052847  0.24138411  1
  V  V58  1  0.37804872  0.62339998  0.25222191  1
  V  V59  1  0.37246162  0.25261285  0.13306362  1
  V  V60  1  0.88097607  0.49648098  0.37161141  1
  V  V61  1  0.11937385  0.37599125  0.75310166  1
  V  V62  1  0.12764671  0.64075480  -0.00229410  1
  V  V63  1  0.00409142  0.87314854  0.87586864  1
  V  V64  1  0.36792985  0.87717707  0.50094532  1
  V  V65  1  0.12672749  0.87475702  0.74842789  1
  V  V66  1  0.24819753  0.13038402  0.87796990  1
  V  V67  1  0.75610291  0.24797647  0.49989153  1
  V  V68  1  0.75046827  0.74722941  0.00058660  1
  V  V69  1  0.49960211  0.12723534  0.12804546  1
  V  V70  1  0.75224904  0.62295712  0.87438701  1
  V  V71  1  0.37379942  0.37203437  0.49709694  1
  V  V72  1  0.74351665  0.49657495  0.25076694  1
  V  V73  1  0.73897306  0.74441507  0.49458355  1
  V  V74  1  0.37409338  0.36795808  0.00096080  1
  V  V75  1  0.00287477  0.00827348  0.49985222  1
  V  V76  1  0.00749393  0.61909690  0.12642277  1
  V  V77  1  0.50406792  0.36387213  0.36890081  1
  V  V78  1  0.75587470  0.24731429  0.00045879  1
  V  V79  1  0.87585901  0.00153803  0.37493350  1
  V  V80  1  0.37368515  0.49424264  0.37951056  1
  V  V81  1  0.00826736  0.49595366  0.00349476  1
  V  V82  1  0.50862126  0.74706501  0.25709310  1
  V  V83  1  0.62481358  0.87386334  0.74988144  1
  V  V84  1  0.12258583  0.00522449  0.12605917  1
  Zn  Zn85  1  0.24726131  0.37461335  0.62196867  1
  Zn  Zn86  1  0.61910019  0.49501349  0.13492965  1
  Zn  Zn87  1  0.62429858  0.00115390  0.62471547  1
  Zn  Zn88  1  0.37288888  -0.00174175  0.87504128  1
  Zn  Zn89  1  0.53614152  0.25773700  0.24936315  1
  Zn  Zn90  1  0.74214629  0.62265551  0.38013647  1
  Zn  Zn91  1  0.75039496  0.50188266  0.74351948  1
  Zn  Zn92  1  0.50257645  0.62424540  0.12785931  1
  Zn  Zn93  1  0.87169123  0.00333416  0.87814268  1
  Zn  Zn94  1  0.87442888  0.62453579  0.25322845  1
  Zn  Zn95  1  0.62982037  0.86597535  0.25546580  1
  Zn  Zn96  1  0.50074612  0.00042614  0.49705597  1
  Zn  Zn97  1  0.62329063  -0.00526492  0.12526037  1
  Zn  Zn98  1  0.11789312  0.50272455  0.62761095  1
  Zn  Zn99  1  0.37067897  0.25271291  0.62491052  1
  Zn  Zn100  1  0.36549365  0.86607486  -0.00980230  1
  Zn  Zn101  1  0.24120819  0.75735343  0.49633555  1
  Zn  Zn102  1  0.37877113  0.12969790  0.25609732  1
  Zn  Zn103  1  0.49853669  0.87533285  0.87455702  1
  Zn  Zn104  1  0.37724648  0.00313125  0.37651487  1
  Zn  Zn105  1  0.62441495  0.50882546  0.59404062  1
  Zn  Zn106  1  0.24626094  0.87106793  0.11646088  1
  Zn  Zn107  1  0.16887395  0.19928919  0.18956283  1
  Zn  Zn108  1  0.18213379  0.18745453  0.68725898  1
  Zn  Zn109  1  0.18690898  0.68488715  0.18612966  1
  Zn  Zn110  1  0.18545030  0.68485963  0.68649081  1
  Zn  Zn111  1  0.69235085  0.18451044  0.18290361  1
  Zn  Zn112  1  0.68728989  0.18966648  0.68345715  1
  Zn  Zn113  1  0.68836860  0.67958226  0.18568399  1
  Zn  Zn114  1  0.68862443  0.68605813  0.68465226  1
  Zn  Zn115  1  0.28674192  0.30938206  0.30772668  1
  Zn  Zn116  1  0.30884036  0.31157581  0.81350698  1
  Zn  Zn117  1  0.31712307  0.81498785  0.31227966  1
  Zn  Zn118  1  0.31496688  0.81657008  0.80867337  1
  Zn  Zn119  1  0.81015922  0.31122646  0.31000335  1
  Zn  Zn120  1  0.81178903  0.31411057  0.81257336  1
  Zn  Zn121  1  0.81671730  0.80968287  0.31499537  1
  Zn  Zn122  1  0.81438074  0.81281265  0.81405719  1
  Zn  Zn123  1  0.18297010  0.43557281  0.43150462  1
  Zn  Zn124  1  0.18832808  0.44007299  0.93686197  1
  Zn  Zn125  1  0.18680519  0.94243355  0.43643328  1
  Zn  Zn126  1  0.18807308  0.93759958  0.93515868  1
  Zn  Zn127  1  0.69100068  0.42861078  0.42681311  1
  Zn  Zn128  1  0.69100619  0.43450898  0.93390361  1
  Zn  Zn129  1  0.68694185  0.94044446  0.43981194  1
  Zn  Zn130  1  0.68465964  0.93478055  0.93803124  1
  Zn  Zn131  1  0.31030975  0.06298786  0.06379948  1
  Zn  Zn132  1  0.31271946  0.06425401  0.56162009  1
  Zn  Zn133  1  0.31371924  0.56559459  0.06005918  1
  Zn  Zn134  1  0.30960295  0.56537761  0.56156904  1
  Zn  Zn135  1  0.81223684  0.06062963  0.06363592  1
  Zn  Zn136  1  0.81480788  0.06347486  0.56471020  1
  Zn  Zn137  1  0.81708945  0.55949390  0.06530077  1
  Zn  Zn138  1  0.81331294  0.55892374  0.56202421  1
  Zn  Zn139  1  0.43431032  0.43631962  0.19063887  1
  Zn  Zn140  1  0.43618349  0.43976970  0.68075342  1
  Zn  Zn141  1  0.43995684  0.93520305  0.18838472  1
  Zn  Zn142  1  0.43591779  0.93834298  0.68518820  1
  Zn  Zn143  1  0.93380845  0.43321433  0.18548918  1
  Zn  Zn144  1  0.93636487  0.43676893  0.68287509  1
  Zn  Zn145  1  0.93726818  0.93742561  0.18834635  1
  Zn  Zn146  1  0.93594412  0.93892714  0.68797584  1
  Zn  Zn147  1  0.06102867  0.06410882  0.31157227  1
  Zn  Zn148  1  0.05925239  0.06409016  0.81389537  1
  Zn  Zn149  1  0.06259073  0.55685332  0.31717820  1
  Zn  Zn150  1  0.06328936  0.56314800  0.81979496  1
  Zn  Zn151  1  0.56395230  0.06021371  0.31277518  1
  Zn  Zn152  1  0.56254767  0.06054552  0.81169154  1
  Zn  Zn153  1  0.55975132  0.55412046  0.32785594  1
  Zn  Zn154  1  0.55935091  0.56439772  0.81125769  1
  Zn  Zn155  1  0.42818559  0.19049101  0.43519646  1
  Zn  Zn156  1  0.43876976  0.18602050  0.93770317  1
  Zn  Zn157  1  0.43200574  0.69036129  0.43564778  1
  Zn  Zn158  1  0.43766437  0.68431009  0.93455214  1
  Zn  Zn159  1  0.94214172  0.19385884  0.42368257  1
  Zn  Zn160  1  0.93901262  0.18734668  0.93435446  1
  Zn  Zn161  1  0.93321436  0.68358041  0.43657244  1
  Zn  Zn162  1  0.94044444  0.68473110  0.93705188  1
  Zn  Zn163  1  0.05601915  0.30992289  0.08597980  1
  Zn  Zn164  1  0.06111022  0.31553310  0.56605824  1
  Zn  Zn165  1  0.06263998  0.81526201  0.06817928  1
  Zn  Zn166  1  0.06218457  0.81617189  0.56654910  1
  Zn  Zn167  1  0.56391904  0.31009247  0.06311379  1
  Zn  Zn168  1  0.56182787  0.31207884  0.55655360  1
  Zn  Zn169  1  0.56036546  0.80963791  0.06660937  1
  Zn  Zn170  1  0.55734488  0.80985944  0.56266416  1
  O  O171  1  0.13243012  0.11413480  0.11559244  1
  O  O172  1  0.10843680  0.11353832  0.63303076  1
  O  O173  1  0.11479073  0.62702953  0.11607784  1
  O  O174  1  0.12986116  0.61996911  0.60792204  1
  O  O175  1  0.61693487  0.12327341  0.11244652  1
  O  O176  1  0.61576459  0.12588553  0.61672587  1
  O  O177  1  0.62163977  0.61586201  0.11513688  1
  O  O178  1  0.60915780  0.62567174  0.62732964  1
  O  O179  1  0.36889770  0.37814441  0.37983178  1
  O  O180  1  0.37830781  0.37762315  0.88217369  1
  O  O181  1  0.38470281  0.87778506  0.38349161  1
  O  O182  1  0.38120896  0.88003212  0.87505047  1
  O  O183  1  0.86718501  0.38341367  0.38638139  1
  O  O184  1  0.87004974  0.38478051  0.88512931  1
  O  O185  1  0.88312323  0.88151103  0.38091899  1
  O  O186  1  0.88541618  0.87722953  0.88106864  1
  O  O187  1  0.25123337  0.01102254  0.36798310  1
  O  O188  1  0.24634266  0.01348634  0.86185842  1
  O  O189  1  0.25537742  0.50555491  0.35947241  1
  O  O190  1  0.25449979  0.50505667  0.86421078  1
  O  O191  1  0.75638299  0.00561842  0.36902923  1
  O  O192  1  0.75050369  -0.00629512  0.86109363  1
  O  O193  1  0.76013022  0.49507616  0.36085523  1
  O  O194  1  0.76228795  0.50474468  0.87201114  1
  O  O195  1  0.25933986  0.49672443  0.13475107  1
  O  O196  1  0.24816508  0.50201161  0.64092626  1
  O  O197  1  0.24037124  1.00029066  0.13467034  1
  O  O198  1  0.23764562  1.01213023  0.63618501  1
  O  O199  1  0.74991101  0.49486458  0.13670433  1
  O  O200  1  0.74032706  0.49090553  0.62181442  1
  O  O201  1  0.74996679  0.98997809  0.13314222  1
  O  O202  1  0.75207046  0.98770161  0.63195340  1
  O  O203  1  0.00132738  0.37717354  0.25242011  1
  O  O204  1  0.00687005  0.36663545  0.74346596  1
  O  O205  1  0.00754905  0.86810350  0.25491495  1
  O  O206  1  0.00439329  0.87018019  0.75709935  1
  O  O207  1  0.49582950  0.37312792  0.26273541  1
  O  O208  1  0.50593714  0.37120965  0.75137448  1
  O  O209  1  0.50266866  0.86537706  0.25867351  1
  O  O210  1  0.50775616  0.86819786  0.74641996  1
  O  O211  1  0.50173667  0.12497490  0.23684624  1
  O  O212  1  0.49553670  0.12992166  0.74258323  1
  O  O213  1  0.49336255  0.62703308  0.25884161  1
  O  O214  1  0.49106725  0.63010990  0.74439412  1
  O  O215  1  0.98105685  0.11383022  0.25221748  1
  O  O216  1  0.99142391  0.13178567  0.74392384  1
  O  O217  1  1.00432780  0.63129575  0.24393438  1
  O  O218  1  0.99121706  0.63499021  0.75851243  1
  O  O219  1  0.38119051  0.26176789  0.00824354  1
  O  O220  1  0.36170797  0.25849411  0.50372023  1
  O  O221  1  0.38428038  0.74547853  0.01740671  1
  O  O222  1  0.37020475  0.75886846  0.50633570  1
  O  O223  1  0.86682038  0.25778476  -0.01187889  1
  O  O224  1  0.86846531  0.25818909  0.49370319  1
  O  O225  1  0.87118741  0.75327077  0.00436379  1
  O  O226  1  0.87413491  0.75555826  0.50959649  1
  O  O227  1  0.13452655  0.25281891  0.50286603  1
  O  O228  1  0.10919570  0.23897474  0.99406169  1
  O  O229  1  0.12271240  0.73907509  0.50490335  1
  O  O230  1  0.12102567  0.74045023  1.00315837  1
  O  O231  1  0.63681996  0.23805161  0.50152752  1
  O  O232  1  0.63154978  0.24307433  0.99114839  1
  O  O233  1  0.64063744  0.75361995  0.50562359  1
  O  O234  1  0.62984384  0.74158461  0.99544451  1
  O  O235  1  0.49398871  0.24389687  0.12895454  1
  O  O236  1  0.49967149  0.24094011  0.62991389  1
  O  O237  1  0.49087630  0.74522064  0.13823000  1
  O  O238  1  0.49080426  0.73892946  0.62913836  1
  O  O239  1  1.06545428  0.25576256  0.18326111  1
  O  O240  1  1.00646393  0.24010248  0.63611341  1
  O  O241  1  0.99659083  0.74249507  0.13486092  1
  O  O242  1  0.98752254  0.75768549  0.63689053  1
  O  O243  1  0.01433451  0.24909588  0.35901776  1
  O  O244  1  0.01043238  0.24563309  0.86245278  1
  O  O245  1  -0.00627072  0.75455888  0.36329001  1
  O  O246  1  -0.00479309  0.76059582  0.86458686  1
  O  O247  1  0.49057989  0.25969874  0.36665042  1
  O  O248  1  0.50889522  0.25500948  0.86911813  1
  O  O249  1  0.49340434  0.75847535  0.36674033  1
  O  O250  1  0.50659324  0.74850721  0.86665747  1
  O  O251  1  0.24936814  0.13250161  0.49119553  1
  O  O252  1  0.23700707  0.11801422  0.98877520  1
  O  O253  1  0.23849838  0.62609685  0.49120707  1
  O  O254  1  0.23964439  0.61703483  0.99043100  1
  O  O255  1  0.74708774  0.12986108  0.49484058  1
  O  O256  1  0.73966933  0.13127341  1.00378740  1
  O  O257  1  0.75697512  0.64252275  0.50585446  1
  O  O258  1  0.74731378  0.62751948  0.99531412  1
  O  O259  1  0.26493406  0.38966064  0.00982275  1
  O  O260  1  0.25123174  0.36113075  0.49711680  1
  O  O261  1  0.25494785  0.88459546  0.00462412  1
  O  O262  1  0.26108013  0.87382462  0.49095528  1
  O  O263  1  0.75816201  0.36774011  0.00377985  1
  O  O264  1  0.75477244  0.36637713  0.50247367  1
  O  O265  1  0.75528037  0.86752649  0.00490628  1
  O  O266  1  0.75616806  0.86751324  0.50713584  1
  O  O267  1  0.14008679  0.50964692  0.24570841  1
  O  O268  1  0.12847414  0.49300036  0.75319918  1
  O  O269  1  0.12992450  0.99443635  0.24287772  1
  O  O270  1  0.12792857  0.99586499  0.74413526  1
  O  O271  1  0.63923043  0.50202126  0.25528749  1
  O  O272  1  0.62644435  0.48568576  0.75545785  1
  O  O273  1  0.64111320  0.99792142  0.24875873  1
  O  O274  1  0.63374641  0.99459715  0.74654934  1
  O  O275  1  0.36224150  0.00220390  0.24621349  1
  O  O276  1  0.36361943  0.00674021  0.74812927  1
  O  O277  1  0.36977863  0.51109833  0.25619319  1
  O  O278  1  0.36693611  0.50347013  0.75468902  1
  O  O279  1  0.86551206  0.00119047  0.25500877  1
  O  O280  1  0.86716522  0.00711604  0.75153744  1
  O  O281  1  0.86901055  0.50169998  0.25727151  1
  O  O282  1  0.87748906  0.50654012  0.75632286  1
  O  O283  1  0.11232700  0.37987809  0.36473697  1
  O  O284  1  0.13070156  0.36521371  0.86669945  1
  O  O285  1  0.11868839  0.88230647  0.36306298  1
  O  O286  1  0.11351709  0.88149559  0.86257376  1
  O  O287  1  0.60226994  0.37385064  0.38412810  1
  O  O288  1  0.62036440  0.36575384  0.86574148  1
  O  O289  1  0.61279516  0.87836453  0.37598416  1
  O  O290  1  0.62250430  0.86569357  0.86808436  1
  O  O291  1  0.38266663  0.13591422  0.12310760  1
  O  O292  1  0.38378156  0.12822205  0.63024562  1
  O  O293  1  0.37868985  0.63180922  0.13579651  1
  O  O294  1  0.38302851  0.63060651  0.62851727  1
  O  O295  1  0.87159038  0.12357548  0.13588532  1
  O  O296  1  0.88578057  0.12186832  0.63609218  1
  O  O297  1  0.88817260  0.63078172  0.12579624  1
  O  O298  1  0.87060530  0.63343815  0.63650126  1
  O  O299  1  0.25661233  0.27098389  0.12613750  1
  O  O300  1  0.24831673  0.24699816  0.61297994  1
  O  O301  1  0.26739256  0.74864139  0.13372191  1
  O  O302  1  0.26320694  0.74399162  0.62316651  1
  O  O303  1  0.74787506  0.25701507  0.10731293  1
  O  O304  1  0.74672070  0.26110942  0.61261322  1
  O  O305  1  0.75708381  0.75093165  0.12029577  1
  O  O306  1  0.75986408  0.75870990  0.61952795  1
  O  O307  1  0.25396968  0.23579193  0.39060480  1
  O  O308  1  0.23567856  0.23954991  0.87036064  1
  O  O309  1  0.25606414  0.73516736  0.37267813  1
  O  O310  1  0.25539599  0.73762648  0.86877586  1
  O  O311  1  0.75515482  0.23893290  0.38644040  1
  O  O312  1  0.73851238  0.25563086  0.88319199  1
  O  O313  1  0.75405282  0.74755304  0.38970792  1
  O  O314  1  0.74606857  0.74372107  0.88073669  1
  O  O315  1  0.00778877  0.11295856  -0.00673786  1
  O  O316  1  -0.01028316  0.11545143  0.50606301  1
  O  O317  1  0.00823492  0.61855080  0.00593822  1
  O  O318  1  0.01352646  0.61878308  0.49294265  1
  O  O319  1  0.50803429  0.11986860  0.00787601  1
  O  O320  1  0.50640094  0.12935273  0.50514370  1
  O  O321  1  0.50586776  0.61255485  -0.00199669  1
  O  O322  1  0.49334755  0.62899919  0.51130744  1
  O  O323  1  0.48230659  0.36512509  0.48790197  1
  O  O324  1  0.49432859  0.38068675  0.99389314  1
  O  O325  1  0.49179407  0.87511199  0.49266719  1
  O  O326  1  0.49841190  0.88600084  1.00158155  1
  O  O327  1  0.98813445  0.38123060  0.50601080  1
  O  O328  1  0.99034449  0.37920528  1.01706460  1
  O  O329  1  0.99595167  0.88405678  0.49687142  1
  O  O330  1  0.99764817  0.88100365  0.99352483  1
  O  O331  1  0.47987908  0.48368300  0.37305585  1
  O  O332  1  0.49305140  0.49379993  0.88073519  1
  O  O333  1  0.49665931  0.99012804  0.37511008  1
  O  O334  1  0.49790999  1.00024875  0.88544875  1
  O  O335  1  0.98902860  0.50270142  0.38631716  1
  O  O336  1  0.98811715  0.50340273  0.88633682  1
  O  O337  1  0.99656669  0.99522658  0.38438530  1
  O  O338  1  0.99893835  0.99097015  0.88499377  1
  O  O339  1  0.01007688  -0.00813580  0.11412769  1
  O  O340  1  0.00289624  0.00746987  0.61840510  1
  O  O341  1  -0.00788146  0.51092855  0.11597881  1
  O  O342  1  -0.00323670  0.50222443  0.60945426  1
  O  O343  1  0.50126667  0.00845690  0.11830352  1
  O  O344  1  0.50113028  0.01447560  0.62332859  1
  O  O345  1  0.50012342  0.49871079  0.11411926  1
  O  O346  1  0.50264209  0.51409994  0.62303421  1
  O  O347  1  0.25766707  0.39459718  0.23454828  1
  O  O348  1  0.24045393  0.38283439  0.75019941  1
  O  O349  1  0.24251045  0.88472206  0.25180688  1
  O  O350  1  0.23832055  0.88786552  0.75592952  1
  O  O351  1  0.75851763  0.38725930  0.23955970  1
  O  O352  1  0.74243851  0.37410048  0.73810279  1
  O  O353  1  0.75182276  0.87926074  0.24707136  1
  O  O354  1  0.74702588  0.87996844  0.74265671  1
  O  O355  1  0.24598236  0.11800163  0.25985829  1
  O  O356  1  0.25208582  0.12058708  0.75695345  1
  O  O357  1  0.25734317  0.61770565  0.25404150  1
  O  O358  1  0.25149843  0.61754465  0.75766541  1
  O  O359  1  0.76009011  0.11353192  0.25517024  1
  O  O360  1  0.75785990  0.11573319  0.73814022  1
  O  O361  1  0.75242713  0.61184647  0.25493996  1
  O  O362  1  0.76197150  0.62409697  0.75464640  1
  O  O363  1  0.36245214  0.12080328  0.37149341  1
  O  O364  1  0.36452867  0.12633740  0.87007442  1
  O  O365  1  0.36618477  0.61562269  0.37035333  1
  O  O366  1  0.36597184  0.61856105  0.86988999  1
  O  O367  1  0.86456986  0.11873938  0.36962252  1
  O  O368  1  0.87781290  0.12173805  0.85986157  1
  O  O369  1  0.86771967  0.61049356  0.37550687  1
  O  O370  1  0.87148067  0.61734058  0.86751982  1
  O  O371  1  0.14511470  0.38543125  0.10970664  1
  O  O372  1  0.12781977  0.37964013  0.63949002  1
  O  O373  1  0.12670967  0.88519057  0.13643263  1
  O  O374  1  0.11677397  0.89029433  0.63799130  1
  O  O375  1  0.63987349  0.37947864  0.11563008  1
  O  O376  1  0.62910594  0.38089997  0.62641644  1
  O  O377  1  0.63427786  0.87350009  0.13029940  1
  O  O378  1  0.63539154  0.87405300  0.62974209  1
  O  O379  1  0.16836182  0.27165929  0.27707185  1
  O  O380  1  0.11607972  0.25718150  0.75777306  1
  O  O381  1  0.11694661  0.76059316  0.24328763  1
  O  O382  1  0.11399196  0.76033073  0.73869728  1
  O  O383  1  0.64547316  0.25005838  0.25588296  1
  O  O384  1  0.62137211  0.25890514  0.75440419  1
  O  O385  1  0.61341321  0.74323754  0.24853273  1
  O  O386  1  0.62172226  0.75377526  0.75441753  1
  O  O387  1  0.36734842  0.25041267  0.23734953  1
  O  O388  1  0.38033781  0.24538709  0.74880303  1
  O  O389  1  0.38396965  0.73908125  0.24547318  1
  O  O390  1  0.37949801  0.74578728  0.74053432  1
  O  O391  1  0.86981792  0.23454670  0.25138261  1
  O  O392  1  0.88414309  0.24470681  0.75555668  1
  O  O393  1  0.88670019  0.74740275  0.24437576  1
  O  O394  1  0.88198660  0.74328053  0.74478473  1
  O  O395  1  0.35700451  0.48669842  0.48917813  1
  O  O396  1  0.38576484  0.49309806  0.99509000  1
  O  O397  1  0.37730561  0.98966712  0.50196580  1
  O  O398  1  0.38693583  1.00414901  0.99935939  1
  O  O399  1  0.88020263  0.49284920  0.49228216  1
  O  O400  1  0.88330289  0.49227987  0.99327518  1
  O  O401  1  0.88283773  0.99436821  0.49647017  1
  O  O402  1  0.88298350  0.99366368  0.99996257  1
  O  O403  1  0.11718577  0.00738599  0.00654971  1
  O  O404  1  0.11338569  -0.00540477  0.51060877  1
  O  O405  1  0.11069519  0.50357010  -0.00656734  1
  O  O406  1  0.11649958  0.50461905  0.50093593  1
  O  O407  1  0.61779548  0.00800131  -0.00045319  1
  O  O408  1  0.62442138  0.01458252  0.50501979  1
  O  O409  1  0.61475955  0.50151761  -0.00665832  1
  O  O410  1  0.63559862  0.51980471  0.47281041  1
  O  O411  1  0.37348203  0.36925873  0.11720420  1
  O  O412  1  0.36895579  0.37485071  0.61350627  1
  O  O413  1  0.37566641  0.85832008  0.12838483  1
  O  O414  1  0.38148633  0.86465645  0.61423920  1
  O  O415  1  0.86098410  0.37934757  0.11083838  1
  O  O416  1  0.86076256  0.38212214  0.61227375  1
  O  O417  1  0.87101797  0.86718146  0.11905561  1
  O  O418  1  0.86753608  0.86704662  0.62260083  1
  O  O419  1  0.13759097  0.11896479  0.37589300  1
  O  O420  1  0.12881950  0.13288202  0.88117810  1
  O  O421  1  0.13412952  0.61846101  0.38721941  1
  O  O422  1  0.13351316  0.62454787  0.88445972  1
  O  O423  1  0.63838772  0.11753865  0.38320296  1
  O  O424  1  0.61839273  0.13630204  0.88290459  1
  O  O425  1  0.62968684  0.58629246  0.41706832  1
  O  O426  1  0.63204859  0.62852816  0.87854302  1
