# generated using pymatgen
data_V85Zn86O256
_symmetry_space_group_name_H-M   'P 1'
_cell_length_a   16.96754201
_cell_length_b   16.97496136
_cell_length_c   16.97425859
_cell_angle_alpha   90.01398940
_cell_angle_beta   89.98477085
_cell_angle_gamma   89.94851477
_symmetry_Int_Tables_number   1
_chemical_formula_structural   V85Zn86O256
_chemical_formula_sum   'V85 Zn86 O256'
_cell_volume   4888.98086774
_cell_formula_units_Z   1
loop_
 _symmetry_equiv_pos_site_id
 _symmetry_equiv_pos_as_xyz
  1  'x, y, z'
loop_
 _atom_site_type_symbol
 _atom_site_label
 _atom_site_symmetry_multiplicity
 _atom_site_fract_x
 _atom_site_fract_y
 _atom_site_fract_z
 _atom_site_occupancy
  V  V0  1  0.62690069  0.62376556  0.49180955  1
  V  V1  1  0.50045887  0.87487510  0.37499391  1
  V  V2  1  0.75415058  0.24886154  0.50571262  1
  V  V3  1  0.00099264  0.75668788  0.75228930  1
  V  V4  1  -0.00030131  0.50023231  0.50169246  1
  V  V5  1  0.49134707  0.12562747  0.12877508  1
  V  V6  1  0.25486590  0.61583991  0.87507542  1
  V  V7  1  0.00045363  0.62544353  0.62676180  1
  V  V8  1  0.37228133  0.87799357  0.50576312  1
  V  V9  1  0.87351330  0.74852053  0.12781781  1
  V  V10  1  0.25162433  0.13034878  0.36850832  1
  V  V11  1  0.00008241  0.74691399  0.25294827  1
  V  V12  1  0.63124700  0.24888383  0.88009034  1
  V  V13  1  0.62811620  0.12357759  0.49859018  1
  V  V14  1  0.12769639  0.49621381  0.12777038  1
  V  V15  1  0.12655131  0.25182734  0.37999411  1
  V  V16  1  0.24904992  0.13170841  0.87308950  1
  V  V17  1  0.12682126  0.75186787  0.37644241  1
  V  V18  1  0.49718730  0.25026033  0.75114246  1
  V  V19  1  0.38029390  0.49009034  0.38442404  1
  V  V20  1  0.12713560  0.87698830  0.24878536  1
  V  V21  1  -0.01060685  0.24604526  0.24542464  1
  V  V22  1  0.87594131  0.87546906  0.50334697  1
  V  V23  1  0.48505859  0.37760840  0.88076606  1
  V  V24  1  0.37548665  0.25594719  0.60977393  1
  V  V25  1  0.25440895  0.37099944  0.61403839  1
  V  V26  1  0.74823919  0.50198275  0.26089226  1
  V  V27  1  0.37748851  0.75058187  0.62755265  1
  V  V28  1  0.00256725  0.87629325  0.37561511  1
  V  V29  1  0.87826579  0.00235771  0.37142205  1
  V  V30  1  0.49507075  0.74751409  0.25202978  1
  V  V31  1  0.75224751  0.74731995  0.49447576  1
  V  V32  1  0.12540330  0.75656793  0.87523881  1
  V  V33  1  0.74788320  0.62192754  0.87086586  1
  V  V34  1  -0.00634327  0.13761330  0.63756005  1
  V  V35  1  0.12691515  0.12717408  0.49911903  1
  V  V36  1  0.50029818  0.12872728  0.62277937  1
  V  V37  1  0.62132647  0.62067707  -0.00249180  1
  V  V38  1  0.12715236  0.37636738  0.24954397  1
  V  V39  1  0.12586228  0.62623177  0.50206793  1
  V  V40  1  0.62635765  0.00043023  0.62438149  1
  V  V41  1  0.13482678  0.87475316  0.74469880  1
  V  V42  1  0.49492132  0.62333642  0.12907012  1
  V  V43  1  0.74933131  0.74838264  0.00178105  1
  V  V44  1  0.12056337  0.36002660  0.75586774  1
  V  V45  1  0.75002239  0.36774830  0.11888891  1
  V  V46  1  0.87388588  0.37353272  0.50617597  1
  V  V47  1  0.62960059  0.50419018  0.63220015  1
  V  V48  1  0.26031715  0.62798775  0.37464583  1
  V  V49  1  0.11543491  0.12969395  -0.00592524  1
  V  V50  1  0.62442454  0.49725224  0.12314710  1
  V  V51  1  0.25166253  0.74841165  0.00028229  1
  V  V52  1  0.75371102  0.00240174  0.24674685  1
  V  V53  1  0.37481720  0.74844868  0.12657255  1
  V  V54  1  0.75784375  0.12683296  0.36904630  1
  V  V55  1  0.12573619  0.62467501  0.00095658  1
  V  V56  1  0.63125150  0.37938482  0.75458020  1
  V  V57  1  0.37386242  0.00455487  0.36508224  1
  V  V58  1  -0.00172735  0.62438851  0.12936720  1
  V  V59  1  0.50051107  0.00111022  0.49875749  1
  V  V60  1  -0.00352747  0.37821362  0.37727457  1
  V  V61  1  0.13234098  -0.00127828  0.62406426  1
  V  V62  1  0.62810913  0.12363415  -0.00053393  1
  V  V63  1  0.87364956  0.62334821  0.75159588  1
  V  V64  1  0.38391832  0.87320381  -0.00628127  1
  V  V65  1  0.62084952  0.24948821  0.37089228  1
  V  V66  1  0.75131772  0.87371217  0.12147710  1
  V  V67  1  0.75737238  0.12238065  0.87167449  1
  V  V68  1  0.61831067  0.87480612  0.75642485  1
  V  V69  1  0.12861510  0.50010743  0.63217270  1
  V  V70  1  0.37643958  0.61771008  0.75272451  1
  V  V71  1  0.87362626  0.37102194  0.00068024  1
  V  V72  1  0.61788495  0.36912928  0.24805205  1
  V  V73  1  0.11661195  -0.00319582  0.11487631  1
  V  V74  1  0.25047445  0.87448728  0.12410465  1
  V  V75  1  0.76084162  0.00143610  0.74752264  1
  V  V76  1  0.62575397  0.87435367  0.25093878  1
  V  V77  1  0.88339402  -0.02023402  0.88705211  1
  V  V78  1  0.00003579  0.50208027  0.00135012  1
  V  V79  1  0.37983424  -0.00260594  0.87323879  1
  V  V80  1  0.25998918  0.25471781  0.01203832  1
  V  V81  1  0.87592780  0.50549080  0.87657828  1
  V  V82  1  0.25087156  0.75562672  0.50601496  1
  V  V83  1  0.75274925  0.37442098  0.63110236  1
  V  V84  1  0.25342327  0.50350513  0.25342881  1
  Zn  Zn85  1  0.25354193  -0.00348732  0.74662262  1
  Zn  Zn86  1  0.85961510  0.50736058  0.38687182  1
  Zn  Zn87  1  0.61777811  0.75770891  0.88041729  1
  Zn  Zn88  1  0.00200800  0.37126450  0.87191394  1
  Zn  Zn89  1  0.62431480  -0.00086338  0.12099215  1
  Zn  Zn90  1  0.86581079  0.62690027  0.26081338  1
  Zn  Zn91  1  0.33094150  0.19752980  0.18327630  1
  Zn  Zn92  1  -0.01292307  0.10928685  0.12422983  1
  Zn  Zn93  1  0.00024719  0.00260125  0.50364965  1
  Zn  Zn94  1  0.50343261  -0.00307102  -0.00447052  1
  Zn  Zn95  1  0.87559743  0.75135726  0.62643871  1
  Zn  Zn96  1  0.48776502  0.49284545  -0.00100100  1
  Zn  Zn97  1  0.62863105  0.74645011  0.37279210  1
  Zn  Zn98  1  0.50188193  0.62280171  0.62794517  1
  Zn  Zn99  1  0.25773298  0.49128665  0.75704391  1
  Zn  Zn100  1  0.25100227  0.00888348  0.24182772  1
  Zn  Zn101  1  0.37301361  0.12397140  0.74637519  1
  Zn  Zn102  1  0.86823522  0.24145225  0.12121867  1
  Zn  Zn103  1  0.74903164  0.87546027  0.62448152  1
  Zn  Zn104  1  0.49240620  0.48099158  0.50566324  1
  Zn  Zn105  1  0.49589051  0.75239357  0.76002337  1
  Zn  Zn106  1  0.49166300  0.24864682  0.25015954  1
  Zn  Zn107  1  0.16621641  0.18502059  0.18470746  1
  Zn  Zn108  1  0.18609262  0.18778747  0.68397597  1
  Zn  Zn109  1  0.18712770  0.68590564  0.18932748  1
  Zn  Zn110  1  0.19166565  0.68633089  0.69043096  1
  Zn  Zn111  1  0.68583300  0.18456165  0.18472159  1
  Zn  Zn112  1  0.68768656  0.18745699  0.69085551  1
  Zn  Zn113  1  0.68204959  0.68545809  0.18859017  1
  Zn  Zn114  1  0.69137258  0.69387189  0.68378069  1
  Zn  Zn115  1  0.31171661  0.31889924  0.32207152  1
  Zn  Zn116  1  0.30586281  0.30966619  0.80894388  1
  Zn  Zn117  1  0.31334007  0.81641480  0.31383648  1
  Zn  Zn118  1  0.31220193  0.80932492  0.81407643  1
  Zn  Zn119  1  0.80731711  0.32119477  0.31482894  1
  Zn  Zn120  1  0.81568981  0.31227400  0.81846207  1
  Zn  Zn121  1  0.81349226  0.81457635  0.31377669  1
  Zn  Zn122  1  0.80571663  0.81073366  0.81088926  1
  Zn  Zn123  1  0.18690146  0.44002821  0.43746801  1
  Zn  Zn124  1  0.18763698  0.43269564  0.93933621  1
  Zn  Zn125  1  0.19033872  0.94303370  0.43578145  1
  Zn  Zn126  1  0.19296765  0.94049686  0.93585016  1
  Zn  Zn127  1  0.66099417  0.42455768  0.44812582  1
  Zn  Zn128  1  0.68846882  0.43835588  0.93707146  1
  Zn  Zn129  1  0.68995498  0.93604520  0.43572298  1
  Zn  Zn130  1  0.69351460  0.94045963  0.93629027  1
  Zn  Zn131  1  0.30725585  0.05838974  0.05388045  1
  Zn  Zn132  1  0.31206620  0.07005655  0.55720279  1
  Zn  Zn133  1  0.30988635  0.56060109  0.06599094  1
  Zn  Zn134  1  0.31184045  0.56374843  0.56496051  1
  Zn  Zn135  1  0.81482721  0.06150706  0.05484481  1
  Zn  Zn136  1  0.81585856  0.06321857  0.56272122  1
  Zn  Zn137  1  0.81138727  0.56250540  0.06540586  1
  Zn  Zn138  1  0.80889068  0.56238609  0.56622714  1
  Zn  Zn139  1  0.43234336  0.43742917  0.18900084  1
  Zn  Zn140  1  0.44225921  0.43570681  0.68887532  1
  Zn  Zn141  1  0.44047861  0.93757847  0.18172360  1
  Zn  Zn142  1  0.43792987  0.94069160  0.68715312  1
  Zn  Zn143  1  0.93507268  0.43594883  0.18872209  1
  Zn  Zn144  1  0.93822960  0.43741573  0.68875667  1
  Zn  Zn145  1  0.93645687  0.93070731  0.18654458  1
  Zn  Zn146  1  0.94755381  0.94499127  0.68880554  1
  Zn  Zn147  1  0.06375970  0.06292763  0.30800788  1
  Zn  Zn148  1  0.06010762  0.05868773  0.81249140  1
  Zn  Zn149  1  0.06273281  0.56464147  0.31710988  1
  Zn  Zn150  1  0.06192470  0.56623234  0.81480796  1
  Zn  Zn151  1  0.56612757  0.06185918  0.31077810  1
  Zn  Zn152  1  0.56507757  0.06242526  0.80987639  1
  Zn  Zn153  1  0.56175617  0.55904755  0.31066555  1
  Zn  Zn154  1  0.55555863  0.56102712  0.81396094  1
  Zn  Zn155  1  0.43667741  0.18680894  0.43393547  1
  Zn  Zn156  1  0.43672120  0.18672642  0.94233214  1
  Zn  Zn157  1  0.44222306  0.68482144  0.44195414  1
  Zn  Zn158  1  0.43980319  0.68694933  0.93646222  1
  Zn  Zn159  1  0.94143149  0.18927038  0.44078479  1
  Zn  Zn160  1  0.93178220  0.18385269  0.93283272  1
  Zn  Zn161  1  0.93600485  0.68548452  0.43643250  1
  Zn  Zn162  1  0.95395064  0.72240116  0.95543544  1
  Zn  Zn163  1  0.06322528  0.31286384  0.05930519  1
  Zn  Zn164  1  0.06341223  0.31368816  0.56689028  1
  Zn  Zn165  1  0.06015815  0.81824317  0.06169638  1
  Zn  Zn166  1  0.06165276  0.81502289  0.56479725  1
  Zn  Zn167  1  0.55745363  0.30677655  0.06225232  1
  Zn  Zn168  1  0.56429166  0.31342863  0.56208226  1
  Zn  Zn169  1  0.56422521  0.81019206  0.06517857  1
  Zn  Zn170  1  0.56306663  0.81208786  0.56506200  1
  O  O171  1  0.11223972  0.11470317  0.11111005  1
  O  O172  1  0.12037655  0.12248704  0.61456874  1
  O  O173  1  0.11905350  0.61749455  0.12123108  1
  O  O174  1  0.12323655  0.61858714  0.62167324  1
  O  O175  1  0.62185399  0.12190744  0.11282624  1
  O  O176  1  0.62034895  0.12156839  0.61809394  1
  O  O177  1  0.61680458  0.61696392  0.11621277  1
  O  O178  1  0.62655036  0.61595926  0.62825940  1
  O  O179  1  0.36959573  0.39134945  0.38736007  1
  O  O180  1  0.38711677  0.36750539  0.86899187  1
  O  O181  1  0.38018262  0.88413402  0.38475779  1
  O  O182  1  0.36698976  0.88276215  0.88354366  1
  O  O183  1  0.87739233  0.38307779  0.38881033  1
  O  O184  1  0.87173109  0.39256703  0.88352791  1
  O  O185  1  0.88150794  0.88310886  0.38243231  1
  O  O186  1  0.86997526  0.88075060  0.87069584  1
  O  O187  1  0.25686424  0.01069518  0.36819516  1
  O  O188  1  0.26114073  0.01090945  0.87254976  1
  O  O189  1  0.25702856  0.50929352  0.37414411  1
  O  O190  1  0.24611380  0.51190801  0.87750732  1
  O  O191  1  0.75815909  0.00679493  0.36739127  1
  O  O192  1  0.75919548  0.00371881  0.86530360  1
  O  O193  1  0.73902189  0.48847145  0.36173876  1
  O  O194  1  0.76020992  0.51340861  0.88180405  1
  O  O195  1  0.23557588  0.50999456  0.13950405  1
  O  O196  1  0.24385579  0.48959662  0.62666328  1
  O  O197  1  0.23950866  0.99325488  0.12432705  1
  O  O198  1  0.23757685  1.01401183  0.62713544  1
  O  O199  1  0.73732528  0.49265481  0.13033236  1
  O  O200  1  0.74087982  0.48664987  0.62575378  1
  O  O201  1  0.75272138  0.98959874  0.13145852  1
  O  O202  1  0.74435439  1.00244422  0.63096134  1
  O  O203  1  0.00778027  0.37215096  0.25815688  1
  O  O204  1  0.01761932  0.38209709  0.74724377  1
  O  O205  1  0.00663999  0.86658138  0.25643214  1
  O  O206  1  0.01211729  0.86246869  0.74521137  1
  O  O207  1  0.51450259  0.37249841  0.23820332  1
  O  O208  1  0.50987826  0.36822754  0.76091327  1
  O  O209  1  0.50579283  0.86731153  0.25341984  1
  O  O210  1  0.51483096  0.87756248  0.74581300  1
  O  O211  1  0.50784426  0.12210511  0.23239477  1
  O  O212  1  0.50260402  0.13666452  0.74187104  1
  O  O213  1  0.50906015  0.63506940  0.23926656  1
  O  O214  1  0.48971770  0.62838424  0.74858403  1
  O  O215  1  1.00351205  0.14303072  0.24840911  1
  O  O216  1  1.00964569  0.12568489  0.73586960  1
  O  O217  1  1.00150302  0.63076353  0.24585991  1
  O  O218  1  0.99346433  0.63331374  0.74485472  1
  O  O219  1  0.35993688  0.24525109  0.00456602  1
  O  O220  1  0.38537688  0.25493933  0.51062493  1
  O  O221  1  0.37056073  0.75504456  0.00567661  1
  O  O222  1  0.37027110  0.75756256  0.50643300  1
  O  O223  1  0.88200661  0.26829843  -0.00277201  1
  O  O224  1  0.86417081  0.26106064  0.49325501  1
  O  O225  1  0.85454414  0.73259223  0.01508534  1
  O  O226  1  0.87079770  0.75975649  0.50007274  1
  O  O227  1  0.11778912  0.24456287  0.48665265  1
  O  O228  1  0.13069890  0.23393948  1.00420194  1
  O  O229  1  0.13353899  0.74846503  0.49744466  1
  O  O230  1  0.13346669  0.74336724  0.99315067  1
  O  O231  1  0.63763036  0.24273080  0.49068165  1
  O  O232  1  0.62130611  0.24052126  0.98695049  1
  O  O233  1  0.63243057  0.74000468  0.50169424  1
  O  O234  1  0.63175818  0.73609119  1.00439874  1
  O  O235  1  0.50099603  0.23105943  0.12537551  1
  O  O236  1  0.49633655  0.25102726  0.63140894  1
  O  O237  1  0.49600320  0.74198976  0.13234300  1
  O  O238  1  0.48657774  0.74900914  0.62804944  1
  O  O239  1  0.99869261  0.25683733  0.14091146  1
  O  O240  1  1.00302258  0.23736570  0.62121663  1
  O  O241  1  0.99064259  0.74350600  0.13471347  1
  O  O242  1  0.99968643  0.74336460  0.63441686  1
  O  O243  1  0.00531564  0.25805139  0.36628691  1
  O  O244  1  -0.03272666  0.25749934  0.84771221  1
  O  O245  1  0.00800560  0.75571607  0.37263871  1
  O  O246  1  0.01685315  0.73535365  0.85942286  1
  O  O247  1  0.51821843  0.23621311  0.37099840  1
  O  O248  1  0.50778882  0.25694684  0.86812974  1
  O  O249  1  0.50028396  0.75469217  0.36702407  1
  O  O250  1  0.50654436  0.74859799  0.87333338  1
  O  O251  1  0.23680348  0.12466697  0.48505104  1
  O  O252  1  0.24140896  0.13229402  0.99120278  1
  O  O253  1  0.24576287  0.63571947  0.49402043  1
  O  O254  1  0.24765305  0.62794365  0.99475651  1
  O  O255  1  0.74866556  0.13148989  0.49188303  1
  O  O256  1  0.73643223  0.11794305  0.98650214  1
  O  O257  1  0.74023369  0.63578054  0.50757373  1
  O  O258  1  0.73835297  0.62789902  0.99562840  1
  O  O259  1  0.23893280  0.35214906  -0.00244808  1
  O  O260  1  0.24323550  0.37589090  0.51549819  1
  O  O261  1  0.25854774  0.86710699  0.00526403  1
  O  O262  1  0.26024823  0.86613334  0.49219254  1
  O  O263  1  0.75983636  0.38342421  0.00914165  1
  O  O264  1  0.75382897  0.36762511  0.50954098  1
  O  O265  1  0.73886176  0.86057272  0.01072180  1
  O  O266  1  0.76027480  0.87008644  0.50082516  1
  O  O267  1  0.12886473  0.49456600  0.24729828  1
  O  O268  1  0.12779344  0.50196479  0.73852339  1
  O  O269  1  0.12660160  0.99431963  0.23733025  1
  O  O270  1  0.12847753  0.98944884  0.74390980  1
  O  O271  1  0.63016241  0.49032236  0.24253517  1
  O  O272  1  0.62242280  0.48807213  0.74730076  1
  O  O273  1  0.63932937  0.99312981  0.24892771  1
  O  O274  1  0.63208339  0.99155443  0.74454348  1
  O  O275  1  0.37446871  -0.00718305  0.26240769  1
  O  O276  1  0.37132776  0.00376457  0.75528103  1
  O  O277  1  0.36014860  0.49261509  0.26314289  1
  O  O278  1  0.37471815  0.51269780  0.74289561  1
  O  O279  1  0.86518501  -0.00925856  0.26016364  1
  O  O280  1  0.86363052  -0.00731637  0.75289936  1
  O  O281  1  0.85539439  0.49584049  0.25117686  1
  O  O282  1  0.88330223  0.51334369  0.76144735  1
  O  O283  1  0.11810880  0.36982708  0.37127618  1
  O  O284  1  0.12242430  0.37963101  0.85994179  1
  O  O285  1  0.12247732  0.87199877  0.37026068  1
  O  O286  1  0.13434738  0.86193021  0.86728296  1
  O  O287  1  0.63897715  0.35821121  0.35624531  1
  O  O288  1  0.62815711  0.36667610  0.86872583  1
  O  O289  1  0.61767994  0.87432826  0.36930303  1
  O  O290  1  0.63085759  0.87792526  0.85986276  1
  O  O291  1  0.38621947  0.11562643  0.12145001  1
  O  O292  1  0.38094367  0.13752852  0.62382526  1
  O  O293  1  0.38769170  0.62987129  0.11944961  1
  O  O294  1  0.37611217  0.63373100  0.63286496  1
  O  O295  1  0.87881270  0.13032479  0.11325668  1
  O  O296  1  0.89531244  0.11879756  0.61819776  1
  O  O297  1  0.87743284  0.63208178  0.13441960  1
  O  O298  1  0.87996809  0.62381592  0.63637219  1
  O  O299  1  0.24543909  0.23724078  0.11706644  1
  O  O300  1  0.25972574  0.26265151  0.62845579  1
  O  O301  1  0.25527240  0.75172331  0.12052291  1
  O  O302  1  0.25985681  0.74509340  0.61318012  1
  O  O303  1  0.75066756  0.26372142  0.13043453  1
  O  O304  1  0.74300195  0.25741023  0.61437732  1
  O  O305  1  0.75300912  0.75365419  0.12327657  1
  O  O306  1  0.75749615  0.75644775  0.61226175  1
  O  O307  1  0.23552028  0.24399556  0.36960344  1
  O  O308  1  0.25446054  0.23559054  0.88492337  1
  O  O309  1  0.24766577  0.74569490  0.38353400  1
  O  O310  1  0.24278269  0.73893645  0.88047373  1
  O  O311  1  0.74620788  0.24196575  0.38025775  1
  O  O312  1  0.73925427  0.23790268  0.86523849  1
  O  O313  1  0.74708707  0.75677672  0.38824501  1
  O  O314  1  0.74302652  0.73955988  0.88555301  1
  O  O315  1  0.01394101  0.12926104  -0.01026045  1
  O  O316  1  0.01411497  0.12266664  0.50086984  1
  O  O317  1  0.00638809  0.62280362  0.00928959  1
  O  O318  1  0.00666156  0.62143781  0.50772622  1
  O  O319  1  0.50947718  0.12287402  0.00851558  1
  O  O320  1  0.50773764  0.12035032  0.50314119  1
  O  O321  1  0.50614141  0.61732002  0.00832006  1
  O  O322  1  0.51804679  0.62531580  0.50728651  1
  O  O323  1  0.55277175  0.38992471  0.48489054  1
  O  O324  1  0.50473886  0.37074457  0.98349045  1
  O  O325  1  0.49196440  0.88064366  0.49495974  1
  O  O326  1  0.48777836  0.87364271  1.00584964  1
  O  O327  1  0.99149020  0.37871403  0.49892816  1
  O  O328  1  0.99420989  0.38323500  0.99519372  1
  O  O329  1  0.99333906  0.87776906  0.49284214  1
  O  O330  1  0.98173061  0.82650655  0.98932878  1
  O  O331  1  0.48124357  0.50704404  0.37067976  1
  O  O332  1  0.49974404  0.48248321  0.87797090  1
  O  O333  1  0.49312077  0.99775507  0.37907328  1
  O  O334  1  0.48420550  1.00994510  0.87445125  1
  O  O335  1  1.00489307  0.49206940  0.38605079  1
  O  O336  1  0.99074978  0.50442791  0.88350704  1
  O  O337  1  0.99182922  0.99613292  0.37150037  1
  O  O338  1  0.98063184  1.00060952  0.86784575  1
  O  O339  1  0.01031433  -0.00760569  0.12655645  1
  O  O340  1  0.01645571  0.01186726  0.62312313  1
  O  O341  1  0.00745041  0.50471403  0.12314022  1
  O  O342  1  0.00957428  0.50531365  0.62072061  1
  O  O343  1  0.50518297  0.00945188  0.11955274  1
  O  O344  1  0.50489931  0.00879307  0.61769214  1
  O  O345  1  0.51165411  0.50758567  0.12946407  1
  O  O346  1  0.51615347  0.49772065  0.62315932  1
  O  O347  1  0.23350955  0.38720419  0.26127815  1
  O  O348  1  0.23762523  0.37688212  0.74417615  1
  O  O349  1  0.24368165  0.87492536  0.24180698  1
  O  O350  1  0.23893967  0.87233828  0.74806210  1
  O  O351  1  0.74062418  0.38420764  0.23773875  1
  O  O352  1  0.74398334  0.36332933  0.74227868  1
  O  O353  1  0.74539568  0.88109875  0.24279624  1
  O  O354  1  0.73993870  0.88371074  0.74414604  1
  O  O355  1  0.24571593  0.12935325  0.25697684  1
  O  O356  1  0.24873935  0.12905791  0.76454445  1
  O  O357  1  0.24211336  0.61581541  0.26367582  1
  O  O358  1  0.25824000  0.62161562  0.75871579  1
  O  O359  1  0.74783127  0.11527175  0.25781340  1
  O  O360  1  0.74099311  0.11276666  0.75927618  1
  O  O361  1  0.74205515  0.60596278  0.24599665  1
  O  O362  1  0.76036403  0.63532492  0.76034448  1
  O  O363  1  0.36343805  0.11686696  0.38100183  1
  O  O364  1  0.36341644  0.11843512  0.87546320  1
  O  O365  1  0.36328589  0.62343463  0.38020471  1
  O  O366  1  0.36521940  0.63040485  0.86621017  1
  O  O367  1  0.86703294  0.11632172  0.38156619  1
  O  O368  1  0.86001441  0.11275232  0.88069329  1
  O  O369  1  0.87582152  0.61741189  0.37279605  1
  O  O370  1  0.86662572  0.62077131  0.86979526  1
  O  O371  1  0.11834137  0.38683450  0.13591052  1
  O  O372  1  0.13535524  0.38033099  0.63350514  1
  O  O373  1  0.13014087  0.87838865  0.12699177  1
  O  O374  1  0.12296540  0.88628057  0.63094160  1
  O  O375  1  0.63003622  0.37903705  0.12572790  1
  O  O376  1  0.63430112  0.38075291  0.63781886  1
  O  O377  1  0.63518849  0.87505347  0.13212398  1
  O  O378  1  0.62578445  0.88449936  0.63112242  1
  O  O379  1  0.11348184  0.26041371  0.25799730  1
  O  O380  1  0.12592301  0.26154734  0.74867170  1
  O  O381  1  0.12099521  0.75591523  0.25664613  1
  O  O382  1  0.12204454  0.75509654  0.75416689  1
  O  O383  1  0.62431291  0.25351281  0.25439166  1
  O  O384  1  0.61569224  0.25812889  0.75685405  1
  O  O385  1  0.61452981  0.75530370  0.25188795  1
  O  O386  1  0.62655392  0.76725749  0.74700358  1
  O  O387  1  0.38017832  0.26253019  0.25597335  1
  O  O388  1  0.38766032  0.24981926  0.74240718  1
  O  O389  1  0.38746616  0.75726456  0.24437162  1
  O  O390  1  0.37212824  0.74319726  0.74055492  1
  O  O391  1  0.88773973  0.26121975  0.25291265  1
  O  O392  1  0.91137437  0.25557975  0.78673845  1
  O  O393  1  0.87901395  0.74829897  0.24411162  1
  O  O394  1  0.88411070  0.74213881  0.75121623  1
  O  O395  1  0.37976650  0.50910320  0.49046298  1
  O  O396  1  0.37631171  0.47038611  1.03504599  1
  O  O397  1  0.37876118  0.99464013  0.49254599  1
  O  O398  1  0.37547749  0.98852234  0.99064816  1
  O  O399  1  0.87968436  0.49094620  0.50490132  1
  O  O400  1  0.88105339  0.49729853  0.99624272  1
  O  O401  1  0.87565613  0.99227654  0.48710828  1
  O  O402  1  0.86908755  0.98896203  0.98657773  1
  O  O403  1  0.13091354  0.00922643  0.00717168  1
  O  O404  1  0.12501773  0.00795773  0.50560229  1
  O  O405  1  0.12151135  0.50352618  0.01008635  1
  O  O406  1  0.12119313  0.50520344  0.51182591  1
  O  O407  1  0.62266549  0.00790952  -0.00222733  1
  O  O408  1  0.62133144  0.00464986  0.50267801  1
  O  O409  1  0.62218173  0.50538724  0.00855924  1
  O  O410  1  0.63680797  0.51978679  0.51252250  1
  O  O411  1  0.37272871  0.41034313  0.09365611  1
  O  O412  1  0.36253056  0.37209080  0.63031953  1
  O  O413  1  0.36973655  0.86896200  0.11590555  1
  O  O414  1  0.37887435  0.86963086  0.61281479  1
  O  O415  1  0.86686814  0.37568571  0.11635118  1
  O  O416  1  0.86572388  0.37992457  0.61804507  1
  O  O417  1  0.86231705  0.86004909  0.13058993  1
  O  O418  1  0.88066405  0.87973951  0.61075176  1
  O  O419  1  0.13011019  0.13198118  0.37819274  1
  O  O420  1  0.13756600  0.11402357  0.88557076  1
  O  O421  1  0.13392162  0.63212987  0.38394098  1
  O  O422  1  0.13499796  0.63203353  0.88073752  1
  O  O423  1  0.63940446  0.12831495  0.37835315  1
  O  O424  1  0.62894162  0.13107396  0.87975074  1
  O  O425  1  0.62302901  0.62363938  0.38892575  1
  O  O426  1  0.63155785  0.61816654  0.88389707  1
