# generated using pymatgen
data_V85Zn86O256
_symmetry_space_group_name_H-M   'P 1'
_cell_length_a   16.96951915
_cell_length_b   16.96239114
_cell_length_c   16.96610571
_cell_angle_alpha   89.89610207
_cell_angle_beta   90.01457993
_cell_angle_gamma   90.08844506
_symmetry_Int_Tables_number   1
_chemical_formula_structural   V85Zn86O256
_chemical_formula_sum   'V85 Zn86 O256'
_cell_volume   4883.57130534
_cell_formula_units_Z   1
loop_
 _symmetry_equiv_pos_site_id
 _symmetry_equiv_pos_as_xyz
  1  'x, y, z'
loop_
 _atom_site_type_symbol
 _atom_site_label
 _atom_site_symmetry_multiplicity
 _atom_site_fract_x
 _atom_site_fract_y
 _atom_site_fract_z
 _atom_site_occupancy
  V  V0  1  -0.02374028  0.62496134  0.62715444  1
  V  V1  1  0.74873413  0.87061435  0.13018281  1
  V  V2  1  0.87611815  0.12812407  0.75625139  1
  V  V3  1  0.50275467  -0.00189701  0.50517488  1
  V  V4  1  0.37487160  0.87857418  -0.00213978  1
  V  V5  1  0.75110445  -0.00123250  0.24977163  1
  V  V6  1  0.26172274  0.14085692  0.38580322  1
  V  V7  1  0.50169184  0.62297597  0.12674056  1
  V  V8  1  0.50943031  0.87423031  0.37308799  1
  V  V9  1  0.37550670  0.12339222  0.25077486  1
  V  V10  1  0.75125389  0.00412034  0.75784994  1
  V  V11  1  0.24542991  0.49881413  0.25158198  1
  V  V12  1  0.75840238  0.87136747  0.62796880  1
  V  V13  1  0.37625077  0.00133226  0.37513073  1
  V  V14  1  0.24976425  0.24967149  -0.00664289  1
  V  V15  1  0.11278933  0.25306906  0.37004378  1
  V  V16  1  0.62553565  0.74828407  0.87660206  1
  V  V17  1  0.49857237  0.37411925  0.87438277  1
  V  V18  1  0.00156074  0.76255352  0.25181671  1
  V  V19  1  0.37162714  0.86730235  0.50165936  1
  V  V20  1  0.25759187  0.50295413  0.74806710  1
  V  V21  1  0.87804046  0.00536178  0.37619220  1
  V  V22  1  0.74428900  0.37985210  0.62074960  1
  V  V23  1  0.37425286  0.62359372  0.25255521  1
  V  V24  1  0.75409551  0.74770833  0.00612271  1
  V  V25  1  0.74949578  0.24736816  0.00410028  1
  V  V26  1  0.49343293  0.37926897  0.37502573  1
  V  V27  1  0.12069834  0.38133259  0.73795592  1
  V  V28  1  0.62622245  0.87247058  0.75302488  1
  V  V29  1  0.62904031  0.24639051  0.87321792  1
  V  V30  1  0.25253635  0.10417694  0.87384554  1
  V  V31  1  0.49426087  0.49772713  0.50204028  1
  V  V32  1  0.25294315  0.87655941  0.63389318  1
  V  V33  1  0.13221707  0.13218025  0.50375377  1
  V  V34  1  0.75382512  0.62375011  0.86776468  1
  V  V35  1  0.50274100  0.49885383  0.00521144  1
  V  V36  1  0.74047191  0.39097693  0.11731177  1
  V  V37  1  -0.00035590  0.00064712  0.00095425  1
  V  V38  1  0.62660106  0.62323427  0.50242188  1
  V  V39  1  0.12524181  0.74775502  0.87249519  1
  V  V40  1  0.37038314  0.10645819  0.75661784  1
  V  V41  1  0.12034910  0.50195115  0.12123416  1
  V  V42  1  -0.00005370  0.87266759  0.87499125  1
  V  V43  1  -0.01230028  0.74617781  0.74578013  1
  V  V44  1  0.12615614  0.12523996  -0.00009951  1
  V  V45  1  -0.00459234  0.49390304  0.49762400  1
  V  V46  1  0.49804758  0.12311210  0.63009908  1
  V  V47  1  -0.00790156  0.63168798  0.12716912  1
  V  V48  1  0.00247621  0.37830771  0.88383901  1
  V  V49  1  0.87369088  0.00326355  0.87752352  1
  V  V50  1  0.49848965  0.87502613  0.87748751  1
  V  V51  1  0.62974821  0.75145127  0.37311874  1
  V  V52  1  0.37249631  0.24818049  0.12350634  1
  V  V53  1  0.62407305  -0.00644104  0.13074963  1
  V  V54  1  0.49888191  0.12328212  0.12426413  1
  V  V55  1  0.24645528  0.63302151  0.37811894  1
  V  V56  1  0.37275346  0.74427200  0.62501590  1
  V  V57  1  0.00634738  0.00377228  0.50377210  1
  V  V58  1  0.88136338  0.50570896  0.87048996  1
  V  V59  1  0.62686253  0.61940223  0.00684936  1
  V  V60  1  0.86734983  0.24946463  0.61301591  1
  V  V61  1  0.12251130  0.62194934  -0.00051617  1
  V  V62  1  0.50534159  0.75128107  0.25176308  1
  V  V63  1  0.13076770  0.62810274  0.51286584  1
  V  V64  1  0.49210563  0.24724287  0.75091521  1
  V  V65  1  0.37454405  0.37599568  -0.00203091  1
  V  V66  1  0.24737956  0.37498156  0.12533245  1
  V  V67  1  0.50376118  0.25315442  0.24781619  1
  V  V68  1  0.50218039  0.61906165  0.62841942  1
  V  V69  1  0.13436067  0.00152174  0.63340602  1
  V  V70  1  0.24630981  0.87644093  0.13476230  1
  V  V71  1  -0.00012051  0.13346882  0.12767737  1
  V  V72  1  0.62042198  0.38916543  0.24305239  1
  V  V73  1  0.87564602  0.87055360  0.00563159  1
  V  V74  1  0.75369690  0.75094238  0.49777390  1
  V  V75  1  0.49525867  0.74267165  0.75214675  1
  V  V76  1  0.62867360  0.12221989  -0.00315554  1
  V  V77  1  0.24974918  0.74903831  0.00188790  1
  V  V78  1  0.49762412  -0.00228044  -0.00221147  1
  V  V79  1  0.25706781  0.37195772  0.61285535  1
  V  V80  1  0.87629736  0.12818025  0.24521704  1
  V  V81  1  0.62599791  0.00191589  0.62698553  1
  V  V82  1  0.88270262  0.87435716  0.50365363  1
  V  V83  1  0.37513512  0.74974667  0.12790791  1
  V  V84  1  0.12409240  -0.00208495  0.13536504  1
  Zn  Zn85  1  0.87451845  0.37583632  -0.00239862  1
  Zn  Zn86  1  0.87702765  0.25855341  0.12809493  1
  Zn  Zn87  1  0.00374072  0.12875904  0.62850533  1
  Zn  Zn88  1  0.87274340  0.62329422  0.26813242  1
  Zn  Zn89  1  0.13362681  0.76375805  0.37571672  1
  Zn  Zn90  1  0.10628590  0.36632527  0.24832362  1
  Zn  Zn91  1  0.01914517  0.88652033  0.36602622  1
  Zn  Zn92  1  0.74835902  0.50338419  0.74098073  1
  Zn  Zn93  1  0.12879673  0.87851972  0.75353155  1
  Zn  Zn94  1  0.74037838  0.13635208  0.40305522  1
  Zn  Zn95  1  0.76066977  0.50258908  0.27560493  1
  Zn  Zn96  1  -0.00083017  0.25314765  0.74862515  1
  Zn  Zn97  1  -0.05326458  0.42833206  0.32582190  1
  Zn  Zn98  1  0.62053334  0.38751412  0.74197579  1
  Zn  Zn99  1  0.24005700  -0.00277469  0.26283930  1
  Zn  Zn100  1  0.38128625  0.51605471  0.86976587  1
  Zn  Zn101  1  0.12319835  0.24834555  0.87107946  1
  Zn  Zn102  1  0.63683066  0.25036563  0.38734846  1
  Zn  Zn103  1  0.36538981  0.49636644  0.38375738  1
  Zn  Zn104  1  0.25612388  0.62554604  0.87049229  1
  Zn  Zn105  1  0.83134591  0.40276560  0.45594004  1
  Zn  Zn106  1  0.36151373  0.24525860  0.59403701  1
  Zn  Zn107  1  0.19030326  0.18327692  0.19217878  1
  Zn  Zn108  1  0.19072022  0.19168698  0.69298256  1
  Zn  Zn109  1  0.18363989  0.68873124  0.19059732  1
  Zn  Zn110  1  0.18917142  0.69060688  0.68960697  1
  Zn  Zn111  1  0.68482427  0.18532019  0.19312923  1
  Zn  Zn112  1  0.68695288  0.18858694  0.68930025  1
  Zn  Zn113  1  0.69207466  0.68008760  0.19281578  1
  Zn  Zn114  1  0.68764472  0.68807790  0.68409743  1
  Zn  Zn115  1  0.31234294  0.31365145  0.31158699  1
  Zn  Zn116  1  0.31120150  0.31482148  0.80628722  1
  Zn  Zn117  1  0.31827188  0.81300863  0.31399641  1
  Zn  Zn118  1  0.31373005  0.81044818  0.81369794  1
  Zn  Zn119  1  0.79804319  0.31293720  0.30197603  1
  Zn  Zn120  1  0.81136981  0.31624630  0.80810393  1
  Zn  Zn121  1  0.82484758  0.81036619  0.31620320  1
  Zn  Zn122  1  0.81212135  0.81364194  0.81824790  1
  Zn  Zn123  1  0.17234972  0.44318618  0.43817683  1
  Zn  Zn124  1  0.18844919  0.43966957  0.93303996  1
  Zn  Zn125  1  0.19177483  0.93832508  0.44667121  1
  Zn  Zn126  1  0.18300257  0.93266151  0.94675057  1
  Zn  Zn127  1  0.66901511  0.43106791  0.44127143  1
  Zn  Zn128  1  0.68642048  0.43839670  0.92950604  1
  Zn  Zn129  1  0.70491291  0.96207714  0.45425312  1
  Zn  Zn130  1  0.68638419  0.93534853  0.94052984  1
  Zn  Zn131  1  0.30964688  0.06033331  0.06332069  1
  Zn  Zn132  1  0.31825813  0.06380961  0.56340093  1
  Zn  Zn133  1  0.31271859  0.56195924  0.06096300  1
  Zn  Zn134  1  0.31091956  0.56068900  0.56670899  1
  Zn  Zn135  1  0.81194613  0.06127402  0.06391966  1
  Zn  Zn136  1  0.81775294  0.06605327  0.56807300  1
  Zn  Zn137  1  0.81928717  0.55961865  0.05185520  1
  Zn  Zn138  1  0.81197545  0.57032868  0.44243211  1
  Zn  Zn139  1  0.43096570  0.43886217  0.18600008  1
  Zn  Zn140  1  0.43384857  0.43241615  0.68318543  1
  Zn  Zn141  1  0.43743352  0.93479545  0.18871373  1
  Zn  Zn142  1  0.43809684  0.93080750  0.69155236  1
  Zn  Zn143  1  0.93068128  0.44539922  0.17053682  1
  Zn  Zn144  1  0.92957750  0.44093631  0.68213938  1
  Zn  Zn145  1  0.93626273  0.94080248  0.18498605  1
  Zn  Zn146  1  0.94404895  0.93868431  0.69035499  1
  Zn  Zn147  1  0.06194581  0.07574314  0.31779107  1
  Zn  Zn148  1  0.06246938  0.06408008  0.81467267  1
  Zn  Zn149  1  0.06326757  0.57019745  0.31362185  1
  Zn  Zn150  1  0.06479486  0.56258582  0.80435516  1
  Zn  Zn151  1  0.56469521  0.06550471  0.31716343  1
  Zn  Zn152  1  0.56179333  0.06035937  0.81420086  1
  Zn  Zn153  1  0.56357525  0.56638570  0.31884356  1
  Zn  Zn154  1  0.56724883  0.56087967  0.81550876  1
  Zn  Zn155  1  0.47065997  0.20495133  0.45506954  1
  Zn  Zn156  1  0.43553182  0.18377072  0.93530979  1
  Zn  Zn157  1  0.43747130  0.68391118  0.43806290  1
  Zn  Zn158  1  0.43567387  0.68818078  0.94036175  1
  Zn  Zn159  1  0.90322521  0.23402502  0.40377532  1
  Zn  Zn160  1  0.93728930  0.19115263  0.93762287  1
  Zn  Zn161  1  0.95092284  0.69388287  0.43893956  1
  Zn  Zn162  1  0.93995693  0.68647495  0.93788088  1
  Zn  Zn163  1  0.06575550  0.31358952  0.06284681  1
  Zn  Zn164  1  0.05912681  0.30748163  0.56392782  1
  Zn  Zn165  1  0.06381092  0.81077748  0.06450284  1
  Zn  Zn166  1  0.06716877  0.80920296  0.56405526  1
  Zn  Zn167  1  0.56393227  0.31142973  0.06190656  1
  Zn  Zn168  1  0.57000480  0.30815185  0.55909811  1
  Zn  Zn169  1  0.56442242  0.80863761  0.06355862  1
  Zn  Zn170  1  0.56445018  0.81225238  0.56413374  1
  O  O171  1  0.11954267  0.11875597  0.12082296  1
  O  O172  1  0.13009189  0.11963424  0.62085376  1
  O  O173  1  0.12071826  0.61956737  0.11734965  1
  O  O174  1  0.13207740  0.62798574  0.61351915  1
  O  O175  1  0.61813414  0.11501956  0.11695291  1
  O  O176  1  0.61382061  0.10917158  0.63821342  1
  O  O177  1  0.61944817  0.62995968  0.11244916  1
  O  O178  1  0.61309602  0.63480184  0.61404562  1
  O  O179  1  0.38822406  0.38006798  0.36695036  1
  O  O180  1  0.38873863  0.36946192  0.88015239  1
  O  O181  1  0.38457339  0.88097285  0.38366962  1
  O  O182  1  0.38079971  0.86594175  0.89072447  1
  O  O183  1  0.88380293  0.34591041  0.37463142  1
  O  O184  1  0.88861324  0.38135729  0.87167848  1
  O  O185  1  0.88212270  0.89110665  0.38561339  1
  O  O186  1  0.88021254  0.88192890  0.88696626  1
  O  O187  1  0.26602097  0.00617299  0.37957516  1
  O  O188  1  0.24513840  0.00539773  0.88219216  1
  O  O189  1  0.24594368  0.50633641  0.36537649  1
  O  O190  1  0.25524834  0.49939609  0.86244676  1
  O  O191  1  0.76098052  -0.01232646  0.35605656  1
  O  O192  1  0.75640759  -0.00994363  0.86584967  1
  O  O193  1  0.75844281  0.48145182  0.39059042  1
  O  O194  1  0.75977673  0.50979419  0.87562573  1
  O  O195  1  0.24215064  0.49634876  0.13137117  1
  O  O196  1  0.25713702  0.48638108  0.63873681  1
  O  O197  1  0.24048640  0.99392456  0.12857291  1
  O  O198  1  0.24447245  0.99075989  0.62123840  1
  O  O199  1  0.74718027  0.48952564  0.11019403  1
  O  O200  1  0.75672022  0.47879557  0.62373901  1
  O  O201  1  0.74312968  0.98920730  0.12834124  1
  O  O202  1  0.74285134  0.98952820  0.63911380  1
  O  O203  1  -0.00349299  0.37861520  0.23595990  1
  O  O204  1  0.01207611  0.38039584  0.75160224  1
  O  O205  1  -0.00100863  0.86674155  0.24403299  1
  O  O206  1  0.00461135  0.86557915  0.75700846  1
  O  O207  1  0.50282446  0.37351979  0.24930434  1
  O  O208  1  0.49994496  0.36447968  0.75649264  1
  O  O209  1  0.49468858  0.86696248  0.26317025  1
  O  O210  1  0.50648084  0.86417584  0.75746093  1
  O  O211  1  0.49506529  0.13331474  0.24287700  1
  O  O212  1  0.49063520  0.12600507  0.74874004  1
  O  O213  1  0.49539888  0.62945975  0.24608852  1
  O  O214  1  0.50825824  0.63491743  0.74376792  1
  O  O215  1  0.98966050  0.11971717  0.23827670  1
  O  O216  1  0.98981261  0.12692024  0.75025974  1
  O  O217  1  0.99780358  0.63067966  0.23635608  1
  O  O218  1  1.00375535  0.63114679  0.73614710  1
  O  O219  1  0.36775919  0.25384053  0.00451233  1
  O  O220  1  0.36804757  0.21455531  0.48900901  1
  O  O221  1  0.37044512  0.75855313  0.01016992  1
  O  O222  1  0.38538994  0.75854636  0.51114051  1
  O  O223  1  0.86082161  0.25280602  -0.00031464  1
  O  O224  1  0.87662618  0.23543808  0.51540861  1
  O  O225  1  0.86566681  0.75898241  -0.00627094  1
  O  O226  1  0.86892895  0.76822254  0.49471720  1
  O  O227  1  0.12054371  0.23816519  0.49231152  1
  O  O228  1  0.13543236  0.24358144  0.99908380  1
  O  O229  1  0.11825940  0.73290692  0.49420008  1
  O  O230  1  0.12977552  0.74408506  0.99157920  1
  O  O231  1  0.57806646  0.23148162  0.48184775  1
  O  O232  1  0.62805233  0.23997066  0.99440339  1
  O  O233  1  0.63248367  0.74767809  0.49402496  1
  O  O234  1  0.63339358  0.74099280  0.99570117  1
  O  O235  1  0.49236874  0.24485036  0.12822150  1
  O  O236  1  0.50148415  0.23455243  0.63696119  1
  O  O237  1  0.49626769  0.74401482  0.13163582  1
  O  O238  1  0.49489847  0.74377316  0.63397707  1
  O  O239  1  0.99699246  0.23746033  0.11587159  1
  O  O240  1  0.98515497  0.24835693  0.63059220  1
  O  O241  1  1.00584167  0.73997258  0.13367861  1
  O  O242  1  1.00539750  0.73978075  0.63535568  1
  O  O243  1  0.01539394  0.23472324  0.37361821  1
  O  O244  1  -0.00003204  0.26626826  0.87097851  1
  O  O245  1  0.00654551  0.76199287  0.36283906  1
  O  O246  1  0.00812879  0.75187610  0.86895199  1
  O  O247  1  0.49128353  0.26139446  0.35170025  1
  O  O248  1  0.50677981  0.25459772  0.87135428  1
  O  O249  1  0.50722090  0.75672534  0.37300584  1
  O  O250  1  0.50594799  0.75374857  0.87024823  1
  O  O251  1  0.24105820  0.11600963  0.49462920  1
  O  O252  1  0.24786576  0.13114433  0.99252421  1
  O  O253  1  0.23949731  0.61644783  0.49254191  1
  O  O254  1  0.23915855  0.63268954  1.00252108  1
  O  O255  1  0.74102770  0.06880464  0.49040329  1
  O  O256  1  0.73753863  0.13104029  1.00727426  1
  O  O257  1  0.74008102  0.64215547  0.50418509  1
  O  O258  1  0.74545191  0.63157789  0.99444894  1
  O  O259  1  0.25355335  0.36797537  0.00401955  1
  O  O260  1  0.23932913  0.38805518  0.51607479  1
  O  O261  1  0.25785083  0.86948390  0.01084396  1
  O  O262  1  0.26650675  0.87652422  0.51264600  1
  O  O263  1  0.74025460  0.36663170  0.00724290  1
  O  O264  1  0.73910663  0.36756092  0.51420928  1
  O  O265  1  0.75649152  0.86669671  0.00679068  1
  O  O266  1  0.76087513  0.87387315  0.51032536  1
  O  O267  1  0.13406098  0.50342623  0.23961506  1
  O  O268  1  0.13645115  0.48638913  0.75370100  1
  O  O269  1  0.12297160  1.00875442  0.23910530  1
  O  O270  1  0.12018242  0.99859646  0.73780805  1
  O  O271  1  0.62450150  0.49091023  0.25532316  1
  O  O272  1  0.63454501  0.49908072  0.75485058  1
  O  O273  1  0.63303640  1.00141933  0.23632135  1
  O  O274  1  0.63245169  0.99286475  0.74789428  1
  O  O275  1  0.37959757  0.00419166  0.26213115  1
  O  O276  1  0.37785781  0.00693652  0.75105199  1
  O  O277  1  0.36046611  0.50666270  0.24799109  1
  O  O278  1  0.36251548  0.49068722  0.75357409  1
  O  O279  1  0.87164901  0.00536127  0.25646522  1
  O  O280  1  0.86995117  0.00546593  0.75684974  1
  O  O281  1  0.87809462  0.50019211  0.25707029  1
  O  O282  1  0.86662923  0.49543823  0.76516956  1
  O  O283  1  0.12548265  0.35667459  0.37616713  1
  O  O284  1  0.11157383  0.37774534  0.86916685  1
  O  O285  1  0.13175536  0.87845303  0.37653956  1
  O  O286  1  0.11845281  0.86466971  0.87828836  1
  O  O287  1  0.61002333  0.36891707  0.36070442  1
  O  O288  1  0.61120012  0.36376154  0.87644900  1
  O  O289  1  0.61254879  0.86854696  0.38517863  1
  O  O290  1  0.62032889  0.86686908  0.87319297  1
  O  O291  1  0.37897147  0.12729818  0.12984208  1
  O  O292  1  0.38287973  0.12408760  0.63890154  1
  O  O293  1  0.38054739  0.63081771  0.13055399  1
  O  O294  1  0.38655192  0.63570177  0.61988439  1
  O  O295  1  0.88583349  0.12195113  0.12851490  1
  O  O296  1  0.87813660  0.13087308  0.63781495  1
  O  O297  1  0.89335843  0.62146936  0.11304094  1
  O  O298  1  0.88148970  0.63377921  0.62433231  1
  O  O299  1  0.25257360  0.25213259  0.11492307  1
  O  O300  1  0.24864065  0.26604578  0.62719381  1
  O  O301  1  0.25339108  0.75791527  0.12315943  1
  O  O302  1  0.26502601  0.75741037  0.63181323  1
  O  O303  1  0.74606565  0.25630841  0.11371431  1
  O  O304  1  0.76258697  0.24601137  0.62763815  1
  O  O305  1  0.74240000  0.75676216  0.11368322  1
  O  O306  1  0.74437456  0.76467240  0.61532012  1
  O  O307  1  0.24673244  0.24219724  0.37462304  1
  O  O308  1  0.24978758  0.25155744  0.88768904  1
  O  O309  1  0.25378177  0.73747925  0.37050952  1
  O  O310  1  0.23940773  0.75023143  0.88092045  1
  O  O311  1  0.75326833  0.24780552  0.38297304  1
  O  O312  1  0.73587357  0.25840226  0.88598099  1
  O  O313  1  0.74054461  0.76693626  0.38712301  1
  O  O314  1  0.74620658  0.74424181  0.88671340  1
  O  O315  1  0.00531447  0.12030357  0.00599385  1
  O  O316  1  0.01623976  0.11081191  0.50459569  1
  O  O317  1  0.01445988  0.63541566  0.01120437  1
  O  O318  1  0.00653244  0.62386366  0.51575354  1
  O  O319  1  0.50620397  0.11854642  0.00556224  1
  O  O320  1  0.49309267  0.10279385  0.51894205  1
  O  O321  1  0.50822223  0.61851138  0.00502793  1
  O  O322  1  0.50672875  0.62092483  0.50904908  1
  O  O323  1  0.50960556  0.38830243  0.48858500  1
  O  O324  1  0.49636149  0.38049254  0.99469751  1
  O  O325  1  0.49124716  0.87953264  0.49614185  1
  O  O326  1  0.49290989  0.87623534  0.99848737  1
  O  O327  1  1.01088769  0.39584259  0.51069764  1
  O  O328  1  1.00105235  0.37443102  0.98659962  1
  O  O329  1  0.99624886  0.88533421  0.50533670  1
  O  O330  1  0.99246032  0.87766958  0.99757928  1
  O  O331  1  0.49649634  0.49499766  0.38229782  1
  O  O332  1  0.49911070  0.49017839  0.88418548  1
  O  O333  1  0.49729051  0.99435787  0.38386725  1
  O  O334  1  0.50769802  0.98781706  0.88545260  1
  O  O335  1  1.00597063  0.50403326  0.38928357  1
  O  O336  1  0.99102672  0.49228868  0.86721274  1
  O  O337  1  0.99548562  1.00365673  0.38358270  1
  O  O338  1  0.99540492  0.99296364  0.88238838  1
  O  O339  1  0.00704031  0.00785722  0.11921823  1
  O  O340  1  0.01265544  0.00164359  0.61907168  1
  O  O341  1  0.01309654  0.51677780  0.12358752  1
  O  O342  1  -0.00891052  0.51634763  0.61783405  1
  O  O343  1  0.50748705  0.00102657  0.12038452  1
  O  O344  1  0.50675984  0.00049856  0.62626660  1
  O  O345  1  0.49439540  0.50550323  0.11264441  1
  O  O346  1  0.49386824  0.51069764  0.62019210  1
  O  O347  1  0.24687616  0.38460694  0.24352537  1
  O  O348  1  0.23959241  0.38174837  0.74451235  1
  O  O349  1  0.25906528  0.87908436  0.23821209  1
  O  O350  1  0.25105563  0.87295019  0.73910950  1
  O  O351  1  0.73859322  0.38117406  0.23150014  1
  O  O352  1  0.74302980  0.37143300  0.73771976  1
  O  O353  1  0.76280419  0.88003835  0.23552763  1
  O  O354  1  0.74791869  0.87943523  0.74571784  1
  O  O355  1  0.25988639  0.12092780  0.26471039  1
  O  O356  1  0.25912956  0.12985511  0.76341777  1
  O  O357  1  0.25347814  0.61839188  0.25667698  1
  O  O358  1  0.24282671  0.60612939  0.74772183  1
  O  O359  1  0.76239727  0.10692409  0.23289908  1
  O  O360  1  0.75834819  0.11077515  0.74740449  1
  O  O361  1  0.76113704  0.61151735  0.24127233  1
  O  O362  1  0.74660401  0.63232957  0.76549503  1
  O  O363  1  0.37568568  0.11318942  0.36981940  1
  O  O364  1  0.36481007  0.12380946  0.86989162  1
  O  O365  1  0.36597158  0.62127086  0.37045868  1
  O  O366  1  0.36960625  0.62884704  0.87593647  1
  O  O367  1  0.87279595  0.11524984  0.36420954  1
  O  O368  1  0.88010846  0.11623987  0.86844582  1
  O  O369  1  0.87411816  0.63917461  0.38139817  1
  O  O370  1  0.87034867  0.61394551  0.88079943  1
  O  O371  1  0.13037564  0.38552284  0.12397683  1
  O  O372  1  0.13144775  0.37248893  0.63590309  1
  O  O373  1  0.13522327  0.88576155  0.11788859  1
  O  O374  1  0.13791195  0.88155085  0.62493407  1
  O  O375  1  0.63169388  0.37832656  0.12696673  1
  O  O376  1  0.63733582  0.36183954  0.62875892  1
  O  O377  1  0.63528897  0.88325260  0.11718087  1
  O  O378  1  0.63289150  0.88182280  0.63400200  1
  O  O379  1  0.13003514  0.24781778  0.26446207  1
  O  O380  1  0.12362015  0.26630301  0.75446669  1
  O  O381  1  0.10887029  0.74528490  0.25308252  1
  O  O382  1  0.12054101  0.75094837  0.76258847  1
  O  O383  1  0.61153797  0.26567001  0.23678727  1
  O  O384  1  0.61166903  0.24054798  0.76238493  1
  O  O385  1  0.62090090  0.74301965  0.26339467  1
  O  O386  1  0.61769177  0.75411333  0.75659009  1
  O  O387  1  0.38002040  0.24468766  0.24044738  1
  O  O388  1  0.38754369  0.24123139  0.75477694  1
  O  O389  1  0.38376242  0.74307585  0.24600722  1
  O  O390  1  0.38831036  0.75522837  0.74195730  1
  O  O391  1  0.86345058  0.23156435  0.24351990  1
  O  O392  1  0.87337968  0.23725123  0.74940590  1
  O  O393  1  0.89496827  0.74615387  0.25246793  1
  O  O394  1  0.88862753  0.75304630  0.75952661  1
  O  O395  1  0.38923876  0.50716471  0.49948447  1
  O  O396  1  0.38454227  0.49343121  0.99722287  1
  O  O397  1  0.38447190  0.98917485  0.49439274  1
  O  O398  1  0.38164732  0.98676638  1.00958269  1
  O  O399  1  0.88999564  0.49664832  0.49647739  1
  O  O400  1  0.87365967  0.49122785  0.97835879  1
  O  O401  1  0.88918768  0.99568744  0.49541351  1
  O  O402  1  0.87901323  0.99255674  0.99615285  1
  O  O403  1  0.11873543  0.00659966  0.01089339  1
  O  O404  1  0.12296759  0.00737098  0.51194501  1
  O  O405  1  0.13337607  0.51028316  0.00885986  1
  O  O406  1  0.11071240  0.52025785  0.49834385  1
  O  O407  1  0.62094393  0.00528138  0.00859781  1
  O  O408  1  0.61035687  -0.01664579  0.51732179  1
  O  O409  1  0.61467808  0.50901951  -0.00739867  1
  O  O410  1  0.61174108  0.51578395  0.49663861  1
  O  O411  1  0.36685874  0.36869592  0.11751692  1
  O  O412  1  0.36306766  0.36538033  0.62158120  1
  O  O413  1  0.36806387  0.86947634  0.11892217  1
  O  O414  1  0.37285134  0.86692689  0.62033790  1
  O  O415  1  0.85520425  0.37447279  0.11637920  1
  O  O416  1  0.86400123  0.35753590  0.62760321  1
  O  O417  1  0.86593481  0.88150352  0.11147706  1
  O  O418  1  0.86726141  0.88655108  0.61790567  1
  O  O419  1  0.13993222  0.13319356  0.38358173  1
  O  O420  1  0.13476204  0.12709304  0.88113383  1
  O  O421  1  0.13646848  0.63021968  0.38044275  1
  O  O422  1  0.12513000  0.63173862  0.88235561  1
  O  O423  1  0.64081576  0.13954084  0.34306025  1
  O  O424  1  0.61835882  0.13134443  0.88791592  1
  O  O425  1  0.61951326  0.64060754  0.38920682  1
  O  O426  1  0.63412902  0.62989624  0.88768493  1
