# generated using pymatgen
data_V85Zn86O256
_symmetry_space_group_name_H-M   'P 1'
_cell_length_a   17.02051139
_cell_length_b   17.05361001
_cell_length_c   17.01230492
_cell_angle_alpha   90.01550710
_cell_angle_beta   90.23218801
_cell_angle_gamma   89.85264340
_symmetry_Int_Tables_number   1
_chemical_formula_structural   V85Zn86O256
_chemical_formula_sum   'V85 Zn86 O256'
_cell_volume   4937.95437590
_cell_formula_units_Z   1
loop_
 _symmetry_equiv_pos_site_id
 _symmetry_equiv_pos_as_xyz
  1  'x, y, z'
loop_
 _atom_site_type_symbol
 _atom_site_label
 _atom_site_symmetry_multiplicity
 _atom_site_fract_x
 _atom_site_fract_y
 _atom_site_fract_z
 _atom_site_occupancy
  V  V0  1  0.24968176  0.00109708  0.75067213  1
  V  V1  1  0.37398643  0.36045715  0.49252705  1
  V  V2  1  0.00180805  0.75050613  0.25228347  1
  V  V3  1  -0.00108570  -0.00169530  0.49918504  1
  V  V4  1  0.87504612  0.75126921  0.12820836  1
  V  V5  1  0.88077939  0.13737380  0.24128511  1
  V  V6  1  0.12404277  0.86976566  0.75033807  1
  V  V7  1  -0.01668574  0.37450215  0.87665258  1
  V  V8  1  0.50102337  0.87106553  0.87325142  1
  V  V9  1  0.75154813  0.37708524  0.62809652  1
  V  V10  1  0.75215082  0.12538630  0.37376911  1
  V  V11  1  0.87555646  0.87485106  0.00078233  1
  V  V12  1  0.87874902  0.00086402  0.37316801  1
  V  V13  1  0.87853437  0.37527780  0.49847360  1
  V  V14  1  0.37991222  -0.01571087  0.37837944  1
  V  V15  1  0.26004131  0.12817272  0.37396755  1
  V  V16  1  0.49939656  0.49822269  -0.00414292  1
  V  V17  1  0.75072632  -0.00490236  0.24940360  1
  V  V18  1  0.75110685  0.25324593  0.49847447  1
  V  V19  1  0.37890299  0.63881758  0.74707725  1
  V  V20  1  0.25624488  0.00576526  0.24915272  1
  V  V21  1  0.37909331  0.49824821  0.87138541  1
  V  V22  1  0.12180851  0.24659499  0.36675827  1
  V  V23  1  0.76544830  0.49251736  0.75976750  1
  V  V24  1  0.75042657  0.74932139  -0.00098581  1
  V  V25  1  0.49663112  0.12633862  0.13208370  1
  V  V26  1  0.12929970  -0.00003587  0.62258981  1
  V  V27  1  0.13324105  0.13015911  0.49716957  1
  V  V28  1  0.26754771  0.87268119  0.62216417  1
  V  V29  1  0.13239234  0.36733481  0.76317578  1
  V  V30  1  0.24576625  0.36485305  0.61553438  1
  V  V31  1  0.61849349  0.49892468  0.63178440  1
  V  V32  1  0.87531438  0.12666017  0.74892263  1
  V  V33  1  0.62438185  0.12559817  -0.00002153  1
  V  V34  1  0.64182663  0.73767321  0.36889978  1
  V  V35  1  0.75489258  0.37069546  0.12535903  1
  V  V36  1  0.87464550  0.62790100  0.25793260  1
  V  V37  1  0.12617720  0.62668057  -0.00151719  1
  V  V38  1  0.12484349  0.50330046  0.12338284  1
  V  V39  1  0.76083774  0.62086260  0.86958323  1
  V  V40  1  0.23518099  0.12703073  0.87809577  1
  V  V41  1  0.62805873  0.11183383  0.50255804  1
  V  V42  1  0.62435853  0.49969809  0.12334927  1
  V  V43  1  0.00090721  0.62630806  0.12563923  1
  V  V44  1  0.62636600  0.88460181  0.74224881  1
  V  V45  1  0.49903974  0.75151451  0.25333160  1
  V  V46  1  0.49975063  0.62436510  0.12341859  1
  V  V47  1  0.24514420  0.75082038  -0.00345553  1
  V  V48  1  0.75009116  0.12647211  0.87534652  1
  V  V49  1  0.11838383  0.37095596  0.24654260  1
  V  V50  1  0.61014597  0.24933347  0.87277339  1
  V  V51  1  0.74952608  0.50513323  0.25431879  1
  V  V52  1  0.62247200  0.74982263  0.86983590  1
  V  V53  1  0.25207051  0.49971121  0.25327777  1
  V  V54  1  0.48975221  0.49983683  0.49689768  1
  V  V55  1  0.24995399  0.87632795  0.12306336  1
  V  V56  1  0.38136633  0.37351858  -0.00495270  1
  V  V57  1  0.24774804  0.62699451  0.87249292  1
  V  V58  1  0.00378403  0.87550008  0.37665061  1
  V  V59  1  0.37399470  0.87439512  0.00003925  1
  V  V60  1  0.27149665  0.75576225  0.50006042  1
  V  V61  1  0.61970931  0.87538858  0.25289355  1
  V  V62  1  0.37529782  0.61960502  0.25160861  1
  V  V63  1  0.74532010  0.00290322  0.73679231  1
  V  V64  1  0.49972235  -0.00083594  0.00280022  1
  V  V65  1  0.12263296  0.00809742  0.12123270  1
  V  V66  1  0.01173760  0.50153214  0.49895967  1
  V  V67  1  0.00206349  0.00734236  0.00274725  1
  V  V68  1  0.37658519  0.24805943  0.12785346  1
  V  V69  1  0.62497264  0.00054617  0.12551776  1
  V  V70  1  0.37882772  0.13369663  0.75040631  1
  V  V71  1  0.62405463  0.62400178  -0.00404299  1
  V  V72  1  0.62247005  0.37473248  0.25097087  1
  V  V73  1  0.00382407  0.87126810  0.87149107  1
  V  V74  1  0.24905548  0.62464930  0.37984055  1
  V  V75  1  0.87282628  0.00147247  0.87683314  1
  V  V76  1  0.12899502  0.74836646  0.38282069  1
  V  V77  1  0.37263529  0.00107057  0.87745078  1
  V  V78  1  0.75361067  0.25186235  0.00253165  1
  V  V79  1  0.00091592  0.12910609  0.62518238  1
  V  V80  1  0.87652688  0.49907967  0.37424062  1
  V  V81  1  0.12798174  0.87599695  0.24945550  1
  V  V82  1  0.24083300  0.24756776  -0.00454815  1
  V  V83  1  0.62385585  0.25338644  0.37464891  1
  V  V84  1  0.60534296  0.36736402  0.75528658  1
  Zn  Zn85  1  0.49072873  0.37931131  0.36960741  1
  Zn  Zn86  1  0.01094987  0.15276039  0.13739753  1
  Zn  Zn87  1  0.75002374  0.87501166  0.12325159  1
  Zn  Zn88  1  0.48704452  -0.00655939  0.51512486  1
  Zn  Zn89  1  0.99809322  0.64028790  0.65754123  1
  Zn  Zn90  1  0.25090189  0.50160469  0.74093665  1
  Zn  Zn91  1  0.62746340  0.62467756  0.49619331  1
  Zn  Zn92  1  0.13090057  0.50995457  0.61705665  1
  Zn  Zn93  1  0.89741197  0.79292278  0.60950132  1
  Zn  Zn94  1  0.25169779  0.37397814  0.12376148  1
  Zn  Zn95  1  0.86976837  0.38370975  0.00224244  1
  Zn  Zn96  1  0.51413461  0.12681318  0.63517209  1
  Zn  Zn97  1  0.49205882  0.24830053  0.25320942  1
  Zn  Zn98  1  0.87844018  0.25091782  0.62719969  1
  Zn  Zn99  1  0.06954112  0.70265479  0.81524505  1
  Zn  Zn100  1  -0.01486632  0.50996395  -0.01572205  1
  Zn  Zn101  1  0.00932670  0.24093184  0.76653046  1
  Zn  Zn102  1  -0.00310489  0.36554797  0.36664596  1
  Zn  Zn103  1  0.48417789  0.63036014  0.62130648  1
  Zn  Zn104  1  0.37507722  0.74983942  0.12397435  1
  Zn  Zn105  1  0.74215689  0.76731785  0.54032848  1
  Zn  Zn106  1  0.38539025  0.25255053  0.63177545  1
  Zn  Zn107  1  0.19345939  0.18842121  0.18643258  1
  Zn  Zn108  1  0.19268512  0.18864872  0.68660385  1
  Zn  Zn109  1  0.18898378  0.68961785  0.18772457  1
  Zn  Zn110  1  0.19239777  0.68664343  0.67514364  1
  Zn  Zn111  1  0.68770859  0.18683525  0.18732504  1
  Zn  Zn112  1  0.68961611  0.19135929  0.68616484  1
  Zn  Zn113  1  0.68858669  0.68759610  0.18473283  1
  Zn  Zn114  1  0.63278704  0.71100282  0.66285724  1
  Zn  Zn115  1  0.30493115  0.31123532  0.31201490  1
  Zn  Zn116  1  0.30970872  0.31355385  0.81501069  1
  Zn  Zn117  1  0.31398815  0.81076390  0.30886784  1
  Zn  Zn118  1  0.30975622  0.81443633  0.81192697  1
  Zn  Zn119  1  0.80964177  0.31455809  0.31040862  1
  Zn  Zn120  1  0.80908777  0.30381063  0.81383955  1
  Zn  Zn121  1  0.81620226  0.81597679  0.40894789  1
  Zn  Zn122  1  0.80736946  0.81688517  0.81312317  1
  Zn  Zn123  1  0.19226518  0.43050985  0.43002485  1
  Zn  Zn124  1  0.19538576  0.44096768  0.94095795  1
  Zn  Zn125  1  0.19340961  0.93904684  0.43923913  1
  Zn  Zn126  1  0.18481482  0.93957258  0.93673620  1
  Zn  Zn127  1  0.68596207  0.44182303  0.44077232  1
  Zn  Zn128  1  0.68388136  0.43410294  0.93442448  1
  Zn  Zn129  1  0.63554223  0.89809897  0.46940753  1
  Zn  Zn130  1  0.68836751  0.93838622  0.93577397  1
  Zn  Zn131  1  0.31117549  0.06525338  0.06199454  1
  Zn  Zn132  1  0.31492884  0.06107255  0.56320144  1
  Zn  Zn133  1  0.31283380  0.56258631  0.06295383  1
  Zn  Zn134  1  0.30937901  0.55897664  0.56193974  1
  Zn  Zn135  1  0.81347411  0.06434962  0.06246529  1
  Zn  Zn136  1  0.80254330  -0.04964333  0.55166649  1
  Zn  Zn137  1  0.81007427  0.56396709  0.06476589  1
  Zn  Zn138  1  0.79187625  0.63004693  0.64419148  1
  Zn  Zn139  1  0.43613447  0.43631770  0.18200166  1
  Zn  Zn140  1  0.42957644  0.43901202  0.68235957  1
  Zn  Zn141  1  0.43617240  0.93744406  0.18848617  1
  Zn  Zn142  1  0.44257953  0.94903293  0.69233201  1
  Zn  Zn143  1  0.93751434  0.44082087  0.18237755  1
  Zn  Zn144  1  0.94580561  0.43607032  0.68402265  1
  Zn  Zn145  1  0.93817350  0.93911980  0.18792853  1
  Zn  Zn146  1  0.94033395  0.94605857  0.69295724  1
  Zn  Zn147  1  0.06597385  0.06442247  0.30843493  1
  Zn  Zn148  1  0.06076919  0.05452273  0.81250289  1
  Zn  Zn149  1  0.06257990  0.56115194  0.31658117  1
  Zn  Zn150  1  0.06133199  0.54220319  0.79852960  1
  Zn  Zn151  1  0.56230004  0.06241287  0.31478424  1
  Zn  Zn152  1  0.56079386  0.06068060  0.81726145  1
  Zn  Zn153  1  0.56213152  0.56260454  0.31425528  1
  Zn  Zn154  1  0.56533660  0.56136536  0.80607522  1
  Zn  Zn155  1  0.44581559  0.18401125  0.43876440  1
  Zn  Zn156  1  0.43054935  0.18287650  0.94086932  1
  Zn  Zn157  1  0.44143709  0.68267273  0.43121991  1
  Zn  Zn158  1  0.43453375  0.68773700  0.93535336  1
  Zn  Zn159  1  0.93960545  0.18626411  0.43556020  1
  Zn  Zn160  1  0.96553267  0.21682642  0.97399205  1
  Zn  Zn161  1  0.92234274  0.66852312  0.51088339  1
  Zn  Zn162  1  0.93711343  0.68893379  0.93998831  1
  Zn  Zn163  1  0.06297902  0.32406231  0.06239996  1
  Zn  Zn164  1  0.06406865  0.30961705  0.55620500  1
  Zn  Zn165  1  0.06256497  0.81611794  0.06186855  1
  Zn  Zn166  1  0.07388892  0.80962898  0.56433714  1
  Zn  Zn167  1  0.56387797  0.31100273  0.06143048  1
  Zn  Zn168  1  0.55883752  0.30834551  0.56517539  1
  Zn  Zn169  1  0.56374346  0.81098397  0.06390217  1
  Zn  Zn170  1  0.51244283  0.81134848  0.55578754  1
  O  O171  1  0.12242763  0.11188969  0.13377439  1
  O  O172  1  0.12327086  0.12141948  0.61681910  1
  O  O173  1  0.12083279  0.62061036  0.12156213  1
  O  O174  1  0.11339891  0.61840065  0.64061563  1
  O  O175  1  0.61731614  0.12044597  0.11924000  1
  O  O176  1  0.63405614  0.13297801  0.60411944  1
  O  O177  1  0.62047659  0.61836800  0.11691533  1
  O  O178  1  0.60250970  0.59337673  0.66605890  1
  O  O179  1  0.37213607  0.36939761  0.38728041  1
  O  O180  1  0.36758181  0.38584285  0.88462289  1
  O  O181  1  0.37180268  0.88556316  0.37324358  1
  O  O182  1  0.38221790  0.87991449  0.87934287  1
  O  O183  1  0.87499778  0.37984492  0.37912540  1
  O  O184  1  0.88195547  0.37439698  0.87171118  1
  O  O185  1  0.89263301  0.88866831  0.36882179  1
  O  O186  1  0.88207777  0.88104130  0.87917971  1
  O  O187  1  0.25958996  0.00679150  0.36758494  1
  O  O188  1  0.25366191  0.00756727  0.87300638  1
  O  O189  1  0.24268034  0.51054944  0.36203560  1
  O  O190  1  0.26127428  0.51323126  0.87687672  1
  O  O191  1  0.76286895  0.01198728  0.36444018  1
  O  O192  1  0.75491839  0.01026647  0.87320687  1
  O  O193  1  0.75924901  0.49247666  0.36282608  1
  O  O194  1  0.74660158  0.50337074  0.86559878  1
  O  O195  1  0.24026886  0.50336002  0.13449830  1
  O  O196  1  0.24820738  0.48421802  0.62226824  1
  O  O197  1  0.24373704  0.99811193  0.12992471  1
  O  O198  1  0.24666396  0.99174228  0.62903580  1
  O  O199  1  0.74179751  0.49173788  0.13480631  1
  O  O200  1  0.73756338  0.48704386  0.64276133  1
  O  O201  1  0.74276274  1.00274208  0.13341148  1
  O  O202  1  0.74918214  1.00626875  0.63860422  1
  O  O203  1  0.01471301  0.38093673  0.24606000  1
  O  O204  1  0.01309975  0.37176489  0.76069066  1
  O  O205  1  0.00839404  0.87281859  0.25808144  1
  O  O206  1  0.01092603  0.88309738  0.75903993  1
  O  O207  1  0.51141992  0.37663924  0.25050262  1
  O  O208  1  0.50787073  0.37333968  0.74424681  1
  O  O209  1  0.50769918  0.86282572  0.23945159  1
  O  O210  1  0.51231809  0.88708471  0.76585591  1
  O  O211  1  0.50723524  0.12897482  0.23531669  1
  O  O212  1  0.48090400  0.11879978  0.75759325  1
  O  O213  1  0.49283378  0.62651039  0.24387190  1
  O  O214  1  0.47926320  0.62099804  0.75683513  1
  O  O215  1  0.98611075  0.12255842  0.24834837  1
  O  O216  1  0.99605493  0.12310111  0.74370244  1
  O  O217  1  0.99431341  0.62950901  0.24657962  1
  O  O218  1  0.99855943  0.62852956  0.77122728  1
  O  O219  1  0.37185745  0.25839262  0.00704835  1
  O  O220  1  0.38151810  0.26017511  0.50060902  1
  O  O221  1  0.36475348  0.75582490  0.00180808  1
  O  O222  1  0.37209028  0.75169523  0.49311250  1
  O  O223  1  0.85381128  0.25806020  -0.01005025  1
  O  O224  1  0.86986720  0.25925200  0.49763861  1
  O  O225  1  0.87012180  0.75540753  0.00825940  1
  O  O226  1  0.85159818  0.75363817  0.50011510  1
  O  O227  1  0.12273730  0.23605050  0.48747152  1
  O  O228  1  0.14437249  0.25941173  1.00298567  1
  O  O229  1  0.14074386  0.75505307  0.48457223  1
  O  O230  1  0.13694434  0.74435699  1.00500784  1
  O  O231  1  0.63217950  0.25196895  0.48727271  1
  O  O232  1  0.63104316  0.24528366  0.99185926  1
  O  O233  1  0.62549702  0.75704847  0.46794344  1
  O  O234  1  0.62973842  0.74411389  0.99063078  1
  O  O235  1  0.49394809  0.24265964  0.12476122  1
  O  O236  1  0.49676565  0.23644220  0.62140155  1
  O  O237  1  0.50036874  0.74074124  0.13291850  1
  O  O238  1  0.52658603  0.73342908  0.62530188  1
  O  O239  1  0.99039712  0.24464891  0.08298593  1
  O  O240  1  1.00140210  0.23582486  0.62216699  1
  O  O241  1  0.99704189  0.74608020  0.13190857  1
  O  O242  1  0.99474806  0.73925341  0.59444545  1
  O  O243  1  0.01559111  0.24708862  0.37277291  1
  O  O244  1  0.00448178  0.26893868  0.87957198  1
  O  O245  1  0.01334756  0.76430673  0.37023208  1
  O  O246  1  -0.00046182  0.76715967  0.88176408  1
  O  O247  1  0.51170400  0.25385040  0.37054134  1
  O  O248  1  0.51173040  0.24116393  0.88298515  1
  O  O249  1  0.50954698  0.73964820  0.35596657  1
  O  O250  1  0.50866816  0.76083541  0.88211089  1
  O  O251  1  0.23948510  0.11702703  0.49025329  1
  O  O252  1  0.25396890  0.13827578  0.99280601  1
  O  O253  1  0.26170776  0.63382118  0.48566119  1
  O  O254  1  0.24722286  0.63275178  0.99368623  1
  O  O255  1  0.74224951  0.13594384  0.48250167  1
  O  O256  1  0.74409430  0.13287525  0.99667742  1
  O  O257  1  0.70032981  0.66836440  0.57542963  1
  O  O258  1  0.74217186  0.62897387  0.99115714  1
  O  O259  1  0.26172792  0.36387937  0.00110803  1
  O  O260  1  0.26415493  0.37722073  0.50504526  1
  O  O261  1  0.25321798  0.86847367  0.00149888  1
  O  O262  1  0.25058658  0.86872834  0.51011618  1
  O  O263  1  0.74380382  0.36910843  0.00946132  1
  O  O264  1  0.75767108  0.37439538  0.50825939  1
  O  O265  1  0.75722932  0.86846634  -0.00049588  1
  O  O266  1  0.74386319  0.87285905  0.49214358  1
  O  O267  1  0.13296090  0.49524529  0.24238541  1
  O  O268  1  0.13185600  0.47580629  0.73945432  1
  O  O269  1  0.13466159  0.99421315  0.24322011  1
  O  O270  1  0.13206160  0.99318692  0.74181106  1
  O  O271  1  0.63137715  0.49397227  0.24646484  1
  O  O272  1  0.62830010  0.47545114  0.75326002  1
  O  O273  1  0.62965864  0.99462041  0.24664179  1
  O  O274  1  0.63093461  0.99415748  0.75608709  1
  O  O275  1  0.36209275  -0.00445841  0.25725224  1
  O  O276  1  0.36584727  0.00840111  0.76032824  1
  O  O277  1  0.36438668  0.50710001  0.24194165  1
  O  O278  1  0.37023758  0.50061381  0.76072962  1
  O  O279  1  0.86923027  0.00776309  0.25610530  1
  O  O280  1  0.86526392  0.00857673  0.75772313  1
  O  O281  1  0.86891319  0.50489952  0.25434595  1
  O  O282  1  0.86309432  0.48713020  0.74752110  1
  O  O283  1  0.12717723  0.36256434  0.36283908  1
  O  O284  1  0.14062939  0.37344475  0.86264498  1
  O  O285  1  0.12342537  0.87110285  0.36874720  1
  O  O286  1  0.11662160  0.88319566  0.86352258  1
  O  O287  1  0.62903784  0.36822688  0.36626895  1
  O  O288  1  0.62332245  0.36451492  0.86282831  1
  O  O289  1  0.62764714  0.86299965  0.35364057  1
  O  O290  1  0.61651895  0.86797689  0.87662240  1
  O  O291  1  0.38600700  0.13515494  0.11683459  1
  O  O292  1  0.36286388  0.12705369  0.64588467  1
  O  O293  1  0.38052322  0.62579314  0.13421204  1
  O  O294  1  0.37012598  0.61694679  0.64282237  1
  O  O295  1  0.87359840  0.12271039  0.14014040  1
  O  O296  1  0.88872104  0.12505440  0.63898353  1
  O  O297  1  0.88161465  0.63075202  0.13519718  1
  O  O298  1  0.89486254  0.61218312  0.60925353  1
  O  O299  1  0.26017493  0.24732755  0.11234859  1
  O  O300  1  0.25868677  0.26238757  0.62458928  1
  O  O301  1  0.25158025  0.75730157  0.11539353  1
  O  O302  1  0.25087846  0.76012997  0.61052577  1
  O  O303  1  0.73809340  0.25975245  0.11477810  1
  O  O304  1  0.75319797  0.26368225  0.61922257  1
  O  O305  1  0.75635701  0.75098705  0.11696514  1
  O  O306  1  0.78098214  0.74600209  0.67222693  1
  O  O307  1  0.23592886  0.23801810  0.36693584  1
  O  O308  1  0.25516118  0.24189506  0.88867828  1
  O  O309  1  0.24770446  0.74487761  0.37934913  1
  O  O310  1  0.25515113  0.74020797  0.88597173  1
  O  O311  1  0.74276161  0.24460824  0.37652936  1
  O  O312  1  0.73717609  0.24356986  0.88239512  1
  O  O313  1  0.74052780  0.74741188  0.35750311  1
  O  O314  1  0.74135575  0.74215633  0.87912052  1
  O  O315  1  -0.00687584  0.10574313  -0.00604896  1
  O  O316  1  0.00845531  0.11647084  0.50460197  1
  O  O317  1  0.00856458  0.62538503  0.00537427  1
  O  O318  1  0.00571790  0.59930486  0.48112774  1
  O  O319  1  0.50514646  0.11768203  0.00873871  1
  O  O320  1  0.52252063  0.11556717  0.48930149  1
  O  O321  1  0.50417026  0.61951747  0.00331438  1
  O  O322  1  0.50176913  0.60992002  0.50096629  1
  O  O323  1  0.48790332  0.38118845  0.49849495  1
  O  O324  1  0.48987899  0.38218720  1.00478653  1
  O  O325  1  0.52469497  0.89218954  0.48878793  1
  O  O326  1  0.49484008  0.87943789  0.99442196  1
  O  O327  1  0.99015501  0.37484330  0.49361544  1
  O  O328  1  0.99373784  0.38052312  0.98600945  1
  O  O329  1  1.01476077  0.89068764  0.48766975  1
  O  O330  1  0.99519193  0.88336714  0.99233143  1
  O  O331  1  0.51251379  0.49397544  0.39289336  1
  O  O332  1  0.48745318  0.50730382  0.88170351  1
  O  O333  1  0.47843777  1.00639982  0.36435561  1
  O  O334  1  0.49409696  0.99135755  0.88517672  1
  O  O335  1  0.99262363  0.48851742  0.37605743  1
  O  O336  1  1.01259923  0.47713102  0.87582352  1
  O  O337  1  0.99865226  0.99635797  0.37846090  1
  O  O338  1  0.99351212  0.99043334  0.88235222  1
  O  O339  1  0.00933144  -0.00245816  0.11795136  1
  O  O340  1  0.01002738  0.01252371  0.61670493  1
  O  O341  1  0.01403772  0.50831432  0.12639390  1
  O  O342  1  0.00710545  0.48914227  0.60417971  1
  O  O343  1  0.50391770  0.00732032  0.12211377  1
  O  O344  1  0.49443305  0.01774190  0.62417563  1
  O  O345  1  0.50567269  0.50540750  0.11708716  1
  O  O346  1  0.50289503  0.49219948  0.60985024  1
  O  O347  1  0.24142957  0.38570087  0.24664219  1
  O  O348  1  0.24371742  0.37195244  0.73715669  1
  O  O349  1  0.24628309  0.88314874  0.24297739  1
  O  O350  1  0.24394397  0.88190602  0.74399935  1
  O  O351  1  0.74006737  0.38257603  0.24353316  1
  O  O352  1  0.74846582  0.37782974  0.74462744  1
  O  O353  1  0.74145679  0.89151392  0.24589559  1
  O  O354  1  0.73382401  0.89177458  0.76265952  1
  O  O355  1  0.24568089  0.11350120  0.25896154  1
  O  O356  1  0.25515942  0.12026071  0.75992737  1
  O  O357  1  0.25714167  0.61984633  0.25511154  1
  O  O358  1  0.25847763  0.62364321  0.75896083  1
  O  O359  1  0.75586223  0.11842204  0.25628241  1
  O  O360  1  0.75540406  0.12193893  0.75426856  1
  O  O361  1  0.75970911  0.61227397  0.24080605  1
  O  O362  1  0.74947167  0.59861026  0.75484372  1
  O  O363  1  0.36192881  0.12968917  0.37928937  1
  O  O364  1  0.36403143  0.11903537  0.86914178  1
  O  O365  1  0.36617073  0.62752280  0.35898027  1
  O  O366  1  0.36702270  0.61881011  0.86768212  1
  O  O367  1  0.87058528  0.12038748  0.36430049  1
  O  O368  1  0.86813316  0.11918996  0.86223168  1
  O  O369  1  0.87818526  0.61031007  0.36168022  1
  O  O370  1  0.85869938  0.63279794  0.87846569  1
  O  O371  1  0.13011893  0.38678778  0.12983165  1
  O  O372  1  0.14090706  0.37024442  0.61773312  1
  O  O373  1  0.13124673  0.88444637  0.13055043  1
  O  O374  1  0.13238921  0.88234031  0.63300274  1
  O  O375  1  0.62985038  0.38036777  0.13406271  1
  O  O376  1  0.63076341  0.37656824  0.63676438  1
  O  O377  1  0.62782866  0.88155174  0.13272989  1
  O  O378  1  0.62319706  0.87240244  0.64663902  1
  O  O379  1  0.12975813  0.26020374  0.25009426  1
  O  O380  1  0.12466663  0.26365968  0.74273106  1
  O  O381  1  0.12253100  0.75731277  0.25706247  1
  O  O382  1  0.13484620  0.76617537  0.74712625  1
  O  O383  1  0.62703047  0.26001854  0.25803955  1
  O  O384  1  0.62810658  0.26002529  0.75735738  1
  O  O385  1  0.61897435  0.75336678  0.25094705  1
  O  O386  1  0.62945860  0.76836870  0.76475450  1
  O  O387  1  0.37417011  0.26116607  0.23274383  1
  O  O388  1  0.37060815  0.23594109  0.75670127  1
  O  O389  1  0.38251797  0.74081786  0.24549016  1
  O  O390  1  0.37125266  0.73762173  0.75475657  1
  O  O391  1  0.86814341  0.23545348  0.25326581  1
  O  O392  1  0.87973483  0.23818512  0.74894316  1
  O  O393  1  0.88498162  0.73850516  0.24597063  1
  O  O394  1  0.85051628  0.76345033  0.72067564  1
  O  O395  1  0.38745246  0.49366373  0.49919681  1
  O  O396  1  0.37852414  0.49323338  0.99385694  1
  O  O397  1  0.37339241  1.00513736  0.48216785  1
  O  O398  1  0.37877205  0.99407892  0.99648606  1
  O  O399  1  0.88626142  0.48598825  0.48548678  1
  O  O400  1  0.87681396  0.49632614  1.00989332  1
  O  O401  1  0.88700856  1.00822504  0.48195998  1
  O  O402  1  0.88033863  0.99370001  0.99677802  1
  O  O403  1  0.11663381  -0.00593183  0.01166689  1
  O  O404  1  0.11878736  0.00987628  0.50187093  1
  O  O405  1  0.13103046  0.50821903  0.01174268  1
  O  O406  1  0.11370331  0.48573347  0.49159716  1
  O  O407  1  0.62015784  0.00545817  0.00572531  1
  O  O408  1  0.64255582  0.01540580  0.49224621  1
  O  O409  1  0.61915553  0.50427303  0.00208109  1
  O  O410  1  0.62177128  0.50337483  0.51557122  1
  O  O411  1  0.37251694  0.36805757  0.11301065  1
  O  O412  1  0.36552989  0.37224495  0.61303591  1
  O  O413  1  0.36728307  0.87546141  0.11705101  1
  O  O414  1  0.36603312  0.87994344  0.63527783  1
  O  O415  1  0.85712958  0.37632444  0.13065636  1
  O  O416  1  0.86878934  0.37386338  0.61547492  1
  O  O417  1  0.87421351  0.86866424  0.12020015  1
  O  O418  1  0.88325131  0.90122032  0.61132141  1
  O  O419  1  0.13304607  0.12807027  0.37859373  1
  O  O420  1  0.13604427  0.12020505  0.86984862  1
  O  O421  1  0.13829265  0.63720492  0.36507484  1
  O  O422  1  0.13698028  0.62274043  0.87917845  1
  O  O423  1  0.63394919  0.13430082  0.37621732  1
  O  O424  1  0.63013808  0.13033433  0.88038607  1
  O  O425  1  0.63034498  0.63224858  0.37548944  1
  O  O426  1  0.63085484  0.63286620  0.87526013  1
