# generated using pymatgen
data_V85Zn86O256
_symmetry_space_group_name_H-M   'P 1'
_cell_length_a   16.97627939
_cell_length_b   16.95763492
_cell_length_c   16.97376768
_cell_angle_alpha   90.16412563
_cell_angle_beta   89.95330536
_cell_angle_gamma   89.81262587
_symmetry_Int_Tables_number   1
_chemical_formula_structural   V85Zn86O256
_chemical_formula_sum   'V85 Zn86 O256'
_cell_volume   4886.31878551
_cell_formula_units_Z   1
loop_
 _symmetry_equiv_pos_site_id
 _symmetry_equiv_pos_as_xyz
  1  'x, y, z'
loop_
 _atom_site_type_symbol
 _atom_site_label
 _atom_site_symmetry_multiplicity
 _atom_site_fract_x
 _atom_site_fract_y
 _atom_site_fract_z
 _atom_site_occupancy
  V  V0  1  0.62568401  0.62388783  0.00066650  1
  V  V1  1  0.37871210  0.49515846  0.37676768  1
  V  V2  1  0.49905832  0.49384043  0.49729941  1
  V  V3  1  0.24867311  0.00410343  0.25280191  1
  V  V4  1  0.62316282  0.74832456  0.37052241  1
  V  V5  1  -0.00491800  -0.00573676  0.00272697  1
  V  V6  1  0.11472071  0.37563463  0.75449384  1
  V  V7  1  -0.00252450  0.87382477  0.87288645  1
  V  V8  1  0.24998147  0.62773948  0.37551575  1
  V  V9  1  0.12202278  0.37148615  0.25472710  1
  V  V10  1  -0.00648057  0.74624325  0.24944872  1
  V  V11  1  0.11855889  0.62546185  0.50356841  1
  V  V12  1  0.12262663  0.75542955  0.86926739  1
  V  V13  1  0.62863895  0.88100504  0.25164380  1
  V  V14  1  -0.00276195  0.62468458  0.12542372  1
  V  V15  1  0.11604819  0.50476706  0.62606274  1
  V  V16  1  0.25122186  0.12404749  0.37375439  1
  V  V17  1  0.62247944  0.37644108  0.24042480  1
  V  V18  1  0.87460449  0.75323732  0.12267786  1
  V  V19  1  0.88239105  0.11907456  0.75008053  1
  V  V20  1  0.88416453  0.49682276  0.87476368  1
  V  V21  1  0.50048686  0.87046397  0.36661235  1
  V  V22  1  0.75083985  0.87019884  0.62354280  1
  V  V23  1  -0.00285069  0.88337947  0.37296655  1
  V  V24  1  0.86961721  -0.00126904  0.88026091  1
  V  V25  1  0.37816439  0.75427951  0.12663124  1
  V  V26  1  0.50494968  0.00352041  -0.00384055  1
  V  V27  1  0.60964196  0.25837594  0.37465269  1
  V  V28  1  0.50214492  0.62766034  0.12632425  1
  V  V29  1  0.25005810  0.24580058  0.00274078  1
  V  V30  1  0.87293386  0.86926406  0.50042960  1
  V  V31  1  0.24043950  0.12195311  0.86816037  1
  V  V32  1  0.26001330  0.36755630  0.12684829  1
  V  V33  1  0.24994821  0.62468357  0.87536764  1
  V  V34  1  0.24652959  0.24914124  0.50829275  1
  V  V35  1  0.38847759  0.24731863  0.63012396  1
  V  V36  1  0.25006832  0.75110357  0.00002994  1
  V  V37  1  0.86581993  0.11954745  0.25092653  1
  V  V38  1  0.12268643  0.00755858  0.11903343  1
  V  V39  1  0.24881423  0.87680993  0.12254728  1
  V  V40  1  0.62000833  0.00966178  0.62690924  1
  V  V41  1  0.50035941  0.49569005  -0.00625202  1
  V  V42  1  0.24901578  0.49835973  0.75013147  1
  V  V43  1  0.37795540  0.37230818  -0.00671117  1
  V  V44  1  0.11806478  0.25570617  0.37628048  1
  V  V45  1  0.88285320  0.37323042  0.49646155  1
  V  V46  1  0.38069372  0.63186230  0.25074628  1
  V  V47  1  0.38757859  0.12536231  0.74737438  1
  V  V48  1  0.86340027  0.25615568  0.12669221  1
  V  V49  1  0.11890467  0.12167791  0.50963849  1
  V  V50  1  0.62551225  0.49768049  0.62494527  1
  V  V51  1  0.88281147  0.24063276  0.62579277  1
  V  V52  1  0.37477094  0.75162260  0.62534658  1
  V  V53  1  0.75295561  0.62160921  0.36684121  1
  V  V54  1  0.49972606  0.00472785  0.50465686  1
  V  V55  1  0.88040165  0.49693469  0.36788510  1
  V  V56  1  0.37518030  0.62433045  0.75012402  1
  V  V57  1  0.75508697  0.62404144  0.87463197  1
  V  V58  1  0.37427911  0.87498396  0.49836765  1
  V  V59  1  0.11890317  0.25441287  0.87931228  1
  V  V60  1  0.25227046  0.50082181  0.25015093  1
  V  V61  1  0.50115382  0.62542271  0.62530060  1
  V  V62  1  0.12394790  0.74965462  0.37377942  1
  V  V63  1  0.74981440  0.24247779  0.49652977  1
  V  V64  1  0.75194081  0.37242603  0.62755918  1
  V  V65  1  0.24634704  0.88617831  0.63658451  1
  V  V66  1  0.87935681  0.63239677  0.73619771  1
  V  V67  1  0.62129769  0.75225020  0.87454043  1
  V  V68  1  0.75348056  0.24879521  -0.01669196  1
  V  V69  1  0.61386680  0.37235470  0.75674516  1
  V  V70  1  0.12219673  0.87585654  0.24777800  1
  V  V71  1  0.74842626  0.88222060  0.12799153  1
  V  V72  1  0.62645785  0.62481162  0.49948515  1
  V  V73  1  0.12771312  0.49919992  0.12587597  1
  V  V74  1  0.38204899  0.87426893  -0.00612083  1
  V  V75  1  0.37480659  -0.00212095  0.86921670  1
  V  V76  1  0.75516566  0.75545046  -0.00031508  1
  V  V77  1  0.60876870  0.24716329  0.87287496  1
  V  V78  1  0.00160236  0.12877988  0.12264475  1
  V  V79  1  0.61990979  0.87519204  0.75086572  1
  V  V80  1  0.75020463  0.00690186  0.75473139  1
  V  V81  1  -0.00067555  0.00190847  0.51069111  1
  V  V82  1  0.50065878  0.75044382  0.75159071  1
  V  V83  1  0.88010266  0.37584890  -0.00123194  1
  V  V84  1  0.12684219  0.62481491  0.00183350  1
  Zn  Zn85  1  0.61914091  0.12792987  0.50105343  1
  Zn  Zn86  1  0.37617059  0.37114838  0.50116489  1
  Zn  Zn87  1  0.00030523  0.49912490  0.49817929  1
  Zn  Zn88  1  0.00058647  0.24538357  0.75295011  1
  Zn  Zn89  1  0.86118169  -0.00135047  0.37227108  1
  Zn  Zn90  1  0.38159349  0.00375035  0.37172407  1
  Zn  Zn91  1  0.75354479  0.74613960  0.50210969  1
  Zn  Zn92  1  0.00670519  0.74375708  0.73448432  1
  Zn  Zn93  1  0.47935731  0.25118843  0.23853312  1
  Zn  Zn94  1  0.24937661  0.37375324  0.62700551  1
  Zn  Zn95  1  0.12143472  0.00071284  0.65064241  1
  Zn  Zn96  1  0.00611423  0.49217814  -0.00355602  1
  Zn  Zn97  1  0.24856011  0.75192490  0.50131310  1
  Zn  Zn98  1  0.38100725  0.49512868  0.87025945  1
  Zn  Zn99  1  0.49553180  0.13403656  0.12669043  1
  Zn  Zn100  1  0.63534301  0.12101095  -0.00418819  1
  Zn  Zn101  1  0.75278365  0.49854254  0.75059872  1
  Zn  Zn102  1  0.75664140  0.49226900  0.23969802  1
  Zn  Zn103  1  0.73595307  0.11989857  0.36368120  1
  Zn  Zn104  1  -0.00411710  0.25338136  0.25354779  1
  Zn  Zn105  1  0.62762226  0.01362537  0.14016645  1
  Zn  Zn106  1  0.63399794  0.49331213  0.11951299  1
  Zn  Zn107  1  0.31789459  0.17873064  0.18753143  1
  Zn  Zn108  1  0.18677382  0.18361512  0.69301828  1
  Zn  Zn109  1  0.18851927  0.68885894  0.18834217  1
  Zn  Zn110  1  0.19146801  0.68999012  0.68444128  1
  Zn  Zn111  1  0.67870582  0.19185765  0.18329671  1
  Zn  Zn112  1  0.68991351  0.18967574  0.69090477  1
  Zn  Zn113  1  0.68800109  0.68809737  0.18770950  1
  Zn  Zn114  1  0.69081308  0.68608511  0.68800536  1
  Zn  Zn115  1  0.30519492  0.31435638  0.31934873  1
  Zn  Zn116  1  0.30941236  0.30981020  0.81312664  1
  Zn  Zn117  1  0.31122132  0.81628826  0.31153777  1
  Zn  Zn118  1  0.30972639  0.81146420  0.81221830  1
  Zn  Zn119  1  0.80572545  0.31157245  0.31180021  1
  Zn  Zn120  1  0.81668166  0.31330446  0.81009412  1
  Zn  Zn121  1  0.80966109  0.81051788  0.31291520  1
  Zn  Zn122  1  0.81306976  0.81638236  0.81066217  1
  Zn  Zn123  1  0.19130551  0.43907054  0.43970120  1
  Zn  Zn124  1  0.18986796  0.43486765  0.93849919  1
  Zn  Zn125  1  0.18469114  0.93757021  0.44055422  1
  Zn  Zn126  1  0.18575120  0.93961629  0.93407353  1
  Zn  Zn127  1  0.69274209  0.43523815  0.43527428  1
  Zn  Zn128  1  0.69340537  0.43448338  0.94031091  1
  Zn  Zn129  1  0.68610352  0.94053585  0.43825464  1
  Zn  Zn130  1  0.69022270  0.93282871  0.93602902  1
  Zn  Zn131  1  0.30819447  0.06058706  0.05201757  1
  Zn  Zn132  1  0.31325466  0.06427833  0.56150984  1
  Zn  Zn133  1  0.31574464  0.55972293  0.06300081  1
  Zn  Zn134  1  0.30894956  0.56482029  0.56285409  1
  Zn  Zn135  1  0.81294048  0.06704346  0.06328527  1
  Zn  Zn136  1  0.81215115  0.05601097  0.56384289  1
  Zn  Zn137  1  0.81540229  0.56283159  0.06215729  1
  Zn  Zn138  1  0.81112453  0.55850483  0.55605722  1
  Zn  Zn139  1  0.44486878  0.43735106  0.18792789  1
  Zn  Zn140  1  0.43648957  0.43564869  0.68434633  1
  Zn  Zn141  1  0.41740262  0.98600435  0.16738431  1
  Zn  Zn142  1  0.43546277  0.93801955  0.68655668  1
  Zn  Zn143  1  0.93951641  0.43518074  0.18343738  1
  Zn  Zn144  1  0.93461634  0.43912437  0.68791751  1
  Zn  Zn145  1  0.93367282  0.93649985  0.18586124  1
  Zn  Zn146  1  0.95605558  0.89811326  0.67047371  1
  Zn  Zn147  1  0.06383470  0.07096385  0.30955565  1
  Zn  Zn148  1  0.05832053  0.05651502  0.81429235  1
  Zn  Zn149  1  0.06255955  0.56108656  0.31232168  1
  Zn  Zn150  1  0.06162141  0.56825910  0.81157114  1
  Zn  Zn151  1  0.55621685  0.06833797  0.31618457  1
  Zn  Zn152  1  0.56149085  0.06290042  0.81620993  1
  Zn  Zn153  1  0.56336806  0.55991594  0.31272489  1
  Zn  Zn154  1  0.56624665  0.56192203  0.81182171  1
  Zn  Zn155  1  0.43312475  0.18738404  0.43765847  1
  Zn  Zn156  1  0.43165749  0.18611041  0.93824338  1
  Zn  Zn157  1  0.43959123  0.68696068  0.43884050  1
  Zn  Zn158  1  0.43761899  0.68393910  0.93831204  1
  Zn  Zn159  1  0.93724781  0.18551130  0.43700658  1
  Zn  Zn160  1  0.93620853  0.17976263  0.93851944  1
  Zn  Zn161  1  0.93639165  0.68512215  0.43483100  1
  Zn  Zn162  1  0.93947103  0.68655865  0.93763071  1
  Zn  Zn163  1  0.06479356  0.31108432  0.06597206  1
  Zn  Zn164  1  0.06426944  0.31464980  0.56793435  1
  Zn  Zn165  1  0.06225115  0.81491205  0.05867353  1
  Zn  Zn166  1  0.06737745  0.81180607  0.56151797  1
  Zn  Zn167  1  0.56085295  0.30770319  0.06244529  1
  Zn  Zn168  1  0.56524683  0.31335295  0.56342554  1
  Zn  Zn169  1  0.56308683  0.81407801  0.06399059  1
  Zn  Zn170  1  0.56414218  0.81410943  0.56069488  1
  O  O171  1  0.11183004  0.11076212  0.13000796  1
  O  O172  1  0.12892718  0.12147113  0.61287322  1
  O  O173  1  0.12011759  0.62078132  0.12125481  1
  O  O174  1  0.13110181  0.61803312  0.61576627  1
  O  O175  1  0.62085686  0.12450101  0.11183434  1
  O  O176  1  0.62767118  0.11329028  0.62752501  1
  O  O177  1  0.61473551  0.63061436  0.11857671  1
  O  O178  1  0.62222831  0.61822366  0.62125854  1
  O  O179  1  0.36818862  0.39221970  0.38003569  1
  O  O180  1  0.36778550  0.37757069  0.88728893  1
  O  O181  1  0.38329644  0.87231288  0.38348980  1
  O  O182  1  0.36435201  0.88487660  0.88288325  1
  O  O183  1  0.86547766  0.38557836  0.38555156  1
  O  O184  1  0.87149620  0.38784103  0.87964946  1
  O  O185  1  0.88191335  0.87736922  0.37873504  1
  O  O186  1  0.88061888  0.88761147  0.87241708  1
  O  O187  1  0.24258562  0.00730835  0.36770319  1
  O  O188  1  0.25960030  0.01536607  0.88605652  1
  O  O189  1  0.25892826  0.50888559  0.37084573  1
  O  O190  1  0.24807167  0.50654000  0.86345157  1
  O  O191  1  0.74972942  0.00964051  0.38043470  1
  O  O192  1  0.75665507  -0.00723583  0.86617009  1
  O  O193  1  0.75987983  0.50629080  0.37387225  1
  O  O194  1  0.75891546  0.51132991  0.87656347  1
  O  O195  1  0.24609549  0.49367559  0.13106064  1
  O  O196  1  0.24137876  0.50044614  0.63659813  1
  O  O197  1  0.23960556  0.99624317  0.12926715  1
  O  O198  1  0.25414680  0.98834646  0.62208473  1
  O  O199  1  0.74463166  0.51426641  0.13004079  1
  O  O200  1  0.74359069  0.48694017  0.62270409  1
  O  O201  1  0.74379125  0.98606431  0.11187971  1
  O  O202  1  0.73858257  0.99211703  0.63395382  1
  O  O203  1  0.01794158  0.37243320  0.24162964  1
  O  O204  1  0.01150894  0.37405347  0.74838819  1
  O  O205  1  0.00190089  0.86788660  0.25506226  1
  O  O206  1  0.00232380  0.87888942  0.77228805  1
  O  O207  1  0.51372119  0.36849461  0.24870353  1
  O  O208  1  0.51513422  0.37816387  0.74754406  1
  O  O209  1  0.50840214  0.87526470  0.26555244  1
  O  O210  1  0.51270423  0.86858218  0.74437576  1
  O  O211  1  0.50187840  0.13198892  0.24392558  1
  O  O212  1  0.48641475  0.12793159  0.75409070  1
  O  O213  1  0.49002745  0.61861191  0.24034206  1
  O  O214  1  0.49626902  0.62889263  0.74409650  1
  O  O215  1  0.99002295  0.12998154  0.23962069  1
  O  O216  1  0.98607500  0.12238529  0.75016869  1
  O  O217  1  1.00796811  0.63635411  0.23852833  1
  O  O218  1  0.98457384  0.62714508  0.74899477  1
  O  O219  1  0.36254929  0.26013008  -0.00773172  1
  O  O220  1  0.36561863  0.24645851  0.51437111  1
  O  O221  1  0.37049030  0.75708109  0.00283659  1
  O  O222  1  0.37621538  0.75871588  0.50675103  1
  O  O223  1  0.86823892  0.25416795  0.00209496  1
  O  O224  1  0.86917431  0.25272540  0.50594559  1
  O  O225  1  0.86455030  0.74672372  0.00764781  1
  O  O226  1  0.87541061  0.76533413  0.49292586  1
  O  O227  1  0.12835421  0.24396271  0.49832748  1
  O  O228  1  0.13936225  0.26042785  0.99184144  1
  O  O229  1  0.12631611  0.74244628  0.49205938  1
  O  O230  1  0.13169182  0.74432820  0.99461464  1
  O  O231  1  0.63156913  0.25084055  0.49355261  1
  O  O232  1  0.63878518  0.25999737  0.98373759  1
  O  O233  1  0.62716006  0.74311433  0.49089293  1
  O  O234  1  0.63159948  0.74505709  0.99134967  1
  O  O235  1  0.48945342  0.24778086  0.12040255  1
  O  O236  1  0.48685838  0.24871221  0.61935492  1
  O  O237  1  0.49229557  0.73773410  0.11626876  1
  O  O238  1  0.49612446  0.74500642  0.63091163  1
  O  O239  1  0.99163216  0.24054241  0.12334159  1
  O  O240  1  0.98578190  0.25208502  0.62750971  1
  O  O241  1  0.99430065  0.74726737  0.12992445  1
  O  O242  1  0.99017300  0.79092236  0.63577005  1
  O  O243  1  0.01390943  0.24717754  0.37557961  1
  O  O244  1  0.01564667  0.23855593  0.87741136  1
  O  O245  1  0.00236807  0.75758325  0.36578912  1
  O  O246  1  0.00680531  0.75752212  0.87783893  1
  O  O247  1  0.50869193  0.25296818  0.38302484  1
  O  O248  1  0.51096703  0.25420765  0.88385544  1
  O  O249  1  0.51199120  0.75747428  0.38301182  1
  O  O250  1  0.51424814  0.74027112  0.86948247  1
  O  O251  1  0.23899181  0.13011336  0.49546742  1
  O  O252  1  0.25762801  0.13694291  0.98493097  1
  O  O253  1  0.24009656  0.62815802  0.49311364  1
  O  O254  1  0.24722049  0.63063031  0.99644563  1
  O  O255  1  0.74784701  0.13698660  0.50636632  1
  O  O256  1  0.75274301  0.14386594  1.00033884  1
  O  O257  1  0.74259580  0.62494308  0.49055921  1
  O  O258  1  0.74621808  0.63546293  0.99149982  1
  O  O259  1  0.25842277  0.36950303  0.00849291  1
  O  O260  1  0.25219693  0.36258500  0.50421896  1
  O  O261  1  0.25765157  0.87103726  0.00344007  1
  O  O262  1  0.26296153  0.87438264  0.50127246  1
  O  O263  1  0.76523016  0.36161453  -0.00369637  1
  O  O264  1  0.75778972  0.36439381  0.50988611  1
  O  O265  1  0.74054591  0.86096795  0.01041410  1
  O  O266  1  0.75625116  0.87485470  0.50620699  1
  O  O267  1  0.13242969  0.49374632  0.24676758  1
  O  O268  1  0.12973465  0.49709721  0.74557221  1
  O  O269  1  0.12910536  0.99470038  0.24199158  1
  O  O270  1  0.13687261  1.00636220  0.75917259  1
  O  O271  1  0.62142298  0.48532355  0.24890277  1
  O  O272  1  0.62997028  0.48774890  0.74595703  1
  O  O273  1  0.62055170  0.98520616  0.25376599  1
  O  O274  1  0.62846206  0.99387011  0.74834815  1
  O  O275  1  0.35341810  -0.01552272  0.25867785  1
  O  O276  1  0.37923088  0.01272298  0.75590618  1
  O  O277  1  0.37259039  0.50936109  0.25800830  1
  O  O278  1  0.36614509  0.50388367  0.74912454  1
  O  O279  1  0.87636026  0.01616505  0.24700998  1
  O  O280  1  0.86475715  0.00468146  0.75717464  1
  O  O281  1  0.87515135  0.48811634  0.26454573  1
  O  O282  1  0.87310569  0.51025565  0.75793330  1
  O  O283  1  0.13437714  0.36899260  0.36770302  1
  O  O284  1  0.13086212  0.36633903  0.86645277  1
  O  O285  1  0.11440762  0.86995139  0.37007838  1
  O  O286  1  0.11653338  0.86257228  0.88531842  1
  O  O287  1  0.62541405  0.36225862  0.37628101  1
  O  O288  1  0.63206171  0.36847231  0.86157078  1
  O  O289  1  0.62074872  0.86715044  0.37164261  1
  O  O290  1  0.63279007  0.86154158  0.86294947  1
  O  O291  1  0.37834220  0.09727639  0.13174802  1
  O  O292  1  0.37011218  0.13368882  0.63807681  1
  O  O293  1  0.38126474  0.63085739  0.13208679  1
  O  O294  1  0.37967261  0.63106651  0.63081954  1
  O  O295  1  0.88050925  0.13401074  0.13418495  1
  O  O296  1  0.86777140  0.13221716  0.63426781  1
  O  O297  1  0.88792923  0.63778499  0.12007730  1
  O  O298  1  0.86420201  0.61970060  0.63807867  1
  O  O299  1  0.25455179  0.25753221  0.11534628  1
  O  O300  1  0.25210287  0.24710036  0.61704000  1
  O  O301  1  0.25655758  0.75677949  0.11989846  1
  O  O302  1  0.25769479  0.76179171  0.62228136  1
  O  O303  1  0.76078071  0.24910736  0.11535816  1
  O  O304  1  0.75745126  0.25648749  0.61928587  1
  O  O305  1  0.75720413  0.75325457  0.11839816  1
  O  O306  1  0.74194812  0.76506216  0.62255063  1
  O  O307  1  0.24067461  0.24279950  0.39019954  1
  O  O308  1  0.24181289  0.24100431  0.88085262  1
  O  O309  1  0.24138172  0.74549776  0.37403363  1
  O  O310  1  0.24216510  0.74509326  0.88016834  1
  O  O311  1  0.74379217  0.24512730  0.38650219  1
  O  O312  1  0.75156330  0.24915750  0.88167301  1
  O  O313  1  0.74314111  0.74068672  0.37862387  1
  O  O314  1  0.74456918  0.74440276  0.88119343  1
  O  O315  1  -0.00702554  0.11136390  0.01415944  1
  O  O316  1  0.00644275  0.11330212  0.49445417  1
  O  O317  1  0.00835286  0.62618203  0.01214503  1
  O  O318  1  0.01480710  0.62402192  0.49439328  1
  O  O319  1  0.49452883  0.10880367  -0.00181144  1
  O  O320  1  0.49672294  0.10838141  0.49609890  1
  O  O321  1  0.50482190  0.61748880  0.00708400  1
  O  O322  1  0.50652389  0.61703297  0.50732573  1
  O  O323  1  0.49660868  0.39030099  0.50873907  1
  O  O324  1  0.49026716  0.38607377  1.00743964  1
  O  O325  1  0.49194675  0.88152428  0.49477215  1
  O  O326  1  0.48926986  0.88100588  0.99825761  1
  O  O327  1  0.98652179  0.37393495  0.50444649  1
  O  O328  1  0.98699049  0.37340294  1.00286606  1
  O  O329  1  0.99330481  0.88303289  0.48840232  1
  O  O330  1  0.99652337  0.88566327  0.99446562  1
  O  O331  1  0.48987717  0.50924434  0.38700081  1
  O  O332  1  0.49995071  0.50789068  0.88823278  1
  O  O333  1  0.50032772  0.98876683  0.38584867  1
  O  O334  1  0.48529083  1.00213326  0.88186553  1
  O  O335  1  0.98489047  0.50408115  0.37618220  1
  O  O336  1  0.98884543  0.50927350  0.87913655  1
  O  O337  1  0.99924161  0.98975466  0.37464145  1
  O  O338  1  0.99203693  0.99408272  0.88689703  1
  O  O339  1  0.00283456  0.00324038  0.12032047  1
  O  O340  1  0.00495054  -0.01159219  0.61262437  1
  O  O341  1  0.00694128  0.51064058  0.12493134  1
  O  O342  1  0.01283840  0.49775944  0.62348464  1
  O  O343  1  0.51045188  -0.00580276  0.10398030  1
  O  O344  1  0.50921193  -0.00744498  0.61716294  1
  O  O345  1  0.50338361  0.51224710  0.11406808  1
  O  O346  1  0.50504421  0.50632892  0.61871637  1
  O  O347  1  0.24403841  0.38155981  0.24316307  1
  O  O348  1  0.24104138  0.38536126  0.75069206  1
  O  O349  1  0.23978297  0.88038770  0.24366502  1
  O  O350  1  0.25588168  0.87499551  0.73562531  1
  O  O351  1  0.73014076  0.37655970  0.25736553  1
  O  O352  1  0.74680091  0.37503557  0.73851333  1
  O  O353  1  0.74194101  0.87011033  0.23991832  1
  O  O354  1  0.74089502  0.88270975  0.74274909  1
  O  O355  1  0.24471755  0.11306426  0.26050830  1
  O  O356  1  0.26019655  0.13040921  0.76529728  1
  O  O357  1  0.25949421  0.62047420  0.25394594  1
  O  O358  1  0.25516647  0.61731219  0.75423083  1
  O  O359  1  0.76308543  0.13294221  0.24445798  1
  O  O360  1  0.75587549  0.11176094  0.74750993  1
  O  O361  1  0.74452759  0.62233776  0.26431076  1
  O  O362  1  0.75806810  0.62339255  0.76008106  1
  O  O363  1  0.35545198  0.11995415  0.38629499  1
  O  O364  1  0.36796225  0.12047698  0.86301636  1
  O  O365  1  0.37144716  0.62147085  0.36810450  1
  O  O366  1  0.36748530  0.62399939  0.86743534  1
  O  O367  1  0.87597134  0.12838321  0.35677702  1
  O  O368  1  0.87773727  0.11016218  0.86538234  1
  O  O369  1  0.86620501  0.60915197  0.38224462  1
  O  O370  1  0.86768550  0.61875678  0.87251306  1
  O  O371  1  0.13785714  0.37892073  0.13229878  1
  O  O372  1  0.12874645  0.38475166  0.63559463  1
  O  O373  1  0.12820541  0.88274547  0.12877287  1
  O  O374  1  0.14486236  0.88103883  0.61504550  1
  O  O375  1  0.62616899  0.37119821  0.13663930  1
  O  O376  1  0.63259570  0.37523302  0.63636736  1
  O  O377  1  0.63259232  0.87059973  0.13648023  1
  O  O378  1  0.63087348  0.88366926  0.63338807  1
  O  O379  1  0.12788059  0.26112745  0.26490005  1
  O  O380  1  0.12315957  0.25837835  0.75774232  1
  O  O381  1  0.11481791  0.75610562  0.25282681  1
  O  O382  1  0.12348473  0.73949958  0.76519904  1
  O  O383  1  0.62597991  0.25925302  0.26492911  1
  O  O384  1  0.62877450  0.26019480  0.76144633  1
  O  O385  1  0.62877125  0.75849956  0.26401417  1
  O  O386  1  0.62161814  0.75544695  0.75569690  1
  O  O387  1  0.36778553  0.24710701  0.25972982  1
  O  O388  1  0.37134106  0.24118763  0.73935689  1
  O  O389  1  0.36996828  0.73935847  0.24418106  1
  O  O390  1  0.38152042  0.74479798  0.74633070  1
  O  O391  1  0.87592078  0.24737119  0.24169938  1
  O  O392  1  0.87609013  0.23922202  0.74401700  1
  O  O393  1  0.88622025  0.75234313  0.24163886  1
  O  O394  1  0.87257030  0.73475461  0.75478507  1
  O  O395  1  0.38167330  0.50276266  0.49475296  1
  O  O396  1  0.38225759  0.49304834  0.99561901  1
  O  O397  1  0.38220367  0.99022389  0.49945967  1
  O  O398  1  0.38371721  0.99139626  0.99009155  1
  O  O399  1  0.87793461  0.48935952  0.49279749  1
  O  O400  1  0.87779638  0.49244119  0.99300253  1
  O  O401  1  0.88458977  0.99281492  0.49538990  1
  O  O402  1  0.88040408  1.00476915  0.99180318  1
  O  O403  1  0.11305901  -0.00515583  0.01032184  1
  O  O404  1  0.11419409  0.00858322  0.49688395  1
  O  O405  1  0.12595882  0.50514078  0.00706372  1
  O  O406  1  0.12482863  0.50627852  0.50844015  1
  O  O407  1  0.60957067  0.00026964  -0.01813459  1
  O  O408  1  0.61626533  0.00075411  0.51152153  1
  O  O409  1  0.61895030  0.50437947  -0.00124831  1
  O  O410  1  0.61833702  0.50317762  0.50396402  1
  O  O411  1  0.36392149  0.38438341  0.11728267  1
  O  O412  1  0.37044903  0.35873183  0.62716450  1
  O  O413  1  0.36855253  0.87545270  0.11241040  1
  O  O414  1  0.36873872  0.87131829  0.61713606  1
  O  O415  1  0.87876826  0.36503414  0.11590426  1
  O  O416  1  0.86794210  0.36657916  0.61982981  1
  O  O417  1  0.86407218  0.86288257  0.12942399  1
  O  O418  1  0.85839748  0.88765811  0.61225105  1
  O  O419  1  0.13173059  0.13438615  0.38413972  1
  O  O420  1  0.13762644  0.13329344  0.87301135  1
  O  O421  1  0.13034186  0.62891832  0.38057687  1
  O  O422  1  0.13003095  0.63270544  0.88304426  1
  O  O423  1  0.62259636  0.14233172  0.38013511  1
  O  O424  1  0.62145956  0.14252142  0.87636662  1
  O  O425  1  0.63005190  0.63013131  0.37913398  1
  O  O426  1  0.63681905  0.63246393  0.87739309  1
