# generated using pymatgen
data_V85Zn86O256
_symmetry_space_group_name_H-M   'P 1'
_cell_length_a   16.98060911
_cell_length_b   17.00175673
_cell_length_c   16.97298037
_cell_angle_alpha   89.95594154
_cell_angle_beta   89.86800063
_cell_angle_gamma   90.03680716
_symmetry_Int_Tables_number   1
_chemical_formula_structural   V85Zn86O256
_chemical_formula_sum   'V85 Zn86 O256'
_cell_volume   4900.08710776
_cell_formula_units_Z   1
loop_
 _symmetry_equiv_pos_site_id
 _symmetry_equiv_pos_as_xyz
  1  'x, y, z'
loop_
 _atom_site_type_symbol
 _atom_site_label
 _atom_site_symmetry_multiplicity
 _atom_site_fract_x
 _atom_site_fract_y
 _atom_site_fract_z
 _atom_site_occupancy
  V  V0  1  0.25433307  0.49321646  0.74175097  1
  V  V1  1  0.24818634  0.25638474  0.00027933  1
  V  V2  1  0.87141082  0.52178009  0.86766720  1
  V  V3  1  0.74814801  0.25381349  0.50012964  1
  V  V4  1  0.12527818  0.00655967  0.13025164  1
  V  V5  1  0.62355292  -0.00546306  0.12304544  1
  V  V6  1  0.75222676  0.12299558  0.87344316  1
  V  V7  1  0.74846627  0.49950031  0.74785463  1
  V  V8  1  0.62399300  0.11754336  -0.00044362  1
  V  V9  1  0.12323825  0.12683258  0.49905090  1
  V  V10  1  0.49874514  -0.00240488  0.50301072  1
  V  V11  1  0.24388451  0.38220928  0.13950669  1
  V  V12  1  0.37502999  0.12579700  0.76007087  1
  V  V13  1  0.74778493  0.37936124  0.12537837  1
  V  V14  1  0.37146291  0.25746021  0.62750247  1
  V  V15  1  0.00144130  0.24627537  0.24550303  1
  V  V16  1  0.50819043  0.37437769  0.87711548  1
  V  V17  1  0.24907670  0.87645461  0.11956359  1
  V  V18  1  0.87194475  0.87838619  0.48597262  1
  V  V19  1  0.37529582  0.75207594  0.62457569  1
  V  V20  1  0.87077663  0.37713275  0.49968608  1
  V  V21  1  0.49084564  -0.01466542  -0.00827857  1
  V  V22  1  0.75235771  0.74099557  -0.00781702  1
  V  V23  1  0.87936753  0.74829192  0.12333616  1
  V  V24  1  0.12425959  0.63189970  0.49173026  1
  V  V25  1  -0.00117928  0.25277806  0.74699112  1
  V  V26  1  0.74890924  0.62050314  0.37643306  1
  V  V27  1  0.62794611  0.48475162  0.62687035  1
  V  V28  1  0.24238983  0.00302706  0.73695867  1
  V  V29  1  0.87706956  0.24572603  0.12498686  1
  V  V30  1  0.62295554  0.73807658  0.86978195  1
  V  V31  1  0.37462388  0.75286632  0.11967726  1
  V  V32  1  0.49875902  0.74263055  0.24384805  1
  V  V33  1  0.37276670  0.37771047  0.00284180  1
  V  V34  1  0.50437070  0.62583282  0.62603096  1
  V  V35  1  0.12776506  0.62866119  -0.00267948  1
  V  V36  1  0.87679174  0.37531372  -0.00728776  1
  V  V37  1  0.12722359  0.25505223  0.36766308  1
  V  V38  1  -0.00937931  0.00391901  0.48571717  1
  V  V39  1  0.37963621  0.49956587  0.87505264  1
  V  V40  1  0.24807805  0.12688211  0.87764427  1
  V  V41  1  0.62001515  0.61957519  0.50184384  1
  V  V42  1  0.62489305  0.61977580  0.01552299  1
  V  V43  1  0.25751553  0.12442054  0.37339261  1
  V  V44  1  0.25165823  0.62421170  0.87706209  1
  V  V45  1  0.61748147  0.25041737  0.37193484  1
  V  V46  1  0.62623398  0.87428975  0.25028737  1
  V  V47  1  0.75075502  0.24844576  0.00022799  1
  V  V48  1  0.24915465  0.62400242  0.37046872  1
  V  V49  1  0.01244434  0.87418729  0.86071045  1
  V  V50  1  0.87716009  -0.00059203  0.87467066  1
  V  V51  1  0.87437129  0.62213918  0.24921862  1
  V  V52  1  -0.00100755  0.50289492  0.49838149  1
  V  V53  1  0.12474590  0.50177541  0.13654383  1
  V  V54  1  0.50387844  0.25254795  0.75655140  1
  V  V55  1  0.25028463  0.26002141  0.50440670  1
  V  V56  1  0.75210551  0.11285811  0.37295431  1
  V  V57  1  0.75044243  -0.00141037  0.75139001  1
  V  V58  1  0.75048776  0.87584859  0.12530013  1
  V  V59  1  0.87992392  0.74907866  0.63469741  1
  V  V60  1  0.86820739  0.11792119  0.25152141  1
  V  V61  1  0.00792065  0.75468747  0.26023779  1
  V  V62  1  0.62247175  0.74601062  0.37555837  1
  V  V63  1  -0.00152224  0.63020835  0.63361233  1
  V  V64  1  0.38300403  0.62744615  0.74991713  1
  V  V65  1  0.13003555  0.37536668  0.73849067  1
  V  V66  1  0.37565561  0.50051087  0.37928000  1
  V  V67  1  0.62545907  0.24899490  0.87631815  1
  V  V68  1  0.75146605  0.87225304  0.62629748  1
  V  V69  1  0.86981947  0.25612431  0.62395377  1
  V  V70  1  0.61867242  0.86989473  0.75559248  1
  V  V71  1  0.25177564  0.75493779  0.49871277  1
  V  V72  1  0.50116142  0.12495075  0.62880802  1
  V  V73  1  0.24157246  -0.01196704  0.25826931  1
  V  V74  1  0.37637726  -0.00002775  0.36903449  1
  V  V75  1  -0.00315190  0.12638498  0.62166018  1
  V  V76  1  0.12191157  0.25438273  0.87288010  1
  V  V77  1  0.87923244  0.87488463  -0.00161151  1
  V  V78  1  0.50711112  0.50061344  0.01485711  1
  V  V79  1  0.49704737  0.37729902  0.37783670  1
  V  V80  1  0.37271794  0.62035989  0.24536575  1
  V  V81  1  0.00301395  0.37568700  0.36808168  1
  V  V82  1  0.62531538  0.12449413  0.50156136  1
  V  V83  1  0.62135969  0.37830019  0.24773915  1
  V  V84  1  0.00387134  0.00632188  0.00567612  1
  Zn  Zn85  1  0.36095103  -0.02182625  0.87914417  1
  Zn  Zn86  1  0.12145260  0.74744818  0.85323702  1
  Zn  Zn87  1  -0.00239376  0.38046861  0.87033816  1
  Zn  Zn88  1  0.17606467  0.83564410  0.67582439  1
  Zn  Zn89  1  0.13063923  0.49713466  0.61854537  1
  Zn  Zn90  1  0.62376539  -0.00337183  0.62859860  1
  Zn  Zn91  1  0.38745093  0.24452463  0.14890233  1
  Zn  Zn92  1  0.37509726  0.38469210  0.50849351  1
  Zn  Zn93  1  0.49701049  0.87102759  0.37652444  1
  Zn  Zn94  1  0.48140485  0.11882631  0.14776638  1
  Zn  Zn95  1  0.11731873  -0.00527748  0.62555527  1
  Zn  Zn96  1  0.25714565  0.76347076  -0.00510741  1
  Zn  Zn97  1  0.75165457  0.74784465  0.50160834  1
  Zn  Zn98  1  0.00311707  0.62607964  0.12306787  1
  Zn  Zn99  1  0.87229951  0.49615389  0.37024090  1
  Zn  Zn100  1  0.00080688  0.50354675  -0.00440794  1
  Zn  Zn101  1  0.87392255  0.12609661  0.74863330  1
  Zn  Zn102  1  0.37456780  0.87648861  0.50534173  1
  Zn  Zn103  1  0.02855559  0.88496685  0.36393213  1
  Zn  Zn104  1  0.47681362  0.85543485  0.86780648  1
  Zn  Zn105  1  0.11907490  0.13521976  0.01609182  1
  Zn  Zn106  1  0.74288229  0.50298327  0.24144680  1
  Zn  Zn107  1  0.21742399  0.19179813  0.19536997  1
  Zn  Zn108  1  0.18682582  0.18709198  0.68663448  1
  Zn  Zn109  1  0.19041965  0.68950367  0.18565166  1
  Zn  Zn110  1  0.19255235  0.67020220  0.68159406  1
  Zn  Zn111  1  0.65794471  0.16674321  0.20734602  1
  Zn  Zn112  1  0.68684519  0.18801613  0.68782932  1
  Zn  Zn113  1  0.69087403  0.69037210  0.18743584  1
  Zn  Zn114  1  0.69579776  0.68217040  0.69017198  1
  Zn  Zn115  1  0.31377536  0.31415904  0.31430518  1
  Zn  Zn116  1  0.31536128  0.31445856  0.81587032  1
  Zn  Zn117  1  0.31099279  0.81203942  0.31626630  1
  Zn  Zn118  1  0.29353337  0.80683676  0.80131917  1
  Zn  Zn119  1  0.80868094  0.30839271  0.31038371  1
  Zn  Zn120  1  0.80613452  0.31661660  0.80813717  1
  Zn  Zn121  1  0.80946582  0.80540385  0.30832223  1
  Zn  Zn122  1  0.81456175  0.81253564  0.81423066  1
  Zn  Zn123  1  0.18769582  0.44265663  0.43166520  1
  Zn  Zn124  1  0.18581352  0.44272949  0.93544260  1
  Zn  Zn125  1  0.18457248  0.93532729  0.44959465  1
  Zn  Zn126  1  0.18536501  0.94314017  0.93961553  1
  Zn  Zn127  1  0.68376090  0.43846962  0.43738092  1
  Zn  Zn128  1  0.69243469  0.44204358  0.93668336  1
  Zn  Zn129  1  0.68426959  0.93400232  0.43924950  1
  Zn  Zn130  1  0.68819361  0.93013129  0.93641874  1
  Zn  Zn131  1  0.30961119  0.06088419  0.06425103  1
  Zn  Zn132  1  0.31805255  0.07262280  0.56090700  1
  Zn  Zn133  1  0.31331749  0.56177763  0.06458370  1
  Zn  Zn134  1  0.31464547  0.56741132  0.55934840  1
  Zn  Zn135  1  0.81272535  0.06151329  0.06358487  1
  Zn  Zn136  1  0.81044595  0.06229345  0.56135296  1
  Zn  Zn137  1  0.81430894  0.56145296  0.05788263  1
  Zn  Zn138  1  0.81084667  0.56270028  0.56645481  1
  Zn  Zn139  1  0.43475981  0.43349705  0.19488440  1
  Zn  Zn140  1  0.44614011  0.43984769  0.68899023  1
  Zn  Zn141  1  0.43833368  0.93228344  0.18641023  1
  Zn  Zn142  1  0.43355160  0.93793681  0.69257153  1
  Zn  Zn143  1  0.93906237  0.43600011  0.18271157  1
  Zn  Zn144  1  0.93740212  0.44059892  0.68820000  1
  Zn  Zn145  1  0.94041409  0.93596442  0.18744001  1
  Zn  Zn146  1  0.93546371  0.93836182  0.68282485  1
  Zn  Zn147  1  0.06577413  0.07063649  0.30763517  1
  Zn  Zn148  1  0.06075399  0.06530152  0.81394772  1
  Zn  Zn149  1  0.05819556  0.56877886  0.31296402  1
  Zn  Zn150  1  0.06452622  0.55795811  0.81290078  1
  Zn  Zn151  1  0.56159958  0.05983253  0.31551774  1
  Zn  Zn152  1  0.56150561  0.05711249  0.81665487  1
  Zn  Zn153  1  0.55818809  0.55903084  0.31009827  1
  Zn  Zn154  1  0.56711481  0.55919728  0.81335606  1
  Zn  Zn155  1  0.43769141  0.18843861  0.44071889  1
  Zn  Zn156  1  0.45015519  0.19716407  0.98178167  1
  Zn  Zn157  1  0.43793505  0.68444166  0.43680497  1
  Zn  Zn158  1  0.44245490  0.68143601  0.94131606  1
  Zn  Zn159  1  0.93399278  0.18993423  0.43158232  1
  Zn  Zn160  1  0.93768921  0.18735262  0.93600186  1
  Zn  Zn161  1  0.93222506  0.69101504  0.43989495  1
  Zn  Zn162  1  0.94686889  0.69306156  0.93517883  1
  Zn  Zn163  1  0.06172067  0.31920037  0.06278263  1
  Zn  Zn164  1  0.05958447  0.31339730  0.55774622  1
  Zn  Zn165  1  0.06832585  0.81831772  0.06137017  1
  Zn  Zn166  1  0.05451863  0.81361049  0.54576714  1
  Zn  Zn167  1  0.56407855  0.31089979  0.06725826  1
  Zn  Zn168  1  0.55594446  0.30960396  0.56049719  1
  Zn  Zn169  1  0.56254638  0.80604142  0.05885057  1
  Zn  Zn170  1  0.56339425  0.80802080  0.56513426  1
  O  O171  1  0.14227589  0.11214871  0.13009357  1
  O  O172  1  0.11168630  0.13304658  0.61352590  1
  O  O173  1  0.13043757  0.61376371  0.11629507  1
  O  O174  1  0.11325654  0.62001599  0.61167548  1
  O  O175  1  0.64034451  0.10669980  0.10756772  1
  O  O176  1  0.61886516  0.12290236  0.61985421  1
  O  O177  1  0.62776899  0.62852178  0.11518435  1
  O  O178  1  0.62021481  0.62419392  0.61843908  1
  O  O179  1  0.37958709  0.38370541  0.37213469  1
  O  O180  1  0.38465130  0.37996005  0.88503560  1
  O  O181  1  0.37748853  0.88602712  0.38189235  1
  O  O182  1  0.36588100  0.86732725  0.86418305  1
  O  O183  1  0.88361044  0.37348249  0.38353251  1
  O  O184  1  0.87481663  0.37194074  0.88572938  1
  O  O185  1  0.85850007  0.87027572  0.38688577  1
  O  O186  1  0.88648275  0.88020329  0.87959540  1
  O  O187  1  0.25831878  0.00514470  0.37713909  1
  O  O188  1  0.24674721  0.01374121  0.86655922  1
  O  O189  1  0.25926671  0.51263550  0.37589834  1
  O  O190  1  0.25885625  0.50560380  0.86567384  1
  O  O191  1  0.74244326  0.01404538  0.38104076  1
  O  O192  1  0.75694666  0.00156231  0.87167254  1
  O  O193  1  0.75082657  0.51095430  0.37213331  1
  O  O194  1  0.76291747  0.50124863  0.86607685  1
  O  O195  1  0.23856917  0.49049287  0.12040197  1
  O  O196  1  0.25092872  0.50852863  0.63754725  1
  O  O197  1  0.24649999  0.99293145  0.13741713  1
  O  O198  1  0.24723678  1.01946736  0.63504120  1
  O  O199  1  0.75728377  0.48396697  0.12179797  1
  O  O200  1  0.73927772  0.49877077  0.63217509  1
  O  O201  1  0.74016039  0.98327741  0.11437300  1
  O  O202  1  0.74926786  0.98931450  0.63112585  1
  O  O203  1  -0.00744022  0.36529915  0.26113278  1
  O  O204  1  0.01029601  0.37034103  0.74906720  1
  O  O205  1  -0.01304306  0.85957790  0.25708700  1
  O  O206  1  0.00353139  0.88798485  0.76148156  1
  O  O207  1  0.50746137  0.37144160  0.26082059  1
  O  O208  1  0.49335510  0.36316549  0.76558021  1
  O  O209  1  0.50990887  0.86312825  0.25242291  1
  O  O210  1  0.51489368  0.87798238  0.75135301  1
  O  O211  1  0.54816776  0.13232248  0.23403421  1
  O  O212  1  0.49255398  0.13152161  0.75217466  1
  O  O213  1  0.49005939  0.63453127  0.25388110  1
  O  O214  1  0.49023443  0.61894149  0.74468815  1
  O  O215  1  0.98868059  0.14134513  0.25746061  1
  O  O216  1  0.99812265  0.13287216  0.73760886  1
  O  O217  1  0.98925783  0.63587485  0.24579941  1
  O  O218  1  1.00940684  0.62227314  0.73151365  1
  O  O219  1  0.35873484  0.26514173  -0.00592945  1
  O  O220  1  0.36641550  0.24922132  0.51096919  1
  O  O221  1  0.37570266  0.73908604  0.01557229  1
  O  O222  1  0.37025931  0.74577925  0.50836923  1
  O  O223  1  0.87281079  0.25550205  0.00569104  1
  O  O224  1  0.86822650  0.25808720  0.50429078  1
  O  O225  1  0.87136203  0.75278754  0.00513661  1
  O  O226  1  0.87247299  0.76131701  0.50927946  1
  O  O227  1  0.12928442  0.24493084  0.49218403  1
  O  O228  1  0.12773958  0.25304132  0.98953029  1
  O  O229  1  0.13417227  0.73728160  0.50195613  1
  O  O230  1  0.13195629  0.73665741  1.00248709  1
  O  O231  1  0.63104290  0.24592892  0.49497416  1
  O  O232  1  0.63100211  0.23646284  0.99552435  1
  O  O233  1  0.62767455  0.73873670  0.49374927  1
  O  O234  1  0.63335935  0.74000657  0.99228243  1
  O  O235  1  0.48608376  0.23591134  0.09236769  1
  O  O236  1  0.49414914  0.24477077  0.63688646  1
  O  O237  1  0.49096557  0.75571507  0.13545502  1
  O  O238  1  0.49250530  0.73434345  0.62235402  1
  O  O239  1  0.99175555  0.25965929  0.13477733  1
  O  O240  1  0.99001591  0.24425850  0.62486239  1
  O  O241  1  0.98807082  0.75398228  0.12898724  1
  O  O242  1  0.99624104  0.73681158  0.61581666  1
  O  O243  1  0.00785449  0.25797782  0.36903700  1
  O  O244  1  0.00835375  0.25010980  0.86638500  1
  O  O245  1  -0.00237303  0.74578083  0.36180146  1
  O  O246  1  0.00510695  0.76841008  0.87212210  1
  O  O247  1  0.51125421  0.25362284  0.37878462  1
  O  O248  1  0.50424212  0.25553719  0.87597060  1
  O  O249  1  0.50538831  0.74952263  0.36571036  1
  O  O250  1  0.51856157  0.74865553  0.88292279  1
  O  O251  1  0.24087935  0.13401845  0.49346359  1
  O  O252  1  0.24652478  0.13733572  0.99116378  1
  O  O253  1  0.24161310  0.62963714  0.49249751  1
  O  O254  1  0.24504767  0.61625120  0.98798925  1
  O  O255  1  0.74603883  0.13388299  0.49424319  1
  O  O256  1  0.74551581  0.12736532  0.99163886  1
  O  O257  1  0.74222247  0.62528187  0.49227865  1
  O  O258  1  0.74323826  0.63423336  1.00393847  1
  O  O259  1  0.25822176  0.37384859  -0.00355402  1
  O  O260  1  0.25082591  0.36305870  0.49423976  1
  O  O261  1  0.25065273  0.88055405  0.01243651  1
  O  O262  1  0.25665981  0.85901901  0.50097437  1
  O  O263  1  0.75749272  0.36913588  0.00413783  1
  O  O264  1  0.75978145  0.36655110  0.49191095  1
  O  O265  1  0.75681462  0.86286311  0.00703469  1
  O  O266  1  0.75285600  0.87453596  0.51218329  1
  O  O267  1  0.12072200  0.50879529  0.23527635  1
  O  O268  1  0.13554464  0.49073598  0.74775210  1
  O  O269  1  0.13056692  0.99959162  0.24520892  1
  O  O270  1  0.13779129  1.01453670  0.74384164  1
  O  O271  1  0.62561444  0.48412016  0.25438932  1
  O  O272  1  0.63462852  0.50033152  0.73903639  1
  O  O273  1  0.61956689  0.98166483  0.23766144  1
  O  O274  1  0.63229941  0.98895320  0.75153887  1
  O  O275  1  0.37028582  -0.00409635  0.26392832  1
  O  O276  1  0.36442201  0.01365119  0.75156794  1
  O  O277  1  0.37822245  0.51229947  0.25839800  1
  O  O278  1  0.37253699  0.50466991  0.75422404  1
  O  O279  1  0.88079501  0.01988272  0.23746724  1
  O  O280  1  0.86782198  0.00196280  0.75540354  1
  O  O281  1  0.87640507  0.51260887  0.24809855  1
  O  O282  1  0.86943797  0.49902678  0.76115763  1
  O  O283  1  0.11504248  0.36645146  0.38053515  1
  O  O284  1  0.12320002  0.36651334  0.86512688  1
  O  O285  1  0.13634881  0.87239292  0.37551518  1
  O  O286  1  0.11562420  0.87596537  0.87650802  1
  O  O287  1  0.61648297  0.36972595  0.37204342  1
  O  O288  1  0.61447851  0.36690350  0.88743532  1
  O  O289  1  0.62638897  0.86592825  0.36536109  1
  O  O290  1  0.62942989  0.85980838  0.86671327  1
  O  O291  1  0.37509645  0.13100792  0.11727073  1
  O  O292  1  0.38161451  0.13749852  0.63779510  1
  O  O293  1  0.36372386  0.63441576  0.13769635  1
  O  O294  1  0.38592944  0.62674195  0.63083512  1
  O  O295  1  0.86489604  0.14026239  0.13145985  1
  O  O296  1  0.88179061  0.13752030  0.62209792  1
  O  O297  1  0.87510846  0.63303145  0.13031491  1
  O  O298  1  0.88989051  0.63295523  0.61657210  1
  O  O299  1  0.23159049  0.27158144  0.10777460  1
  O  O300  1  0.25959712  0.24407414  0.61710536  1
  O  O301  1  0.25650191  0.76088607  0.12298051  1
  O  O302  1  0.26134436  0.73948179  0.61219614  1
  O  O303  1  0.76245061  0.26284935  0.11673554  1
  O  O304  1  0.75807313  0.24476454  0.61300792  1
  O  O305  1  0.76067981  0.75620961  0.11572835  1
  O  O306  1  0.75934202  0.75770948  0.62498734  1
  O  O307  1  0.24373531  0.24364821  0.38489068  1
  O  O308  1  0.24106718  0.24782689  0.88077686  1
  O  O309  1  0.26211181  0.73477267  0.38736898  1
  O  O310  1  0.25327187  0.73128922  0.88295170  1
  O  O311  1  0.74127474  0.24569171  0.38743467  1
  O  O312  1  0.74498634  0.24421650  0.87930800  1
  O  O313  1  0.74113772  0.73442719  0.37412089  1
  O  O314  1  0.74390483  0.75362385  0.88612862  1
  O  O315  1  0.00209739  0.11210239  -0.00419766  1
  O  O316  1  0.00239317  0.12476740  0.50210267  1
  O  O317  1  0.01194434  0.62583517  0.00257139  1
  O  O318  1  0.00636660  0.61773088  0.49689906  1
  O  O319  1  0.51605705  0.10448112  -0.00763387  1
  O  O320  1  0.50491398  0.11781654  0.50757770  1
  O  O321  1  0.51164775  0.61094645  -0.00168605  1
  O  O322  1  0.51183494  0.62413767  0.50766872  1
  O  O323  1  0.49293392  0.36740904  0.48364068  1
  O  O324  1  0.49193204  0.38014875  0.99418962  1
  O  O325  1  0.50170857  0.88610667  0.50080622  1
  O  O326  1  0.50290257  0.88293744  0.99597866  1
  O  O327  1  0.99240594  0.38317013  0.49058272  1
  O  O328  1  0.98837842  0.37950267  0.99605166  1
  O  O329  1  0.98747453  0.88638257  0.48590941  1
  O  O330  1  0.99760967  0.88576852  0.99239356  1
  O  O331  1  0.48918616  0.48976499  0.37215440  1
  O  O332  1  0.49854132  0.48988122  0.88073872  1
  O  O333  1  0.49326147  1.00020328  0.38488367  1
  O  O334  1  0.49574753  0.98910623  0.88411839  1
  O  O335  1  0.99800210  0.49298042  0.38135321  1
  O  O336  1  0.98414278  0.49919475  0.87202626  1
  O  O337  1  1.00312343  1.00709514  0.38363271  1
  O  O338  1  0.99853719  0.99321711  0.88266310  1
  O  O339  1  0.01227490  -0.00697257  0.11661980  1
  O  O340  1  -0.00360008  0.01476480  0.61358727  1
  O  O341  1  0.01348110  0.50183237  0.12017080  1
  O  O342  1  -0.00283176  0.51184454  0.61268648  1
  O  O343  1  0.50913825  -0.00448994  0.11263631  1
  O  O344  1  0.49877571  0.00624715  0.61948351  1
  O  O345  1  0.49696310  0.48697994  0.11296220  1
  O  O346  1  0.51772924  0.51139773  0.63212191  1
  O  O347  1  0.24396052  0.38048929  0.23701368  1
  O  O348  1  0.24392714  0.38260526  0.75517534  1
  O  O349  1  0.25395784  0.88404014  0.24426564  1
  O  O350  1  0.25176315  0.90113611  0.74099398  1
  O  O351  1  0.74599339  0.37908750  0.24230001  1
  O  O352  1  0.75254710  0.39454543  0.75019635  1
  O  O353  1  0.73876876  0.86181338  0.23590900  1
  O  O354  1  0.74490177  0.87880930  0.74294699  1
  O  O355  1  0.24243514  0.10460512  0.26994939  1
  O  O356  1  0.25652041  0.12438851  0.75817210  1
  O  O357  1  0.25944550  0.63478712  0.26095877  1
  O  O358  1  0.26150108  0.61054498  0.75873731  1
  O  O359  1  0.75503470  0.13259576  0.26143799  1
  O  O360  1  0.75014283  0.11786817  0.75558450  1
  O  O361  1  0.75645665  0.62289544  0.25590779  1
  O  O362  1  0.75325493  0.60372607  0.74520877  1
  O  O363  1  0.36582802  0.11598201  0.38516227  1
  O  O364  1  0.36213750  0.13107365  0.86744314  1
  O  O365  1  0.37050781  0.61720396  0.36800579  1
  O  O366  1  0.37272626  0.61912900  0.86863018  1
  O  O367  1  0.86296823  0.13360748  0.36503485  1
  O  O368  1  0.86991195  0.11819482  0.87182025  1
  O  O369  1  0.86536528  0.62485947  0.36692690  1
  O  O370  1  0.87846602  0.61971517  0.87670888  1
  O  O371  1  0.13268716  0.39158488  0.11929094  1
  O  O372  1  0.12185904  0.37576288  0.63385689  1
  O  O373  1  0.13741913  0.88846852  0.12324536  1
  O  O374  1  0.12204370  0.88600748  0.59828367  1
  O  O375  1  0.63581464  0.36446892  0.13503990  1
  O  O376  1  0.61788178  0.38675200  0.61892231  1
  O  O377  1  0.63140402  0.87539305  0.12805142  1
  O  O378  1  0.63544446  0.87012510  0.63494683  1
  O  O379  1  0.12001635  0.24245532  0.26224373  1
  O  O380  1  0.12171435  0.25806460  0.75375374  1
  O  O381  1  0.10499689  0.74411796  0.23978143  1
  O  O382  1  0.17346055  0.75687932  0.75257095  1
  O  O383  1  0.63795962  0.26585889  0.26650247  1
  O  O384  1  0.61117492  0.24227132  0.75859918  1
  O  O385  1  0.61719581  0.75295240  0.25328458  1
  O  O386  1  0.63466390  0.75191408  0.76405795  1
  O  O387  1  0.32174171  0.23782281  0.23661358  1
  O  O388  1  0.38243181  0.24457546  0.74804656  1
  O  O389  1  0.38221160  0.74262616  0.24463289  1
  O  O390  1  0.36430473  0.73270194  0.73849246  1
  O  O391  1  0.88147981  0.24585419  0.24192190  1
  O  O392  1  0.87782155  0.25246473  0.73825143  1
  O  O393  1  0.87871252  0.73959057  0.24069785  1
  O  O394  1  0.87576265  0.75721335  0.73451639  1
  O  O395  1  0.37133498  0.49984374  0.48673442  1
  O  O396  1  0.38402808  0.49391074  0.99626697  1
  O  O397  1  0.38483369  1.00088788  0.49665098  1
  O  O398  1  0.38853562  1.00164448  0.99709974  1
  O  O399  1  0.88130489  0.49299676  0.49831520  1
  O  O400  1  0.87404772  0.49416593  0.98366870  1
  O  O401  1  0.88200316  0.99306617  0.50308859  1
  O  O402  1  0.88367416  0.99511791  0.99708263  1
  O  O403  1  0.11948859  0.00821897  0.00979869  1
  O  O404  1  0.11435428  0.01775388  0.50027695  1
  O  O405  1  0.12204270  0.51250959  0.00116794  1
  O  O406  1  0.11503608  0.50665428  0.49951971  1
  O  O407  1  0.61817836  -0.00195317  0.00323279  1
  O  O408  1  0.61401688  0.00504726  0.50319258  1
  O  O409  1  0.61976269  0.50868596  -0.00484562  1
  O  O410  1  0.63338394  0.50861360  0.51551984  1
  O  O411  1  0.35778420  0.37792182  0.11893181  1
  O  O412  1  0.38529766  0.36205343  0.62669004  1
  O  O413  1  0.36456855  0.86346295  0.13168178  1
  O  O414  1  0.38338633  0.85634121  0.62756928  1
  O  O415  1  0.87038044  0.36834571  0.11426971  1
  O  O416  1  0.88332405  0.36636739  0.61171359  1
  O  O417  1  0.86838453  0.86768914  0.12000324  1
  O  O418  1  0.86859517  0.86930065  0.61659171  1
  O  O419  1  0.13201860  0.13591380  0.38385636  1
  O  O420  1  0.13324165  0.14044614  0.87125231  1
  O  O421  1  0.13487143  0.61866687  0.38215610  1
  O  O422  1  0.13358016  0.62614547  0.87792100  1
  O  O423  1  0.63232313  0.13345391  0.38241433  1
  O  O424  1  0.63218664  0.12622083  0.88242413  1
  O  O425  1  0.62898667  0.62413616  0.38192941  1
  O  O426  1  0.62699743  0.63544595  0.87932987  1
