# generated using pymatgen
data_V85Zn86O256
_symmetry_space_group_name_H-M   'P 1'
_cell_length_a   17.02981280
_cell_length_b   17.01124107
_cell_length_c   17.04054204
_cell_angle_alpha   90.10331350
_cell_angle_beta   90.18159661
_cell_angle_gamma   90.03882329
_symmetry_Int_Tables_number   1
_chemical_formula_structural   V85Zn86O256
_chemical_formula_sum   'V85 Zn86 O256'
_cell_volume   4936.58125114
_cell_formula_units_Z   1
loop_
 _symmetry_equiv_pos_site_id
 _symmetry_equiv_pos_as_xyz
  1  'x, y, z'
loop_
 _atom_site_type_symbol
 _atom_site_label
 _atom_site_symmetry_multiplicity
 _atom_site_fract_x
 _atom_site_fract_y
 _atom_site_fract_z
 _atom_site_occupancy
  V  V0  1  0.74703942  0.49703108  0.74746044  1
  V  V1  1  0.87333139  0.87549328  0.50008179  1
  V  V2  1  0.24008929  0.37688784  0.12450729  1
  V  V3  1  0.37998421  0.49666021  0.87325082  1
  V  V4  1  0.62455749  0.49991804  0.62164215  1
  V  V5  1  0.87547029  0.49164033  0.87329921  1
  V  V6  1  0.49478923  0.63160351  0.62361897  1
  V  V7  1  0.00664435  0.58934256  0.11527507  1
  V  V8  1  0.12233999  0.75254939  0.36900319  1
  V  V9  1  0.00042208  0.37861171  0.37676954  1
  V  V10  1  0.24054888  0.49994559  0.24525236  1
  V  V11  1  0.87465126  0.74777709  0.62512558  1
  V  V12  1  0.12417889  0.12568868  0.50083501  1
  V  V13  1  0.37416667  0.50105317  0.37192063  1
  V  V14  1  0.87991461  0.37389910  0.00009274  1
  V  V15  1  0.12561455  0.62763263  0.49810173  1
  V  V16  1  0.74805250  0.74478647  0.49529920  1
  V  V17  1  0.62729284  -0.00197901  0.62510559  1
  V  V18  1  0.74414193  0.25051313  0.00374203  1
  V  V19  1  0.74335132  0.87237049  0.63031314  1
  V  V20  1  0.49984639  0.49635234  -0.00276751  1
  V  V21  1  0.50000434  0.37413395  0.37260626  1
  V  V22  1  0.00584760  0.25362024  0.75358773  1
  V  V23  1  0.12333621  0.25163492  0.37355184  1
  V  V24  1  0.37389983  0.87262638  0.51218682  1
  V  V25  1  0.75269427  0.62388239  0.87643905  1
  V  V26  1  0.62270370  0.12782319  0.00347799  1
  V  V27  1  0.87367614  0.25120487  0.62717570  1
  V  V28  1  -0.00371189  0.24495796  0.24851150  1
  V  V29  1  0.86782012  0.37244687  0.50360980  1
  V  V30  1  0.62346301  0.74929313  0.87035387  1
  V  V31  1  0.49633596  0.12490710  0.12509687  1
  V  V32  1  0.50424836  0.88196576  0.87112697  1
  V  V33  1  0.86718757  0.24570931  0.12835794  1
  V  V34  1  -0.00206888  0.00105201  0.50094888  1
  V  V35  1  0.74657022  0.38176199  0.12661716  1
  V  V36  1  0.13150140  0.37495039  0.74182193  1
  V  V37  1  0.49847947  0.24966027  0.75124288  1
  V  V38  1  0.50120642  -0.00535072  0.49218596  1
  V  V39  1  0.61843408  0.37627672  0.75498201  1
  V  V40  1  0.37503584  0.37581387  0.49670357  1
  V  V41  1  0.37973659  0.87779161  0.00146183  1
  V  V42  1  -0.00274626  0.87418329  0.37416598  1
  V  V43  1  0.37581099  0.25015508  0.62331532  1
  V  V44  1  0.12248252  0.01145631  0.12563791  1
  V  V45  1  0.86564910  0.12977198  0.26194710  1
  V  V46  1  0.49367407  0.75147965  0.24756923  1
  V  V47  1  0.25115577  0.37697754  0.61923540  1
  V  V48  1  0.24726598  0.62370824  0.87941847  1
  V  V49  1  0.37621134  -0.00917004  0.37480355  1
  V  V50  1  0.62489220  0.50156945  0.12921771  1
  V  V51  1  0.25565058  0.86857423  0.12742691  1
  V  V52  1  0.11998961  0.75294300  0.88390831  1
  V  V53  1  -0.00329149  0.12618763  0.63069734  1
  V  V54  1  0.61964453  0.75096710  0.37343985  1
  V  V55  1  0.25049924  0.25078167  0.49759562  1
  V  V56  1  0.25453460  0.75432532  0.50658555  1
  V  V57  1  0.12591711  0.50254704  0.62202031  1
  V  V58  1  0.49904281  0.50058481  0.49817226  1
  V  V59  1  0.37215143  0.37323603  -0.00178343  1
  V  V60  1  0.63650418  0.13744564  0.49180967  1
  V  V61  1  0.13222174  -0.00790435  0.62833577  1
  V  V62  1  0.25749746  0.10575715  0.87437153  1
  V  V63  1  0.24949988  0.12520503  0.37544360  1
  V  V64  1  0.61948725  0.00103917  0.12413353  1
  V  V65  1  0.37385868  0.12594131  0.24995808  1
  V  V66  1  0.36821228  0.25115074  0.11986508  1
  V  V67  1  0.25573917  0.74501258  0.00361223  1
  V  V68  1  0.75847913  0.75121296  0.00275849  1
  V  V69  1  0.49447742  0.62865385  0.12321345  1
  V  V70  1  0.00572585  0.75243908  0.75427812  1
  V  V71  1  0.74543781  0.00622547  0.25814141  1
  V  V72  1  0.75911054  0.86998260  0.12524916  1
  V  V73  1  0.24958124  -0.00190829  0.25031268  1
  V  V74  1  0.62612594  0.37532048  0.25243484  1
  V  V75  1  0.00091436  0.62477868  0.62347522  1
  V  V76  1  0.86664014  0.50183602  0.36821056  1
  V  V77  1  0.61711411  0.87474898  0.25248977  1
  V  V78  1  0.36939748  0.62596815  0.24719146  1
  V  V79  1  0.50310063  0.25143580  0.25355521  1
  V  V80  1  0.14498238  0.25069284  0.88663268  1
  V  V81  1  0.37829758  0.63229733  0.74953737  1
  V  V82  1  0.62104379  0.25399196  0.87758131  1
  V  V83  1  0.02145793  0.38851638  0.88781409  1
  V  V84  1  0.50112317  0.12759859  0.62212537  1
  Zn  Zn85  1  0.87645243  0.62216288  0.74950151  1
  Zn  Zn86  1  0.36994856  0.10343500  0.75177543  1
  Zn  Zn87  1  -0.02253856  0.75148605  0.22047654  1
  Zn  Zn88  1  0.13333941  0.87956154  0.76011054  1
  Zn  Zn89  1  0.62297713  0.62273729  0.49560555  1
  Zn  Zn90  1  0.76604391  -0.00466262  0.75232453  1
  Zn  Zn91  1  0.50466104  0.75278041  0.74533830  1
  Zn  Zn92  1  0.86841777  0.00585928  0.38084662  1
  Zn  Zn93  1  0.86490632  0.63276596  0.23350558  1
  Zn  Zn94  1  0.11630536  0.37953916  0.24064979  1
  Zn  Zn95  1  0.74488977  0.36212000  0.62482124  1
  Zn  Zn96  1  0.25216376  0.50593012  0.74643029  1
  Zn  Zn97  1  0.29639420  0.92848711  0.68972730  1
  Zn  Zn98  1  0.12072342  0.87747552  0.25179969  1
  Zn  Zn99  1  0.74189895  0.61524074  0.35942724  1
  Zn  Zn100  1  0.24844310  0.62640612  0.37255221  1
  Zn  Zn101  1  -0.00165765  0.50246723  0.49789313  1
  Zn  Zn102  1  0.79107537  0.08409503  0.88476338  1
  Zn  Zn103  1  0.93947463  0.94651604  -0.06238878  1
  Zn  Zn104  1  0.49205826  0.00599612  -0.01015135  1
  Zn  Zn105  1  0.62497607  0.62505761  0.00120216  1
  Zn  Zn106  1  0.09494133  0.09046296  -0.02782667  1
  Zn  Zn107  1  0.18746668  0.19163290  0.19007945  1
  Zn  Zn108  1  0.19125032  0.18129115  0.68835441  1
  Zn  Zn109  1  0.13246999  0.71483676  0.14754101  1
  Zn  Zn110  1  0.21851118  0.72736196  0.71129473  1
  Zn  Zn111  1  0.68903759  0.19541760  0.32185204  1
  Zn  Zn112  1  0.68997100  0.18037080  0.69158044  1
  Zn  Zn113  1  0.68669678  0.68655581  0.18820969  1
  Zn  Zn114  1  0.68615824  0.68439076  0.68601730  1
  Zn  Zn115  1  0.31221647  0.31430845  0.30855983  1
  Zn  Zn116  1  0.31588424  0.31380201  0.80731868  1
  Zn  Zn117  1  0.30962134  0.80886611  0.31712884  1
  Zn  Zn118  1  0.31879890  0.81534623  0.82342547  1
  Zn  Zn119  1  0.81181806  0.32137460  0.31371494  1
  Zn  Zn120  1  0.84208392  0.26806353  0.84262005  1
  Zn  Zn121  1  0.80896290  0.81398646  0.31167643  1
  Zn  Zn122  1  0.81530003  0.81005211  0.81135722  1
  Zn  Zn123  1  0.18665911  0.44097832  0.43258209  1
  Zn  Zn124  1  0.19418929  0.43550654  0.93425922  1
  Zn  Zn125  1  0.18741932  0.93589623  0.44241106  1
  Zn  Zn126  1  0.19080069  0.93252344  0.94107727  1
  Zn  Zn127  1  0.68891562  0.42576717  0.43669312  1
  Zn  Zn128  1  0.68608117  0.43609653  0.93803225  1
  Zn  Zn129  1  0.68379701  0.93419212  0.44040531  1
  Zn  Zn130  1  0.68492330  0.93062973  0.94491098  1
  Zn  Zn131  1  0.30660686  0.06389549  0.05695714  1
  Zn  Zn132  1  0.31527725  0.06367499  0.56047300  1
  Zn  Zn133  1  0.31071336  0.55940159  0.06417222  1
  Zn  Zn134  1  0.31139782  0.56640712  0.56070286  1
  Zn  Zn135  1  0.80994827  0.06033639  0.06846094  1
  Zn  Zn136  1  0.81174418  0.06399748  0.56514530  1
  Zn  Zn137  1  0.81817143  0.56449250  0.05546779  1
  Zn  Zn138  1  0.81372988  0.55961767  0.55737778  1
  Zn  Zn139  1  0.43486848  0.43856776  0.18472156  1
  Zn  Zn140  1  0.43737629  0.43986722  0.68557390  1
  Zn  Zn141  1  0.43457190  0.93667226  0.18546060  1
  Zn  Zn142  1  0.46605395  0.94547610  0.69330342  1
  Zn  Zn143  1  0.93615800  0.43628233  0.18620600  1
  Zn  Zn144  1  0.93995656  0.43495159  0.69102558  1
  Zn  Zn145  1  0.93533332  0.94596377  0.19520312  1
  Zn  Zn146  1  0.94259828  0.93024847  0.68672748  1
  Zn  Zn147  1  0.05902603  0.06402739  0.31323827  1
  Zn  Zn148  1  0.06255801  0.06172746  0.80764986  1
  Zn  Zn149  1  0.05496286  0.57041018  0.30331162  1
  Zn  Zn150  1  0.06483660  0.56518406  0.81167305  1
  Zn  Zn151  1  0.55971581  0.06327814  0.31286761  1
  Zn  Zn152  1  0.62863457  0.05571112  0.81735294  1
  Zn  Zn153  1  0.55993495  0.56397160  0.31079119  1
  Zn  Zn154  1  0.56277254  0.56627940  0.81224681  1
  Zn  Zn155  1  0.43905790  0.18458113  0.43641861  1
  Zn  Zn156  1  0.43398542  0.18529506  0.93318153  1
  Zn  Zn157  1  0.43682176  0.68902324  0.43466810  1
  Zn  Zn158  1  0.43623795  0.68843447  0.93784362  1
  Zn  Zn159  1  0.93461801  0.19086587  0.44102045  1
  Zn  Zn160  1  0.93822133  0.12146269  0.94511204  1
  Zn  Zn161  1  0.93465098  0.68927121  0.43107567  1
  Zn  Zn162  1  0.97327902  0.74114529  1.00934852  1
  Zn  Zn163  1  0.03973708  0.26123542  0.04351978  1
  Zn  Zn164  1  0.06007098  0.31155815  0.56012841  1
  Zn  Zn165  1  0.04775686  0.87018735  0.07367257  1
  Zn  Zn166  1  0.06202029  0.80999600  0.55925915  1
  Zn  Zn167  1  0.55590364  0.31401089  0.06743545  1
  Zn  Zn168  1  0.56250777  0.31459729  0.56103537  1
  Zn  Zn169  1  0.56749579  0.81020291  0.05903660  1
  Zn  Zn170  1  0.56076943  0.81353355  0.55699874  1
  O  O171  1  0.13223166  0.11120982  0.13164599  1
  O  O172  1  0.11726812  0.11612195  0.61911881  1
  O  O173  1  0.10792249  0.60809924  0.13070156  1
  O  O174  1  0.11580131  0.62107155  0.61144709  1
  O  O175  1  0.61325142  0.11542937  0.11684358  1
  O  O176  1  0.61853211  0.11837663  0.61168384  1
  O  O177  1  0.61341201  0.61560063  0.12466454  1
  O  O178  1  0.61523840  0.61361515  0.62228872  1
  O  O179  1  0.37987564  0.38124993  0.37805315  1
  O  O180  1  0.36807739  0.38712312  0.88305915  1
  O  O181  1  0.37178436  0.88886205  0.37816088  1
  O  O182  1  0.39403420  0.87034724  0.88778397  1
  O  O183  1  0.88287105  0.38305472  0.38508565  1
  O  O184  1  0.88622750  0.37453964  0.88212760  1
  O  O185  1  0.88205267  0.87900409  0.38323738  1
  O  O186  1  0.87970059  0.90471018  0.84003232  1
  O  O187  1  0.25544739  0.00453083  0.36822038  1
  O  O188  1  0.23771092  0.00675961  0.86798994  1
  O  O189  1  0.25767758  0.50220490  0.36442496  1
  O  O190  1  0.26116068  0.50848437  0.87335604  1
  O  O191  1  0.74961539  -0.01351971  0.36042947  1
  O  O192  1  0.72141772  -0.00330670  0.86516498  1
  O  O193  1  0.76308526  0.49762760  0.38340540  1
  O  O194  1  0.75171035  0.50190403  0.86641556  1
  O  O195  1  0.25551065  0.49012367  0.13565390  1
  O  O196  1  0.24378940  0.49492784  0.62303180  1
  O  O197  1  0.24800295  0.99597723  0.13751729  1
  O  O198  1  0.23572717  1.00348053  0.61996500  1
  O  O199  1  0.73469660  0.49054081  0.11160026  1
  O  O200  1  0.73798954  0.50548863  0.63172956  1
  O  O201  1  0.73840357  0.99199951  0.13589182  1
  O  O202  1  0.74387263  0.99067642  0.62778432  1
  O  O203  1  -0.00196475  0.36582881  0.26224602  1
  O  O204  1  0.01749394  0.37525404  0.75875484  1
  O  O205  1  -0.00097169  0.87666844  0.26537362  1
  O  O206  1  0.01282804  0.85536060  0.74101470  1
  O  O207  1  0.50424693  0.36880420  0.25102933  1
  O  O208  1  0.51029095  0.36482560  0.73968752  1
  O  O209  1  0.50690487  0.86472950  0.24085639  1
  O  O210  1  0.49861875  0.86667295  0.76744884  1
  O  O211  1  0.49345953  0.13286852  0.24523269  1
  O  O212  1  0.50162962  0.13745726  0.73111623  1
  O  O213  1  0.49126869  0.63120980  0.24179708  1
  O  O214  1  0.49413169  0.62440182  0.74034514  1
  O  O215  1  0.98652528  0.13784776  0.25683211  1
  O  O216  1  1.01118523  0.13935358  0.73817196  1
  O  O217  1  0.99193862  0.62685494  0.22970118  1
  O  O218  1  1.00058848  0.63163446  0.73774362  1
  O  O219  1  0.38465668  0.26109313  0.00949782  1
  O  O220  1  0.37029247  0.25613373  0.50229422  1
  O  O221  1  0.36418274  0.75891318  -0.00177581  1
  O  O222  1  0.36799055  0.76238955  0.48774964  1
  O  O223  1  0.85811754  0.25800450  0.01343777  1
  O  O224  1  0.88317746  0.26060697  0.51526392  1
  O  O225  1  0.85622196  0.74742104  -0.00186082  1
  O  O226  1  0.86563428  0.75423395  0.50347707  1
  O  O227  1  0.13080083  0.24541047  0.49374130  1
  O  O228  1  0.13878244  0.26615934  0.98378995  1
  O  O229  1  0.13248089  0.74471651  0.49247337  1
  O  O230  1  0.14051498  0.74626624  0.98554971  1
  O  O231  1  0.62239091  0.23595217  0.50551151  1
  O  O232  1  0.62350409  0.24908029  0.99864253  1
  O  O233  1  0.62982133  0.74993513  0.48838742  1
  O  O234  1  0.63610109  0.74463698  0.99111289  1
  O  O235  1  0.48869933  0.24567604  0.13493621  1
  O  O236  1  0.49629735  0.24502200  0.62791626  1
  O  O237  1  0.50844465  0.73810096  0.13429001  1
  O  O238  1  0.50968159  0.73585427  0.62498517  1
  O  O239  1  0.97956539  0.26239940  0.14193701  1
  O  O240  1  0.99688963  0.24438410  0.63128877  1
  O  O241  1  1.02849635  0.76587477  0.12231528  1
  O  O242  1  0.99665812  0.74143539  0.62974741  1
  O  O243  1  0.00227747  0.25840893  0.36912310  1
  O  O244  1  0.02875259  0.26868170  0.86368379  1
  O  O245  1  0.00997978  0.76369400  0.38597005  1
  O  O246  1  0.01785985  0.73786108  0.86941138  1
  O  O247  1  0.48847089  0.25763394  0.36131675  1
  O  O248  1  0.50745488  0.24575196  0.86204353  1
  O  O249  1  0.51037533  0.74488606  0.36193263  1
  O  O250  1  0.51092389  0.75026718  0.87650780  1
  O  O251  1  0.24517337  0.13138109  0.49375934  1
  O  O252  1  0.24750015  0.11904375  0.97799607  1
  O  O253  1  0.24113445  0.63146454  0.49398295  1
  O  O254  1  0.26211796  0.63201128  0.99104168  1
  O  O255  1  0.73457669  0.12039594  0.50292506  1
  O  O256  1  0.73412868  0.13851655  1.01009727  1
  O  O257  1  0.74723833  0.63729340  0.49751929  1
  O  O258  1  0.74704247  0.63042618  0.99150856  1
  O  O259  1  0.26471513  0.38710595  0.01025688  1
  O  O260  1  0.25517385  0.37055155  0.50050741  1
  O  O261  1  0.25992258  0.86640720  0.00786143  1
  O  O262  1  0.26110231  0.86789581  0.49619889  1
  O  O263  1  0.75254886  0.36861185  0.00670846  1
  O  O264  1  0.76300843  0.37832123  0.50989769  1
  O  O265  1  0.74551787  0.86934602  0.01837621  1
  O  O266  1  0.75439477  0.86419593  0.50560614  1
  O  O267  1  0.13777060  0.49759595  0.26000050  1
  O  O268  1  0.12983256  0.49075868  0.74250738  1
  O  O269  1  0.13624663  1.00158945  0.24732156  1
  O  O270  1  0.11970266  0.99575303  0.73244861  1
  O  O271  1  0.61368182  0.49027620  0.23686954  1
  O  O272  1  0.62528723  0.49452227  0.74272897  1
  O  O273  1  0.62609603  0.99489092  0.24460792  1
  O  O274  1  0.60216280  0.99484604  0.72243491  1
  O  O275  1  0.36858903  0.00491215  0.25637873  1
  O  O276  1  0.37550901  -0.00651262  0.73394626  1
  O  O277  1  0.37033327  0.50675435  0.25389918  1
  O  O278  1  0.37597615  0.50600318  0.75915572  1
  O  O279  1  0.86302599  0.01435832  0.25171607  1
  O  O280  1  0.87937512  -0.03322166  0.77866332  1
  O  O281  1  0.87420093  0.48920630  0.26854470  1
  O  O282  1  0.86008044  0.49578936  0.75318286  1
  O  O283  1  0.11484705  0.36919870  0.37503128  1
  O  O284  1  0.14159843  0.36176372  0.85292772  1
  O  O285  1  0.11566177  0.87036877  0.37735901  1
  O  O286  1  0.13196674  0.85692829  0.87594388  1
  O  O287  1  0.61414113  0.38554987  0.36086358  1
  O  O288  1  0.62217484  0.36845492  0.86555942  1
  O  O289  1  0.62626720  0.86608062  0.36141983  1
  O  O290  1  0.61145458  0.85999309  0.88706523  1
  O  O291  1  0.37610095  0.13194560  0.12818239  1
  O  O292  1  0.38564310  0.13297476  0.62078748  1
  O  O293  1  0.38572076  0.61831161  0.13441134  1
  O  O294  1  0.38522906  0.61607370  0.63534272  1
  O  O295  1  0.85963681  0.14043538  0.14100673  1
  O  O296  1  0.88871063  0.13329541  0.62178826  1
  O  O297  1  0.89055518  0.60302392  0.12766003  1
  O  O298  1  0.88479681  0.62851793  0.62319111  1
  O  O299  1  0.26338488  0.25735612  0.13248132  1
  O  O300  1  0.25597109  0.25512527  0.61578336  1
  O  O301  1  0.23535172  0.75960431  0.11481317  1
  O  O302  1  0.24890937  0.74226054  0.60483627  1
  O  O303  1  0.75218560  0.26693792  0.11711783  1
  O  O304  1  0.76940079  0.24687029  0.64209227  1
  O  O305  1  0.74189809  0.76407512  0.11997712  1
  O  O306  1  0.75167865  0.75266459  0.61567783  1
  O  O307  1  0.24505283  0.24573813  0.37742127  1
  O  O308  1  0.24604153  0.25037865  0.87008582  1
  O  O309  1  0.23876810  0.74726749  0.38372195  1
  O  O310  1  0.24667305  0.74042149  0.88378954  1
  O  O311  1  0.74293557  0.27042232  0.37999800  1
  O  O312  1  0.73225839  0.25808250  0.89185981  1
  O  O313  1  0.73736162  0.75108623  0.38306244  1
  O  O314  1  0.74616792  0.74395247  0.88001691  1
  O  O315  1  0.01551318  0.15520502  0.01689880  1
  O  O316  1  0.00505598  0.12197890  0.50878744  1
  O  O317  1  -0.00514191  0.62958016  0.02115010  1
  O  O318  1  0.00737889  0.62805594  0.50793509  1
  O  O319  1  0.50292404  0.12404716  0.00749212  1
  O  O320  1  0.50575941  0.11849021  0.50582817  1
  O  O321  1  0.49781626  0.61611470  0.00913838  1
  O  O322  1  0.49832880  0.61880888  0.50702111  1
  O  O323  1  0.49431641  0.38046809  0.49259477  1
  O  O324  1  0.48693115  0.38738553  1.00806056  1
  O  O325  1  0.49226781  0.88749310  0.49974507  1
  O  O326  1  0.49384546  0.87450130  0.99679340  1
  O  O327  1  0.99304629  0.37607970  0.49012331  1
  O  O328  1  0.98164388  0.35303884  0.99574320  1
  O  O329  1  0.99231230  0.88098268  0.49524315  1
  O  O330  1  0.98541196  0.85546955  0.98566719  1
  O  O331  1  0.49329706  0.49507274  0.37885224  1
  O  O332  1  0.49151552  0.50762754  0.88542802  1
  O  O333  1  0.48795293  1.00727616  0.38291806  1
  O  O334  1  0.51718660  0.98244693  0.87615498  1
  O  O335  1  0.99334457  0.49073025  0.37450197  1
  O  O336  1  0.97838228  0.49680253  0.85297995  1
  O  O337  1  0.99841568  0.99203158  0.38267947  1
  O  O338  1  1.01431973  1.03078988  0.90190129  1
  O  O339  1  0.02193569  -0.01373268  0.13248294  1
  O  O340  1  0.00426062  0.00830562  0.62143636  1
  O  O341  1  0.00571897  0.48698585  0.11556601  1
  O  O342  1  0.00615205  0.50934042  0.62478303  1
  O  O343  1  0.50685214  0.00570615  0.12718997  1
  O  O344  1  0.50689502  0.00952160  0.60706317  1
  O  O345  1  0.50511412  0.50735241  0.11709726  1
  O  O346  1  0.50754947  0.50645850  0.61807948  1
  O  O347  1  0.24892632  0.38368342  0.24198150  1
  O  O348  1  0.24610899  0.37718092  0.73578661  1
  O  O349  1  0.25338533  0.88412916  0.24582867  1
  O  O350  1  0.24438768  0.84481683  0.74244712  1
  O  O351  1  0.73666303  0.37421436  0.23662169  1
  O  O352  1  0.73252975  0.38815666  0.74418793  1
  O  O353  1  0.73698066  0.87985949  0.23983955  1
  O  O354  1  0.74909422  0.86880816  0.73192092  1
  O  O355  1  0.25526877  0.11731128  0.25608156  1
  O  O356  1  0.25505214  0.12946398  0.76385234  1
  O  O357  1  0.26315036  0.61570314  0.24983527  1
  O  O358  1  0.26232477  0.62750566  0.75973404  1
  O  O359  1  0.75093320  0.11623830  0.25813951  1
  O  O360  1  0.72547456  0.10486066  0.76379697  1
  O  O361  1  0.75263035  0.62289931  0.24857026  1
  O  O362  1  0.74836464  0.61282840  0.75650986  1
  O  O363  1  0.36796459  0.11571325  0.37031811  1
  O  O364  1  0.36442300  0.12040679  0.87132823  1
  O  O365  1  0.37591553  0.61818702  0.36354087  1
  O  O366  1  0.37071562  0.61539873  0.86873936  1
  O  O367  1  0.87425559  0.12619830  0.36699046  1
  O  O368  1  0.86753446  0.16215062  0.86927095  1
  O  O369  1  0.87650962  0.60530219  0.37983633  1
  O  O370  1  0.85764123  0.60862753  0.87025715  1
  O  O371  1  0.14112861  0.36247431  0.12443346  1
  O  O372  1  0.12957689  0.38204609  0.62495182  1
  O  O373  1  0.14413198  0.88987168  0.13464852  1
  O  O374  1  0.12070965  0.89157610  0.61748052  1
  O  O375  1  0.62656530  0.38218572  0.13190119  1
  O  O376  1  0.62520949  0.38504503  0.63061365  1
  O  O377  1  0.62746884  0.88460715  0.13361690  1
  O  O378  1  0.63472125  0.88441752  0.60892884  1
  O  O379  1  0.11275838  0.25125545  0.25536549  1
  O  O380  1  0.12055648  0.26234695  0.73709531  1
  O  O381  1  0.12503538  0.75448307  0.26555094  1
  O  O382  1  0.11960173  0.74426663  0.76512033  1
  O  O383  1  0.61020971  0.26056077  0.24959197  1
  O  O384  1  0.61898033  0.25689137  0.75753150  1
  O  O385  1  0.61554002  0.75693892  0.25484041  1
  O  O386  1  0.62574677  0.74223154  0.76528005  1
  O  O387  1  0.38147099  0.24557573  0.24089873  1
  O  O388  1  0.38776148  0.25477432  0.74041172  1
  O  O389  1  0.38437580  0.74109106  0.25771970  1
  O  O390  1  0.38168922  0.73460245  0.75944332  1
  O  O391  1  0.87579655  0.24716799  0.24727419  1
  O  O392  1  0.89955545  0.26680006  0.74038806  1
  O  O393  1  0.88144810  0.74090545  0.27302348  1
  O  O394  1  0.88606331  0.74423324  0.74394848  1
  O  O395  1  0.37897178  0.49509681  0.49259734  1
  O  O396  1  0.38252978  0.49445934  0.99295526  1
  O  O397  1  0.38029919  0.99349670  0.49252164  1
  O  O398  1  0.37663610  0.98388438  1.00732263  1
  O  O399  1  0.88015400  0.48921960  0.49395698  1
  O  O400  1  0.86473971  0.48288502  0.98401409  1
  O  O401  1  0.87954966  0.99474198  0.50072975  1
  O  O402  1  0.86335343  1.02983909  0.97571761  1
  O  O403  1  0.13666505  -0.00500517  0.02216330  1
  O  O404  1  0.11840099  0.00651962  0.50818040  1
  O  O405  1  0.08087049  0.44988518  -0.05602114  1
  O  O406  1  0.12304349  0.51113870  0.50181600  1
  O  O407  1  0.62244633  0.00880137  0.01206100  1
  O  O408  1  0.61690194  0.00643604  0.50193539  1
  O  O409  1  0.61361508  0.49811379  0.00780166  1
  O  O410  1  0.61912179  0.49759579  0.50750547  1
  O  O411  1  0.36894520  0.36790444  0.11827430  1
  O  O412  1  0.37128349  0.37142552  0.61551537  1
  O  O413  1  0.36278053  0.87410656  0.12080243  1
  O  O414  1  0.38005213  0.87904259  0.61201142  1
  O  O415  1  0.86240405  0.37198972  0.11948913  1
  O  O416  1  0.87729774  0.36879828  0.61883969  1
  O  O417  1  0.85701298  0.88190478  0.13585681  1
  O  O418  1  0.86622616  0.86744016  0.61822078  1
  O  O419  1  0.12929656  0.13106796  0.38041541  1
  O  O420  1  0.13810196  0.14231157  0.87013255  1
  O  O421  1  0.11896965  0.63391219  0.38448135  1
  O  O422  1  0.14147515  0.62806612  0.87108010  1
  O  O423  1  0.62062148  0.12579842  0.38631515  1
  O  O424  1  0.61565567  0.13928578  0.89543493  1
  O  O425  1  0.62521986  0.63421715  0.37541740  1
  O  O426  1  0.63683811  0.62792469  0.87792726  1
