# generated using pymatgen
data_V85Zn86O256
_symmetry_space_group_name_H-M   'P 1'
_cell_length_a   16.95850959
_cell_length_b   16.95477293
_cell_length_c   16.95753930
_cell_angle_alpha   90.06657121
_cell_angle_beta   90.05792410
_cell_angle_gamma   90.05680781
_symmetry_Int_Tables_number   1
_chemical_formula_structural   V85Zn86O256
_chemical_formula_sum   'V85 Zn86 O256'
_cell_volume   4875.75373713
_cell_formula_units_Z   1
loop_
 _symmetry_equiv_pos_site_id
 _symmetry_equiv_pos_as_xyz
  1  'x, y, z'
loop_
 _atom_site_type_symbol
 _atom_site_label
 _atom_site_symmetry_multiplicity
 _atom_site_fract_x
 _atom_site_fract_y
 _atom_site_fract_z
 _atom_site_occupancy
  V  V0  1  0.00137734  0.12599058  0.62257978  1
  V  V1  1  0.75075944  -0.00037909  0.24831564  1
  V  V2  1  0.37424557  0.62543820  0.75205979  1
  V  V3  1  -0.00302036  0.74924827  0.74464675  1
  V  V4  1  0.62256192  0.49360425  0.62898070  1
  V  V5  1  0.37257264  0.12646279  0.25483660  1
  V  V6  1  0.12281490  0.87589855  0.24964955  1
  V  V7  1  0.24984844  0.87092285  0.62224194  1
  V  V8  1  0.87105559  0.11815947  0.75572064  1
  V  V9  1  0.00356027  0.62306391  0.11103970  1
  V  V10  1  0.25199438  0.37284788  0.61818886  1
  V  V11  1  0.62913837  0.49886403  0.12724638  1
  V  V12  1  0.87210207  0.61746780  0.24862071  1
  V  V13  1  -0.00007013  0.74989449  0.24879038  1
  V  V14  1  0.87695173  0.75261836  0.12304947  1
  V  V15  1  0.12436405  0.37426335  0.74794604  1
  V  V16  1  0.37563899  0.25233687  0.12449738  1
  V  V17  1  -0.00215670  0.38077968  0.88130796  1
  V  V18  1  0.37531750  0.37575133  0.00211378  1
  V  V19  1  0.62166625  0.61975916  0.49994049  1
  V  V20  1  0.50184992  0.12276938  0.62419752  1
  V  V21  1  0.12160574  0.50203499  0.11130578  1
  V  V22  1  0.74673287  0.48934708  0.75178613  1
  V  V23  1  0.50370607  -0.00239256  0.49963992  1
  V  V24  1  0.12606791  -0.00004811  0.62616329  1
  V  V25  1  0.38027755  0.63304327  0.24594313  1
  V  V26  1  0.88028198  0.14054415  0.24460611  1
  V  V27  1  0.11928801  0.87483359  0.75666032  1
  V  V28  1  0.76565272  0.25308680  0.00216451  1
  V  V29  1  0.14208045  0.25016294  0.37359251  1
  V  V30  1  0.25231286  0.24686285  -0.00523519  1
  V  V31  1  0.74919939  0.75159825  -0.00477151  1
  V  V32  1  0.87788110  0.49524570  0.88381469  1
  V  V33  1  0.36997291  0.74920419  0.62005473  1
  V  V34  1  0.12625874  0.12444983  -0.00445700  1
  V  V35  1  0.12853925  0.75135428  0.38237629  1
  V  V36  1  0.62787641  0.37775269  0.24776665  1
  V  V37  1  0.24803404  0.63028744  0.37999744  1
  V  V38  1  -0.00062748  0.36526125  0.38338030  1
  V  V39  1  0.50058458  0.12593383  0.12398566  1
  V  V40  1  0.50678886  0.37566827  0.86878383  1
  V  V41  1  0.25421267  0.87518760  0.12108428  1
  V  V42  1  0.62373739  0.87121800  0.75821182  1
  V  V43  1  0.87527379  0.25349707  0.61829001  1
  V  V44  1  0.75204347  0.86888165  0.62548252  1
  V  V45  1  0.25304846  0.00150389  0.76327741  1
  V  V46  1  0.12903576  0.24763638  0.87081486  1
  V  V47  1  0.50071020  0.50161895  0.00156101  1
  V  V48  1  0.76477672  0.37445077  0.12474946  1
  V  V49  1  -0.00038982  -0.00165358  0.50090984  1
  V  V50  1  0.24952406  0.50006400  0.75098130  1
  V  V51  1  -0.00369728  -0.00182885  -0.01181810  1
  V  V52  1  0.87481203  -0.00125557  0.37332960  1
  V  V53  1  0.49866441  0.62071430  0.62175165  1
  V  V54  1  0.61710361  0.86932755  0.25126302  1
  V  V55  1  0.87345071  0.62758404  0.74284160  1
  V  V56  1  0.24829024  0.00391189  0.25575253  1
  V  V57  1  0.75258527  0.37407005  0.61741043  1
  V  V58  1  -0.00135018  0.87462945  0.37458618  1
  V  V59  1  0.74921436  0.61740600  0.36973722  1
  V  V60  1  0.37568866  0.12019569  0.76352346  1
  V  V61  1  0.50292569  0.74991749  0.75715056  1
  V  V62  1  0.50261200  0.37975070  0.38215784  1
  V  V63  1  0.11868606  0.00270411  0.12482629  1
  V  V64  1  0.48414343  -0.00353275  -0.00375281  1
  V  V65  1  0.88499387  0.49977175  0.39149316  1
  V  V66  1  0.87827186  0.87969120  -0.01400425  1
  V  V67  1  0.62511286  0.62806821  -0.00284243  1
  V  V68  1  0.75076928  0.74781252  0.50023939  1
  V  V69  1  0.37470573  0.50046524  0.87749150  1
  V  V70  1  0.87299480  0.87142785  0.50211506  1
  V  V71  1  0.62839698  0.25321560  0.87159529  1
  V  V72  1  0.25306818  0.75235596  0.00164001  1
  V  V73  1  0.62684093  0.00010187  0.62374148  1
  V  V74  1  0.62570796  0.24742092  0.37921298  1
  V  V75  1  0.37892926  0.50045995  0.38009497  1
  V  V76  1  0.11860334  0.74814625  0.87983675  1
  V  V77  1  0.74780155  0.62475920  0.87385765  1
  V  V78  1  0.11586561  0.50284998  0.61831224  1
  V  V79  1  0.62456541  0.00163779  0.12208761  1
  V  V80  1  0.24314299  0.62466564  0.88236537  1
  V  V81  1  0.37347055  0.00264716  0.37983604  1
  V  V82  1  0.74664289  0.12578661  0.38105978  1
  V  V83  1  0.24134122  0.49616996  0.25218904  1
  V  V84  1  0.48518245  0.87946291  0.87635847  1
  Zn  Zn85  1  0.75029198  0.87617521  0.12274854  1
  Zn  Zn86  1  0.75417791  -0.00790005  0.76092554  1
  Zn  Zn87  1  0.37169766  0.86879005  0.49626390  1
  Zn  Zn88  1  0.50519147  0.24998807  0.74886314  1
  Zn  Zn89  1  0.38575825  0.76037646  0.12355810  1
  Zn  Zn90  1  0.13429413  0.12211422  0.49170976  1
  Zn  Zn91  1  0.75041807  0.24913828  0.49921501  1
  Zn  Zn92  1  0.75258883  0.11707561  0.88292973  1
  Zn  Zn93  1  0.50040913  0.25211876  0.25015588  1
  Zn  Zn94  1  -0.00283566  0.24983859  0.74941356  1
  Zn  Zn95  1  0.49407377  0.86591825  0.37289273  1
  Zn  Zn96  1  0.38058206  0.37477819  0.50269966  1
  Zn  Zn97  1  0.62660633  0.12695530  -0.00347665  1
  Zn  Zn98  1  0.11785662  0.62235897  0.49646934  1
  Zn  Zn99  1  0.24311296  0.37266112  0.12875268  1
  Zn  Zn100  1  0.26167797  0.23321110  0.50097469  1
  Zn  Zn101  1  -0.01305850  0.62401148  0.61517952  1
  Zn  Zn102  1  0.06367147  0.31833341  0.21600489  1
  Zn  Zn103  1  -0.00557023  0.14775949  0.12450048  1
  Zn  Zn104  1  0.37934517  0.24877683  0.62513929  1
  Zn  Zn105  1  0.50785100  0.63387165  0.13179549  1
  Zn  Zn106  1  0.61700358  0.74231747  0.36802720  1
  Zn  Zn107  1  0.18729131  0.18723811  0.18319578  1
  Zn  Zn108  1  0.19365465  0.18457470  0.68542567  1
  Zn  Zn109  1  0.18771354  0.68564190  0.18922581  1
  Zn  Zn110  1  0.18558171  0.68684721  0.69180199  1
  Zn  Zn111  1  0.69151455  0.19136433  0.18970749  1
  Zn  Zn112  1  0.68796389  0.18816696  0.68871224  1
  Zn  Zn113  1  0.69046650  0.68814758  0.18346902  1
  Zn  Zn114  1  0.68598578  0.68650048  0.68706574  1
  Zn  Zn115  1  0.31598547  0.31542592  0.31212973  1
  Zn  Zn116  1  0.31768559  0.31044478  0.80895899  1
  Zn  Zn117  1  0.31069603  0.81540544  0.31036245  1
  Zn  Zn118  1  0.30836118  0.81017113  0.80928735  1
  Zn  Zn119  1  0.81224424  0.31983106  0.31441486  1
  Zn  Zn120  1  0.81524601  0.30787008  0.81015368  1
  Zn  Zn121  1  0.80744587  0.80863304  0.31310185  1
  Zn  Zn122  1  0.81245866  0.81064472  0.81096584  1
  Zn  Zn123  1  0.18460339  0.43421016  0.43510026  1
  Zn  Zn124  1  0.18863984  0.43336718  0.93679697  1
  Zn  Zn125  1  0.18692587  0.93824452  0.43955372  1
  Zn  Zn126  1  0.18515135  0.93428290  0.93950242  1
  Zn  Zn127  1  0.68847787  0.43956070  0.43759378  1
  Zn  Zn128  1  0.69111539  0.43575302  0.94197135  1
  Zn  Zn129  1  0.68635456  0.93755248  0.43618327  1
  Zn  Zn130  1  0.68582720  0.93692168  0.93681998  1
  Zn  Zn131  1  0.30863331  0.06481944  0.06526227  1
  Zn  Zn132  1  0.31496398  0.05812775  0.57136167  1
  Zn  Zn133  1  0.30950228  0.56375611  0.06434427  1
  Zn  Zn134  1  0.30717119  0.56111774  0.56246812  1
  Zn  Zn135  1  0.81515790  0.06595743  0.06213942  1
  Zn  Zn136  1  0.81379043  0.05928230  0.56603516  1
  Zn  Zn137  1  0.81276364  0.56159689  0.06432481  1
  Zn  Zn138  1  0.80593793  0.56035680  0.56176829  1
  Zn  Zn139  1  0.43875477  0.44237111  0.19077482  1
  Zn  Zn140  1  0.43550465  0.43839081  0.68938727  1
  Zn  Zn141  1  0.43696922  0.94165880  0.18744479  1
  Zn  Zn142  1  0.43596688  0.93758546  0.68953079  1
  Zn  Zn143  1  0.94297958  0.44224883  0.19327947  1
  Zn  Zn144  1  0.93439231  0.43726169  0.69307729  1
  Zn  Zn145  1  0.93617589  0.93932461  0.18414054  1
  Zn  Zn146  1  0.93762189  0.93611489  0.68864549  1
  Zn  Zn147  1  0.06082793  0.06823103  0.31317924  1
  Zn  Zn148  1  0.06140966  0.06343710  0.80860228  1
  Zn  Zn149  1  0.05842437  0.56498424  0.30921565  1
  Zn  Zn150  1  0.05954789  0.56393104  0.80904219  1
  Zn  Zn151  1  0.56077684  0.06086588  0.31275375  1
  Zn  Zn152  1  0.56688150  0.06109307  0.81422428  1
  Zn  Zn153  1  0.56161945  0.55999516  0.31106702  1
  Zn  Zn154  1  0.56242967  0.56196774  0.81195589  1
  Zn  Zn155  1  0.44214588  0.18920174  0.44176351  1
  Zn  Zn156  1  0.44337378  0.18841574  0.93864241  1
  Zn  Zn157  1  0.43795855  0.68657829  0.43518146  1
  Zn  Zn158  1  0.43653136  0.69050069  0.94023702  1
  Zn  Zn159  1  0.93672097  0.18509523  0.43548071  1
  Zn  Zn160  1  0.94562989  0.18840193  0.93638320  1
  Zn  Zn161  1  0.93821697  0.68727876  0.43806835  1
  Zn  Zn162  1  0.93324838  0.68790161  0.93101461  1
  Zn  Zn163  1  0.06436051  0.31914415  0.05217390  1
  Zn  Zn164  1  0.06303625  0.31140408  0.55385128  1
  Zn  Zn165  1  0.06238196  0.81487714  0.05938189  1
  Zn  Zn166  1  0.06215737  0.81188445  0.56464919  1
  Zn  Zn167  1  0.56686049  0.31213839  0.05688797  1
  Zn  Zn168  1  0.56491818  0.31022654  0.56299579  1
  Zn  Zn169  1  0.56087369  0.81535654  0.06007337  1
  Zn  Zn170  1  0.56122527  0.80994465  0.56246387  1
  O  O171  1  0.12627996  0.11527926  0.11457945  1
  O  O172  1  0.11229782  0.11908843  0.63148226  1
  O  O173  1  0.11649538  0.61399839  0.13108819  1
  O  O174  1  0.12939537  0.60848638  0.62760825  1
  O  O175  1  0.61525703  0.11825124  0.13086123  1
  O  O176  1  0.61662647  0.11062849  0.63576953  1
  O  O177  1  0.63023293  0.61562300  0.11607508  1
  O  O178  1  0.61839990  0.61690860  0.61959574  1
  O  O179  1  0.38632407  0.38349356  0.37395580  1
  O  O180  1  0.38198986  0.38097844  0.88188976  1
  O  O181  1  0.37415417  0.88732331  0.37515615  1
  O  O182  1  0.38582371  0.87471305  0.86582629  1
  O  O183  1  0.88119141  0.39226597  0.37251871  1
  O  O184  1  0.88696068  0.38274380  0.86179478  1
  O  O185  1  0.87836471  0.87856108  0.37959557  1
  O  O186  1  0.87235338  0.87225297  0.88686612  1
  O  O187  1  0.25631240  -0.00366140  0.36421946  1
  O  O188  1  0.24275094  -0.00386405  0.86274498  1
  O  O189  1  0.25385498  0.50526821  0.36544987  1
  O  O190  1  0.25352352  0.50622223  0.87222591  1
  O  O191  1  0.75254136  0.00629465  0.36639064  1
  O  O192  1  0.74550723  0.00459836  0.87260703  1
  O  O193  1  0.76116339  0.51158757  0.37937510  1
  O  O194  1  0.75482721  0.50376632  0.86840680  1
  O  O195  1  0.23811235  0.50461241  0.13635516  1
  O  O196  1  0.24190047  0.49210522  0.63236798  1
  O  O197  1  0.23996017  0.99442999  0.13191238  1
  O  O198  1  0.24470500  0.98871043  0.63928124  1
  O  O199  1  0.74028157  0.48550598  0.11560627  1
  O  O200  1  0.74314070  0.49283566  0.63299566  1
  O  O201  1  0.74164080  1.00253925  0.13284259  1
  O  O202  1  0.74136985  0.98850238  0.62585169  1
  O  O203  1  0.00240781  0.39038895  0.27321202  1
  O  O204  1  0.01334730  0.37136974  0.75358750  1
  O  O205  1  0.00332623  0.87122305  0.25443579  1
  O  O206  1  0.01056927  0.86730327  0.74506005  1
  O  O207  1  0.51079139  0.37463995  0.25824880  1
  O  O208  1  0.49400943  0.37332873  0.76492218  1
  O  O209  1  0.51452069  0.88321592  0.24893922  1
  O  O210  1  0.50518949  0.86883711  0.75513217  1
  O  O211  1  0.48971757  0.12301492  0.23978016  1
  O  O212  1  0.49050821  0.12033531  0.74401595  1
  O  O213  1  0.48425595  0.62148935  0.25132329  1
  O  O214  1  0.49598989  0.63204288  0.74483720  1
  O  O215  1  0.98325413  0.12230407  0.24916492  1
  O  O216  1  0.99062356  0.12637399  0.73963684  1
  O  O217  1  0.98979332  0.63200566  0.24019767  1
  O  O218  1  0.98899787  0.63017477  0.74437032  1
  O  O219  1  0.36878436  0.25297538  0.00313395  1
  O  O220  1  0.37678898  0.25603993  0.50638280  1
  O  O221  1  0.35724341  0.74738432  0.00227874  1
  O  O222  1  0.37763686  0.74827334  0.51622414  1
  O  O223  1  0.86475479  0.24775553  -0.00403546  1
  O  O224  1  0.87116578  0.24173143  0.51410646  1
  O  O225  1  0.86995300  0.75712807  0.00468189  1
  O  O226  1  0.85903935  0.75528894  0.49243746  1
  O  O227  1  0.13137881  0.24649324  0.48753210  1
  O  O228  1  0.13390391  0.24421549  0.98957958  1
  O  O229  1  0.12383106  0.75478023  0.48454898  1
  O  O230  1  0.13309711  0.75536631  0.98800901  1
  O  O231  1  0.62921391  0.25411960  0.48347295  1
  O  O232  1  0.63475588  0.24842639  0.99002362  1
  O  O233  1  0.63309036  0.73633636  0.50154554  1
  O  O234  1  0.63876702  0.73966475  1.00681423  1
  O  O235  1  0.49588150  0.24058514  0.12363785  1
  O  O236  1  0.50688244  0.23746589  0.62884023  1
  O  O237  1  0.49589319  0.74418472  0.11416884  1
  O  O238  1  0.49186357  0.74014264  0.63443640  1
  O  O239  1  1.02509279  0.25475320  0.13192001  1
  O  O240  1  0.99446298  0.24263727  0.62373306  1
  O  O241  1  0.99376118  0.74454321  0.12781559  1
  O  O242  1  1.00795756  0.74517638  0.64054491  1
  O  O243  1  -0.00256137  0.26231362  0.37478027  1
  O  O244  1  0.01297573  0.25997901  0.87137602  1
  O  O245  1  0.00678168  0.75637645  0.36766682  1
  O  O246  1  0.01071980  0.74037544  0.86339269  1
  O  O247  1  0.50915589  0.25824919  0.37159985  1
  O  O248  1  0.51040910  0.25951045  0.87668149  1
  O  O249  1  0.50570806  0.75402218  0.37956975  1
  O  O250  1  0.49435977  0.75719613  0.86325091  1
  O  O251  1  0.24535850  0.12137903  0.51336728  1
  O  O252  1  0.23959926  0.13470538  1.00299638  1
  O  O253  1  0.24295588  0.61888450  0.48378969  1
  O  O254  1  0.25070275  0.63206192  0.98905036  1
  O  O255  1  0.75523957  0.12104218  0.48404066  1
  O  O256  1  0.74906923  0.14076785  1.00356932  1
  O  O257  1  0.74230077  0.63093925  0.49310066  1
  O  O258  1  0.74546385  0.63005252  0.99277165  1
  O  O259  1  0.25629290  0.36432550  0.00299275  1
  O  O260  1  0.25195921  0.37812458  0.51239453  1
  O  O261  1  0.24414247  0.86820949  0.01128378  1
  O  O262  1  0.25104971  0.88090556  0.51748625  1
  O  O263  1  0.75077458  0.36492697  0.01265340  1
  O  O264  1  0.74926142  0.37596600  0.51380580  1
  O  O265  1  0.75615377  0.86601828  0.00165647  1
  O  O266  1  0.75094421  0.86684510  0.50509143  1
  O  O267  1  0.13918433  0.50425734  0.25088321  1
  O  O268  1  0.13022146  0.49051995  0.74384290  1
  O  O269  1  0.13017647  0.99937124  0.24471147  1
  O  O270  1  0.12938733  0.99246396  0.74653471  1
  O  O271  1  0.62329216  0.49213644  0.23859474  1
  O  O272  1  0.63626793  0.50840148  0.74037231  1
  O  O273  1  0.63219623  0.99441387  0.24201638  1
  O  O274  1  0.62447003  0.98670272  0.73947986  1
  O  O275  1  0.36783131  0.00690732  0.25799908  1
  O  O276  1  0.36817367  0.01023467  0.74853121  1
  O  O277  1  0.36559123  0.51066012  0.25860261  1
  O  O278  1  0.36911268  0.50647971  0.75804889  1
  O  O279  1  0.86493142  0.00146408  0.25370419  1
  O  O280  1  0.87516064  0.01378085  0.74509886  1
  O  O281  1  0.87505346  0.51545102  0.25568517  1
  O  O282  1  0.86286717  0.50835975  0.75662898  1
  O  O283  1  0.11475167  0.36069651  0.37902740  1
  O  O284  1  0.12065466  0.36973568  0.86570309  1
  O  O285  1  0.11997751  0.87076489  0.36911295  1
  O  O286  1  0.12872622  0.86383320  0.86439358  1
  O  O287  1  0.62336109  0.37277534  0.36668107  1
  O  O288  1  0.61555121  0.37066204  0.88271726  1
  O  O289  1  0.62557057  0.87683848  0.35826977  1
  O  O290  1  0.61748505  0.87406958  0.86160679  1
  O  O291  1  0.38276867  0.13016719  0.13287226  1
  O  O292  1  0.39064299  0.12273870  0.63418504  1
  O  O293  1  0.37336305  0.62392013  0.13989726  1
  O  O294  1  0.37930779  0.62752165  0.63016703  1
  O  O295  1  0.87522878  0.12603950  0.14036498  1
  O  O296  1  0.88283017  0.13002158  0.63168399  1
  O  O297  1  0.87978090  0.63185088  0.12967125  1
  O  O298  1  0.86805962  0.61926811  0.63900718  1
  O  O299  1  0.25578016  0.25256300  0.11323728  1
  O  O300  1  0.25115875  0.26356984  0.62543625  1
  O  O301  1  0.24511677  0.75837742  0.11774254  1
  O  O302  1  0.25841832  0.75776504  0.63660152  1
  O  O303  1  0.74756515  0.26218407  0.11416281  1
  O  O304  1  0.75381824  0.25785034  0.62289785  1
  O  O305  1  0.76248430  0.74787136  0.11298674  1
  O  O306  1  0.74319452  0.75855885  0.61475420  1
  O  O307  1  0.24506069  0.25781813  0.38204541  1
  O  O308  1  0.24116453  0.25718405  0.88309680  1
  O  O309  1  0.24024873  0.74283097  0.36714734  1
  O  O310  1  0.24206147  0.74334872  0.88060238  1
  O  O311  1  0.74430190  0.24394630  0.37528876  1
  O  O312  1  0.74625723  0.25491365  0.88801802  1
  O  O313  1  0.74202764  0.73880812  0.38261023  1
  O  O314  1  0.75682524  0.73717404  0.88519732  1
  O  O315  1  0.00914360  0.11930962  0.00617513  1
  O  O316  1  -0.00092383  0.11729258  0.51002882  1
  O  O317  1  -0.00726915  0.63054939  0.01217569  1
  O  O318  1  0.00596099  0.63320341  0.50598761  1
  O  O319  1  0.50227088  0.11632999  0.01039316  1
  O  O320  1  0.49767118  0.10993267  0.51075918  1
  O  O321  1  0.51240859  0.61990347  -0.00580513  1
  O  O322  1  0.50793523  0.62781844  0.51306201  1
  O  O323  1  0.50465449  0.37524547  0.48609461  1
  O  O324  1  0.49436945  0.38217213  0.99251844  1
  O  O325  1  0.49502438  0.88580141  0.50196999  1
  O  O326  1  0.50506791  0.88426821  0.98774495  1
  O  O327  1  0.99936354  0.37826697  0.48434022  1
  O  O328  1  1.00477522  0.37997895  0.98072896  1
  O  O329  1  0.99299313  0.87782193  0.49578043  1
  O  O330  1  0.99101225  0.88505236  1.00386592  1
  O  O331  1  0.49094471  0.49197897  0.36988118  1
  O  O332  1  0.49563085  0.49484612  0.88012449  1
  O  O333  1  0.49272057  0.99715714  0.38292022  1
  O  O334  1  0.50541263  0.99243309  0.88561773  1
  O  O335  1  0.98760239  0.50509275  0.37814412  1
  O  O336  1  0.98987910  0.49277218  0.86380274  1
  O  O337  1  0.99575937  0.99378584  0.38005570  1
  O  O338  1  1.00390591  1.00554245  0.88918358  1
  O  O339  1  0.01255665  0.00115039  0.12071834  1
  O  O340  1  0.00454575  0.00594676  0.62063043  1
  O  O341  1  0.01358454  0.50801872  0.12817539  1
  O  O342  1  0.01358080  0.49953793  0.63341227  1
  O  O343  1  0.50534864  0.00663993  0.11796333  1
  O  O344  1  0.50711044  0.00214835  0.61945703  1
  O  O345  1  0.51120602  0.50583140  0.11919171  1
  O  O346  1  0.50801022  0.51132999  0.63581123  1
  O  O347  1  0.25745837  0.39276890  0.24736307  1
  O  O348  1  0.24213849  0.37937150  0.74427398  1
  O  O349  1  0.24173116  0.88600583  0.24301338  1
  O  O350  1  0.24010584  0.88008285  0.74422726  1
  O  O351  1  0.73950064  0.36918171  0.23488401  1
  O  O352  1  0.75163364  0.38517462  0.74287983  1
  O  O353  1  0.74294173  0.88567617  0.24770160  1
  O  O354  1  0.74227256  0.86963486  0.74200681  1
  O  O355  1  0.26167238  0.11359253  0.24040393  1
  O  O356  1  0.26556835  0.11634168  0.74507401  1
  O  O357  1  0.25807885  0.61612959  0.25911369  1
  O  O358  1  0.25559976  0.62053727  0.76095954  1
  O  O359  1  0.75898426  0.11717742  0.25613602  1
  O  O360  1  0.76490664  0.12303877  0.74741133  1
  O  O361  1  0.75851570  0.63342091  0.25957694  1
  O  O362  1  0.75346051  0.62106528  0.75784264  1
  O  O363  1  0.38334427  0.11590597  0.36462383  1
  O  O364  1  0.38158152  0.12723220  0.86242190  1
  O  O365  1  0.36779252  0.62034636  0.36731747  1
  O  O366  1  0.36616057  0.62017930  0.87197757  1
  O  O367  1  0.86760179  0.11836223  0.36426040  1
  O  O368  1  0.87775104  0.13452415  0.85772415  1
  O  O369  1  0.86906218  0.61876963  0.36830138  1
  O  O370  1  0.86511601  0.61594826  0.86603694  1
  O  O371  1  0.12395705  0.39282964  0.12830370  1
  O  O372  1  0.13030783  0.38219176  0.63099134  1
  O  O373  1  0.13112754  0.88417442  0.13035828  1
  O  O374  1  0.13133750  0.87828301  0.63501011  1
  O  O375  1  0.62680974  0.38215507  0.13079545  1
  O  O376  1  0.63127147  0.38672358  0.62202918  1
  O  O377  1  0.62719232  0.88566351  0.13357887  1
  O  O378  1  0.63194890  0.87954963  0.63223574  1
  O  O379  1  0.14230183  0.25218570  0.26543108  1
  O  O380  1  0.12907440  0.25697454  0.75659174  1
  O  O381  1  0.11910252  0.75681605  0.25603406  1
  O  O382  1  0.11871957  0.75636001  0.75849317  1
  O  O383  1  0.62388651  0.26070353  0.25776835  1
  O  O384  1  0.62750012  0.24959789  0.76565628  1
  O  O385  1  0.63197169  0.76668491  0.24452826  1
  O  O386  1  0.61219657  0.75737717  0.74180026  1
  O  O387  1  0.37525924  0.24129001  0.24497849  1
  O  O388  1  0.37904405  0.23482883  0.74623072  1
  O  O389  1  0.36712355  0.73579617  0.24815517  1
  O  O390  1  0.38294314  0.74373624  0.74190427  1
  O  O391  1  0.87022287  0.23880097  0.25532319  1
  O  O392  1  0.87623652  0.23882987  0.73657850  1
  O  O393  1  0.87854848  0.74446305  0.24085308  1
  O  O394  1  0.88456778  0.73962899  0.75771058  1
  O  O395  1  0.36851292  0.49968788  0.48386532  1
  O  O396  1  0.37940326  0.49729450  0.99683512  1
  O  O397  1  0.38202526  0.99779989  0.49157540  1
  O  O398  1  0.38515750  1.00279116  1.00727638  1
  O  O399  1  0.87557568  0.50660867  0.49031957  1
  O  O400  1  0.86819617  0.50338014  0.98295596  1
  O  O401  1  0.87952244  0.99216837  0.49356074  1
  O  O402  1  0.88460207  0.99145471  1.01036699  1
  O  O403  1  0.11920281  0.00605120  0.00545465  1
  O  O404  1  0.11624870  -0.00004339  0.50737498  1
  O  O405  1  0.13363506  0.50106753  0.01288768  1
  O  O406  1  0.12740487  0.49728997  0.51603378  1
  O  O407  1  0.62136306  0.00255654  0.01407740  1
  O  O408  1  0.61702289  -0.00798447  0.51139827  1
  O  O409  1  0.62227789  0.50823684  0.00738013  1
  O  O410  1  0.63203469  0.51232247  0.51225347  1
  O  O411  1  0.37607133  0.37029394  0.11987128  1
  O  O412  1  0.36596523  0.37599122  0.62500070  1
  O  O413  1  0.35830346  0.87601783  0.13598923  1
  O  O414  1  0.36664711  0.86556808  0.62853456  1
  O  O415  1  0.86269307  0.38321790  0.13344346  1
  O  O416  1  0.86586161  0.36503647  0.63339778  1
  O  O417  1  0.87361916  0.86300201  0.11957760  1
  O  O418  1  0.86072047  0.88023927  0.61922205  1
  O  O419  1  0.11770463  0.14464693  0.37513445  1
  O  O420  1  0.11900257  0.13617797  0.88305953  1
  O  O421  1  0.13098500  0.63524266  0.37100286  1
  O  O422  1  0.13493238  0.63267787  0.86632289  1
  O  O423  1  0.63463382  0.13520811  0.36267425  1
  O  O424  1  0.62908050  0.13684684  0.87691527  1
  O  O425  1  0.63174673  0.61880688  0.38182279  1
  O  O426  1  0.63747008  0.61685673  0.88450678  1
