# generated using pymatgen
data_V85Zn86O256
_symmetry_space_group_name_H-M   'P 1'
_cell_length_a   16.94957422
_cell_length_b   16.94600123
_cell_length_c   16.94967780
_cell_angle_alpha   90.04507546
_cell_angle_beta   89.91228225
_cell_angle_gamma   89.99902159
_symmetry_Int_Tables_number   1
_chemical_formula_structural   V85Zn86O256
_chemical_formula_sum   'V85 Zn86 O256'
_cell_volume   4868.40646154
_cell_formula_units_Z   1
loop_
 _symmetry_equiv_pos_site_id
 _symmetry_equiv_pos_as_xyz
  1  'x, y, z'
loop_
 _atom_site_type_symbol
 _atom_site_label
 _atom_site_symmetry_multiplicity
 _atom_site_fract_x
 _atom_site_fract_y
 _atom_site_fract_z
 _atom_site_occupancy
  V  V0  1  0.62430628  0.37507844  0.74799857  1
  V  V1  1  0.62440738  0.88546191  0.75122778  1
  V  V2  1  0.11747499  0.62371293  0.50201174  1
  V  V3  1  0.62076839  0.00148526  0.60601487  1
  V  V4  1  0.75162527  0.49446253  0.25014331  1
  V  V5  1  0.50356799  0.63128164  0.12756884  1
  V  V6  1  0.38195626  0.63048986  0.25401463  1
  V  V7  1  0.50095484  0.37534187  0.37457076  1
  V  V8  1  0.75296730  0.00092153  0.25279350  1
  V  V9  1  0.24699728  0.23514119  0.49580964  1
  V  V10  1  0.49706206  0.37604930  0.87234399  1
  V  V11  1  0.24598240  0.75406733  0.50407757  1
  V  V12  1  0.88047931  0.49898839  0.37889291  1
  V  V13  1  0.12978673  0.87926646  0.75431434  1
  V  V14  1  0.62052747  0.12563793  0.00543703  1
  V  V15  1  0.00420201  0.61946882  0.12511585  1
  V  V16  1  0.25318162  0.25020500  -0.00125385  1
  V  V17  1  0.12860065  -0.01815410  0.12637592  1
  V  V18  1  0.24479677  -0.00719455  0.25827489  1
  V  V19  1  0.87751638  0.37642332  0.49978240  1
  V  V20  1  0.88412381  0.88035246  -0.00418666  1
  V  V21  1  0.87385410  0.12453090  0.25191997  1
  V  V22  1  0.87788475  0.87948069  0.49895267  1
  V  V23  1  0.00379264  0.37427568  0.37928602  1
  V  V24  1  -0.00067503  0.49110383  0.00106366  1
  V  V25  1  -0.00158645  0.62428325  0.62704890  1
  V  V26  1  0.74761728  0.62592190  0.87674067  1
  V  V27  1  0.12779217  0.61965272  0.00018492  1
  V  V28  1  0.74788964  0.11489509  0.87095143  1
  V  V29  1  0.74526382  0.74721367  -0.00056116  1
  V  V30  1  0.00680228  0.12301663  0.61834627  1
  V  V31  1  0.12127196  0.75415116  0.87874081  1
  V  V32  1  0.75072577  0.75174590  0.49087973  1
  V  V33  1  0.75507365  0.25508248  -0.00289104  1
  V  V34  1  0.38186496  0.87572814  0.49976253  1
  V  V35  1  0.87983562  0.62583247  0.24930105  1
  V  V36  1  0.12188910  0.12045276  0.00474529  1
  V  V37  1  0.74929035  0.12278127  0.37792658  1
  V  V38  1  0.00106165  0.24928658  0.74903724  1
  V  V39  1  0.87467017  0.62613185  0.75297521  1
  V  V40  1  0.87708797  0.25606672  0.11926599  1
  V  V41  1  0.49380792  0.74651742  0.75329119  1
  V  V42  1  0.11871979  0.50002570  0.62124790  1
  V  V43  1  0.75000312  0.50036484  0.74939641  1
  V  V44  1  0.37349516  0.11058213  0.75065720  1
  V  V45  1  0.87241921  0.75100019  0.62910363  1
  V  V46  1  -0.00163617  0.75758123  0.75759989  1
  V  V47  1  0.49945355  0.62597192  0.62670309  1
  V  V48  1  0.37040047  0.75371172  0.12887667  1
  V  V49  1  0.37907835  0.00621978  0.37935954  1
  V  V50  1  0.37177658  0.74725569  0.63023117  1
  V  V51  1  0.37470336  0.49462182  0.38053145  1
  V  V52  1  0.62451145  0.25004468  0.87251262  1
  V  V53  1  0.13108615  -0.00135360  0.62603412  1
  V  V54  1  0.25402166  0.50747979  0.75278121  1
  V  V55  1  0.74910495  0.37436947  0.62497575  1
  V  V56  1  0.50454211  0.50816521  -0.00102970  1
  V  V57  1  0.50173824  0.12057793  0.61112598  1
  V  V58  1  0.62294684  0.74796719  0.87890224  1
  V  V59  1  0.11595260  0.75439137  0.36419525  1
  V  V60  1  0.87565153  0.49149834  0.87909926  1
  V  V61  1  0.00051939  -0.00239355  0.49574454  1
  V  V62  1  0.74563543  0.24563317  0.49987131  1
  V  V63  1  0.74789721  0.87996689  0.12275303  1
  V  V64  1  0.62765463  0.50370823  0.12178047  1
  V  V65  1  0.12432029  0.37366302  0.75062610  1
  V  V66  1  0.24989860  0.62497685  0.37750987  1
  V  V67  1  0.62195750  0.86753855  0.25447601  1
  V  V68  1  0.87069556  0.11648612  0.74911799  1
  V  V69  1  0.62356124  0.24880801  0.37528001  1
  V  V70  1  0.49459067  0.88162803  0.87819199  1
  V  V71  1  0.25359348  0.11101044  0.87017035  1
  V  V72  1  0.49808782  0.49790056  0.50172491  1
  V  V73  1  0.37361953  0.37880957  0.00035200  1
  V  V74  1  0.88943405  -0.00141210  0.87909923  1
  V  V75  1  0.24843438  0.49719011  0.24305870  1
  V  V76  1  0.49842811  0.00371534  0.00639892  1
  V  V77  1  0.37495502  0.25284403  0.62177538  1
  V  V78  1  0.74854016  0.88234498  0.63144119  1
  V  V79  1  0.87821789  0.74930555  0.12436515  1
  V  V80  1  0.00546185  0.24628729  0.24780306  1
  V  V81  1  0.12906754  0.23595113  0.37706116  1
  V  V82  1  0.36654806  0.88033099  0.00498191  1
  V  V83  1  0.25264816  0.37623836  0.61576528  1
  V  V84  1  0.87481693  0.24825113  0.62367894  1
  Zn  Zn85  1  0.49729587  0.24897925  0.74692845  1
  Zn  Zn86  1  0.38493377  0.24286341  0.12440557  1
  Zn  Zn87  1  0.75078740  0.62477678  0.37561188  1
  Zn  Zn88  1  0.61581537  0.01348709  0.13666405  1
  Zn  Zn89  1  0.49454452  0.86841001  0.37252571  1
  Zn  Zn90  1  0.38200564  0.51532525  0.86823088  1
  Zn  Zn91  1  -0.00631053  0.11647825  0.11555648  1
  Zn  Zn92  1  0.24650587  0.75293754  0.00443084  1
  Zn  Zn93  1  0.00734364  0.88302719  0.35579347  1
  Zn  Zn94  1  0.62361566  0.37153986  0.24364194  1
  Zn  Zn95  1  0.50468296  0.22903427  0.23541850  1
  Zn  Zn96  1  -0.00412545  0.36795419  0.88262995  1
  Zn  Zn97  1  0.62768040  0.62641435  0.49665960  1
  Zn  Zn98  1  0.25704512  0.63245869  0.87355363  1
  Zn  Zn99  1  0.62686600  0.50290177  0.62288929  1
  Zn  Zn100  1  0.24167459  0.37876288  0.11809875  1
  Zn  Zn101  1  0.75634896  0.37984028  0.11607341  1
  Zn  Zn102  1  0.60874819  0.74023656  0.37007401  1
  Zn  Zn103  1  0.37954788  0.11978671  0.23591416  1
  Zn  Zn104  1  0.12685417  0.37576458  0.24624851  1
  Zn  Zn105  1  0.12716108  0.24692947  0.87424426  1
  Zn  Zn106  1  0.25486505  0.88421231  0.63440762  1
  Zn  Zn107  1  0.19884579  0.18112425  0.18911247  1
  Zn  Zn108  1  0.19073441  0.18575316  0.68577305  1
  Zn  Zn109  1  0.19099292  0.68351585  0.18764915  1
  Zn  Zn110  1  0.18353250  0.69021340  0.68953596  1
  Zn  Zn111  1  0.69005104  0.19282870  0.18739045  1
  Zn  Zn112  1  0.68375913  0.18369841  0.68622889  1
  Zn  Zn113  1  0.69372631  0.68489369  0.18875558  1
  Zn  Zn114  1  0.68489390  0.69239122  0.68859968  1
  Zn  Zn115  1  0.31833998  0.30826779  0.31159223  1
  Zn  Zn116  1  0.31211823  0.31027142  0.81030040  1
  Zn  Zn117  1  0.30569925  0.81537964  0.31401242  1
  Zn  Zn118  1  0.31000937  0.81446986  0.81929794  1
  Zn  Zn119  1  0.81512689  0.31143360  0.31135501  1
  Zn  Zn120  1  0.81097070  0.30835268  0.81067457  1
  Zn  Zn121  1  0.84280452  0.82984512  0.29779766  1
  Zn  Zn122  1  0.81091116  0.81783577  0.81487884  1
  Zn  Zn123  1  0.18603366  0.43527942  0.43390858  1
  Zn  Zn124  1  0.18379438  0.43735127  0.93487673  1
  Zn  Zn125  1  0.18614710  0.93847994  0.43984590  1
  Zn  Zn126  1  0.18247992  0.93789384  0.93738509  1
  Zn  Zn127  1  0.68674324  0.43723017  0.43851297  1
  Zn  Zn128  1  0.68512326  0.43850068  0.93529516  1
  Zn  Zn129  1  0.69468132  0.93285740  0.43482652  1
  Zn  Zn130  1  0.68501134  0.93800311  0.93953788  1
  Zn  Zn131  1  0.30719680  0.06273889  0.06830749  1
  Zn  Zn132  1  0.31531353  0.06289680  0.56174629  1
  Zn  Zn133  1  0.31831430  0.56592050  0.06097792  1
  Zn  Zn134  1  0.31037034  0.56467118  0.56452771  1
  Zn  Zn135  1  0.81036620  0.06528210  0.06075133  1
  Zn  Zn136  1  0.81274530  0.06059170  0.56421384  1
  Zn  Zn137  1  0.81498771  0.56308540  0.05997410  1
  Zn  Zn138  1  0.81294672  0.56407750  0.56210983  1
  Zn  Zn139  1  0.43933156  0.42993131  0.18432584  1
  Zn  Zn140  1  0.43527308  0.43725896  0.68551570  1
  Zn  Zn141  1  0.43486768  0.94087609  0.19029571  1
  Zn  Zn142  1  0.44176065  0.93519304  0.68322118  1
  Zn  Zn143  1  0.94212450  0.43580750  0.18926594  1
  Zn  Zn144  1  0.93517592  0.43715314  0.68941737  1
  Zn  Zn145  1  0.94354627  0.93942120  0.18220895  1
  Zn  Zn146  1  0.94059474  0.93878846  0.68649805  1
  Zn  Zn147  1  0.06404718  0.06022925  0.30883183  1
  Zn  Zn148  1  0.06484877  0.06421762  0.81112869  1
  Zn  Zn149  1  0.06331196  0.56466730  0.31346445  1
  Zn  Zn150  1  0.06290322  0.56412263  0.81557375  1
  Zn  Zn151  1  0.56095638  0.05885747  0.32232341  1
  Zn  Zn152  1  0.55681542  0.06505713  0.81321581  1
  Zn  Zn153  1  0.56597983  0.56124057  0.31258980  1
  Zn  Zn154  1  0.56413883  0.56405897  0.81057613  1
  Zn  Zn155  1  0.43405098  0.19150828  0.43497146  1
  Zn  Zn156  1  0.43516334  0.18776505  0.93653618  1
  Zn  Zn157  1  0.43808756  0.68877565  0.44059010  1
  Zn  Zn158  1  0.43349040  0.69103733  0.94165399  1
  Zn  Zn159  1  0.93728362  0.18690745  0.43623421  1
  Zn  Zn160  1  0.93712521  0.18414209  0.93392459  1
  Zn  Zn161  1  0.93544451  0.69021066  0.43935419  1
  Zn  Zn162  1  0.93590965  0.68467509  0.94065949  1
  Zn  Zn163  1  0.07005287  0.30913495  0.06741209  1
  Zn  Zn164  1  0.06568778  0.31034825  0.56118106  1
  Zn  Zn165  1  0.05968503  0.80721367  0.06387769  1
  Zn  Zn166  1  0.06138138  0.81438282  0.56726450  1
  Zn  Zn167  1  0.56589081  0.31542809  0.05963861  1
  Zn  Zn168  1  0.56068609  0.31226208  0.56105824  1
  Zn  Zn169  1  0.55951202  0.81612195  0.06600990  1
  Zn  Zn170  1  0.56586864  0.81048269  0.56203021  1
  O  O171  1  0.12782368  0.12547317  0.10937223  1
  O  O172  1  0.11388995  0.11608190  0.63406778  1
  O  O173  1  0.11258505  0.63414656  0.11603112  1
  O  O174  1  0.11949148  0.61872526  0.62038820  1
  O  O175  1  0.63034382  0.12934952  0.10995000  1
  O  O176  1  0.61484834  0.11331346  0.63018942  1
  O  O177  1  0.61729670  0.61514823  0.13317744  1
  O  O178  1  0.61160925  0.62664800  0.62465836  1
  O  O179  1  0.38418112  0.38713050  0.37418978  1
  O  O180  1  0.38417841  0.37977536  0.87839185  1
  O  O181  1  0.37073897  0.87905698  0.38640451  1
  O  O182  1  0.38524464  0.86631983  0.89145284  1
  O  O183  1  0.88371886  0.37916795  0.37882655  1
  O  O184  1  0.87689931  0.38681918  0.86621004  1
  O  O185  1  0.86927671  0.87732561  0.39943798  1
  O  O186  1  0.86685025  0.88786340  0.88298591  1
  O  O187  1  0.25315400  -0.00395049  0.36586781  1
  O  O188  1  0.25015267  0.01242738  0.87686977  1
  O  O189  1  0.25894574  0.50486204  0.37377382  1
  O  O190  1  0.24691829  0.49894910  0.85801960  1
  O  O191  1  0.74814547  0.01083261  0.36559568  1
  O  O192  1  0.75242705  0.01215376  0.87701440  1
  O  O193  1  0.76202982  0.49716975  0.36701503  1
  O  O194  1  0.75567110  0.50518346  0.87109606  1
  O  O195  1  0.25752764  0.50529202  0.14129628  1
  O  O196  1  0.24164472  0.49507120  0.63252259  1
  O  O197  1  0.23434167  0.99763763  0.13065039  1
  O  O198  1  0.23611099  1.00276678  0.62179314  1
  O  O199  1  0.74622529  0.50117748  0.12901786  1
  O  O200  1  0.75132921  0.49314338  0.63116720  1
  O  O201  1  0.74593810  0.99359892  0.13128815  1
  O  O202  1  0.73984057  0.98966832  0.62229601  1
  O  O203  1  -0.00062260  0.36067310  0.25973272  1
  O  O204  1  0.00762886  0.36340750  0.74445662  1
  O  O205  1  -0.05019986  0.86508002  0.26289090  1
  O  O206  1  0.00685983  0.86274486  0.74663889  1
  O  O207  1  0.50471174  0.38688876  0.26891937  1
  O  O208  1  0.50383194  0.37637441  0.75778213  1
  O  O209  1  0.52082994  0.87963524  0.24450307  1
  O  O210  1  0.50420976  0.86780812  0.75894270  1
  O  O211  1  0.49699076  0.11789744  0.25347907  1
  O  O212  1  0.48504821  0.12803365  0.74666608  1
  O  O213  1  0.49035765  0.61572763  0.24104147  1
  O  O214  1  0.50288813  0.63763617  0.74312695  1
  O  O215  1  0.99073422  0.13386318  0.25268408  1
  O  O216  1  0.99266475  0.13264120  0.74141626  1
  O  O217  1  0.98956350  0.61642126  0.23974420  1
  O  O218  1  0.99500139  0.63415397  0.74656894  1
  O  O219  1  0.36983671  0.26288376  -0.00460222  1
  O  O220  1  0.36049689  0.24591419  0.51082639  1
  O  O221  1  0.37362591  0.76227498  0.01101274  1
  O  O222  1  0.36408784  0.75500572  0.50987286  1
  O  O223  1  0.86707066  0.23987083  0.00648034  1
  O  O224  1  0.86681664  0.25557456  0.50417206  1
  O  O225  1  0.86457241  0.75733629  0.00388242  1
  O  O226  1  0.87106657  0.75786410  0.51139785  1
  O  O227  1  0.13824548  0.25280971  0.49376832  1
  O  O228  1  0.13430351  0.23890082  0.99520789  1
  O  O229  1  0.13075103  0.74155241  0.50169227  1
  O  O230  1  0.12278706  0.74148183  0.99346238  1
  O  O231  1  0.63822833  0.25440154  0.49251771  1
  O  O232  1  0.63159606  0.24407820  0.99220246  1
  O  O233  1  0.63746367  0.75178442  0.49495015  1
  O  O234  1  0.63333929  0.76038913  0.99052136  1
  O  O235  1  0.49309267  0.28578569  0.13699626  1
  O  O236  1  0.49149866  0.24307854  0.62404372  1
  O  O237  1  0.49263720  0.73850033  0.12081484  1
  O  O238  1  0.49271993  0.74576162  0.63346941  1
  O  O239  1  0.99488581  0.24318166  0.13276669  1
  O  O240  1  0.99643604  0.24204174  0.62942477  1
  O  O241  1  0.98419798  0.73785470  0.11805222  1
  O  O242  1  0.99346513  0.74430838  0.63709820  1
  O  O243  1  0.00776623  0.25420585  0.36850371  1
  O  O244  1  0.00120006  0.24927044  0.86091104  1
  O  O245  1  0.01337546  0.74940195  0.37889115  1
  O  O246  1  0.00708889  0.74298497  0.86722318  1
  O  O247  1  0.50985557  0.26000674  0.38284692  1
  O  O248  1  0.50429143  0.26198309  0.87344734  1
  O  O249  1  0.49697879  0.75516896  0.37406887  1
  O  O250  1  0.50589164  0.75831942  0.87200183  1
  O  O251  1  0.24694699  0.13689828  0.50319504  1
  O  O252  1  0.24529830  0.12990822  0.98613974  1
  O  O253  1  0.24035117  0.63425680  0.49878509  1
  O  O254  1  0.23726872  0.62412344  1.00155739  1
  O  O255  1  0.76063005  0.13509904  0.49117889  1
  O  O256  1  0.74096000  0.13320906  0.98960245  1
  O  O257  1  0.75114918  0.63707234  0.49984309  1
  O  O258  1  0.75391911  0.63937984  0.99467812  1
  O  O259  1  0.25692363  0.36951158  -0.00748896  1
  O  O260  1  0.24557157  0.37369376  0.51322123  1
  O  O261  1  0.26431491  0.87679108  -0.00354902  1
  O  O262  1  0.25402173  0.86279263  0.50578311  1
  O  O263  1  0.74649692  0.35932875  -0.00532139  1
  O  O264  1  0.75700522  0.36586664  0.50468112  1
  O  O265  1  0.75355018  0.86808438  0.00681217  1
  O  O266  1  0.75684428  0.87027169  0.51254092  1
  O  O267  1  0.14547173  0.50340360  0.26005343  1
  O  O268  1  0.13079534  0.49240029  0.74122971  1
  O  O269  1  0.13411919  0.99904729  0.24126271  1
  O  O270  1  0.11447159  0.98814492  0.74177457  1
  O  O271  1  0.63711430  0.49806636  0.24225822  1
  O  O272  1  0.63250713  0.49389498  0.74760838  1
  O  O273  1  0.63792270  0.99098685  0.25048695  1
  O  O274  1  0.61842280  0.98730677  0.74962486  1
  O  O275  1  0.36742399  -0.00406421  0.26548131  1
  O  O276  1  0.37457770  0.01158878  0.74266705  1
  O  O277  1  0.36850900  0.50876890  0.26087102  1
  O  O278  1  0.35733011  0.49589239  0.74777583  1
  O  O279  1  0.86349309  0.01538509  0.23879560  1
  O  O280  1  0.88069019  0.01096048  0.75721403  1
  O  O281  1  0.87062353  0.50475018  0.25660709  1
  O  O282  1  0.87001832  0.50645300  0.75800609  1
  O  O283  1  0.11693623  0.36710877  0.36992047  1
  O  O284  1  0.12025864  0.37179636  0.85969639  1
  O  O285  1  0.12314000  0.85871454  0.37884883  1
  O  O286  1  0.12415731  0.86521745  0.87057397  1
  O  O287  1  0.62039650  0.36543224  0.37393682  1
  O  O288  1  0.61599175  0.37075138  0.86890926  1
  O  O289  1  0.62771690  0.87457295  0.36088109  1
  O  O290  1  0.61797130  0.86789252  0.86965980  1
  O  O291  1  0.38098258  0.12780491  0.11743080  1
  O  O292  1  0.37975341  0.12966900  0.63385596  1
  O  O293  1  0.38445797  0.63230748  0.13368928  1
  O  O294  1  0.38435799  0.63789498  0.62146023  1
  O  O295  1  0.87491139  0.13475472  0.13247910  1
  O  O296  1  0.88198294  0.12816003  0.63317515  1
  O  O297  1  0.88196507  0.63023000  0.12874435  1
  O  O298  1  0.87883143  0.63006048  0.63340338  1
  O  O299  1  0.25368992  0.24987802  0.10659096  1
  O  O300  1  0.25290466  0.25554327  0.61460619  1
  O  O301  1  0.26502657  0.74338276  0.12280597  1
  O  O302  1  0.25680684  0.74795518  0.62090579  1
  O  O303  1  0.75889702  0.25272084  0.11476564  1
  O  O304  1  0.75401202  0.25197737  0.61770219  1
  O  O305  1  0.75672991  0.75585435  0.11595390  1
  O  O306  1  0.75315365  0.76060896  0.61988199  1
  O  O307  1  0.24546033  0.25670118  0.38967232  1
  O  O308  1  0.24945614  0.24258412  0.88286874  1
  O  O309  1  0.23951491  0.74479086  0.38600154  1
  O  O310  1  0.23547828  0.74983700  0.88050935  1
  O  O311  1  0.74420771  0.24570565  0.38089509  1
  O  O312  1  0.74649798  0.23992194  0.87957925  1
  O  O313  1  0.76295035  0.75298550  0.38896665  1
  O  O314  1  0.74196070  0.74803279  0.88091207  1
  O  O315  1  0.01843395  0.12976803  -0.00417983  1
  O  O316  1  -0.00813315  0.11715392  0.51160566  1
  O  O317  1  0.00616159  0.61583330  0.00627916  1
  O  O318  1  0.00977471  0.63062316  0.50943745  1
  O  O319  1  0.50985533  0.11624052  -0.01290008  1
  O  O320  1  0.49363045  0.12761704  0.51263550  1
  O  O321  1  0.49540133  0.61578088  0.01120625  1
  O  O322  1  0.50206061  0.61790209  0.51075045  1
  O  O323  1  0.50403033  0.38771008  0.49127557  1
  O  O324  1  0.49348811  0.38615823  0.98922567  1
  O  O325  1  0.48423771  0.86920492  0.50494814  1
  O  O326  1  0.49524667  0.88266512  0.99444681  1
  O  O327  1  0.99449441  0.36589604  0.48787347  1
  O  O328  1  1.00970625  0.38604499  0.99947831  1
  O  O329  1  0.99173122  0.88164678  0.50545197  1
  O  O330  1  0.98248136  0.86970434  1.00457296  1
  O  O331  1  0.49434810  0.49724437  0.38415169  1
  O  O332  1  0.50337965  0.49434196  0.88074950  1
  O  O333  1  0.48281589  0.98818436  0.37567792  1
  O  O334  1  0.50286193  0.98798877  0.88499348  1
  O  O335  1  0.99149927  0.48727100  0.36612679  1
  O  O336  1  0.99151024  0.49820657  0.88133671  1
  O  O337  1  1.01059564  0.99800604  0.39028592  1
  O  O338  1  0.98854044  1.00692574  0.87609227  1
  O  O339  1  0.02035160  0.00592261  0.13363218  1
  O  O340  1  0.00810661  0.00706035  0.61946916  1
  O  O341  1  -0.00790221  0.50953313  0.11534048  1
  O  O342  1  0.01120767  0.50539095  0.63259553  1
  O  O343  1  0.50314834  -0.00601869  0.11100696  1
  O  O344  1  0.50859166  0.00779540  0.62631702  1
  O  O345  1  0.50738340  0.50638122  0.11784027  1
  O  O346  1  0.49717267  0.50863442  0.61939005  1
  O  O347  1  0.25631604  0.39086454  0.25198046  1
  O  O348  1  0.24001395  0.38008853  0.73952124  1
  O  O349  1  0.25553404  0.89120264  0.24572724  1
  O  O350  1  0.23563012  0.87088648  0.75176869  1
  O  O351  1  0.75322641  0.38555445  0.24550210  1
  O  O352  1  0.74495291  0.37909292  0.74458351  1
  O  O353  1  0.75062815  0.88445698  0.24194569  1
  O  O354  1  0.73741125  0.86751695  0.74040755  1
  O  O355  1  0.25930434  0.10289970  0.24407249  1
  O  O356  1  0.25895035  0.12778682  0.75997571  1
  O  O357  1  0.26074868  0.61546079  0.25745541  1
  O  O358  1  0.24107914  0.60991699  0.74844108  1
  O  O359  1  0.75430084  0.12086922  0.25617620  1
  O  O360  1  0.76179832  0.13263912  0.75746945  1
  O  O361  1  0.76231001  0.61089030  0.24983413  1
  O  O362  1  0.75423737  0.62194606  0.75583851  1
  O  O363  1  0.37537086  0.10685731  0.38422404  1
  O  O364  1  0.36581377  0.12722232  0.86205569  1
  O  O365  1  0.37109037  0.61795384  0.37081380  1
  O  O366  1  0.37020377  0.62743356  0.87594092  1
  O  O367  1  0.86293308  0.13510558  0.36217634  1
  O  O368  1  0.86740480  0.11729207  0.86843763  1
  O  O369  1  0.87867663  0.61628044  0.36696189  1
  O  O370  1  0.86792240  0.61641189  0.87109651  1
  O  O371  1  0.13010011  0.37585241  0.13335747  1
  O  O372  1  0.12990621  0.38204123  0.63037423  1
  O  O373  1  0.12294686  0.88259478  0.11870263  1
  O  O374  1  0.12806167  0.88099919  0.63638851  1
  O  O375  1  0.63165985  0.39156930  0.12468688  1
  O  O376  1  0.63106463  0.37607640  0.63026534  1
  O  O377  1  0.63737722  0.87394727  0.13425265  1
  O  O378  1  0.62775195  0.88278217  0.63212832  1
  O  O379  1  0.11962400  0.24557451  0.25642812  1
  O  O380  1  0.11758414  0.25616131  0.74609928  1
  O  O381  1  0.12925847  0.74033096  0.26597395  1
  O  O382  1  0.11668216  0.75656809  0.75834334  1
  O  O383  1  0.62487586  0.25325728  0.26172756  1
  O  O384  1  0.62185094  0.25659461  0.75484275  1
  O  O385  1  0.63910729  0.76442185  0.25165195  1
  O  O386  1  0.61345863  0.76112667  0.75812036  1
  O  O387  1  0.38043134  0.24139858  0.24792226  1
  O  O388  1  0.37287719  0.24221970  0.73537057  1
  O  O389  1  0.36738823  0.73824555  0.24618822  1
  O  O390  1  0.38365696  0.76036164  0.74295688  1
  O  O391  1  0.88226406  0.24287985  0.24148033  1
  O  O392  1  0.88332079  0.24147968  0.74406170  1
  O  O393  1  0.86004139  0.73295515  0.23531166  1
  O  O394  1  0.88016279  0.74696849  0.75047235  1
  O  O395  1  0.38404590  0.50901247  0.49153659  1
  O  O396  1  0.38513107  0.49503043  0.99467156  1
  O  O397  1  0.36161607  0.98733246  0.48948126  1
  O  O398  1  0.38110748  0.98569132  1.00680097  1
  O  O399  1  0.87060840  0.49390341  0.48743306  1
  O  O400  1  0.88402742  0.50375977  0.98914682  1
  O  O401  1  0.88824021  0.99117683  0.51354077  1
  O  O402  1  0.86911795  0.99360295  0.99231342  1
  O  O403  1  0.13191323  0.01125809  0.01131567  1
  O  O404  1  0.11344460  -0.01045204  0.51472345  1
  O  O405  1  0.11441260  0.51094742  -0.00881010  1
  O  O406  1  0.13177603  0.51104656  0.51002123  1
  O  O407  1  0.61770340  0.00962007  0.00238690  1
  O  O408  1  0.62571500  -0.00685680  0.50692727  1
  O  O409  1  0.61585091  0.49844779  0.00698840  1
  O  O410  1  0.61459511  0.50365832  0.50288704  1
  O  O411  1  0.36525801  0.38286424  0.10743891  1
  O  O412  1  0.36505981  0.36445091  0.62972260  1
  O  O413  1  0.38373138  0.86599942  0.11490549  1
  O  O414  1  0.37162829  0.86582120  0.61996360  1
  O  O415  1  0.87744547  0.36034158  0.12756082  1
  O  O416  1  0.87008616  0.36852286  0.62088067  1
  O  O417  1  0.86388786  0.86905855  0.11604723  1
  O  O418  1  0.86558415  0.87163104  0.62542298  1
  O  O419  1  0.12170179  0.13722200  0.37415336  1
  O  O420  1  0.13783127  0.12375434  0.88022056  1
  O  O421  1  0.12717486  0.63242686  0.38580838  1
  O  O422  1  0.12729733  0.63474899  0.88323356  1
  O  O423  1  0.63824708  0.13548897  0.37401744  1
  O  O424  1  0.63125479  0.12992531  0.87826466  1
  O  O425  1  0.63376690  0.62711581  0.37563880  1
  O  O426  1  0.62966439  0.64075429  0.86930608  1
