# generated using pymatgen
data_V85Zn86O256
_symmetry_space_group_name_H-M   'P 1'
_cell_length_a   16.97251694
_cell_length_b   16.95556533
_cell_length_c   16.98325789
_cell_angle_alpha   90.01858044
_cell_angle_beta   89.89872154
_cell_angle_gamma   90.18297869
_symmetry_Int_Tables_number   1
_chemical_formula_structural   V85Zn86O256
_chemical_formula_sum   'V85 Zn86 O256'
_cell_volume   4887.38571052
_cell_formula_units_Z   1
loop_
 _symmetry_equiv_pos_site_id
 _symmetry_equiv_pos_as_xyz
  1  'x, y, z'
loop_
 _atom_site_type_symbol
 _atom_site_label
 _atom_site_symmetry_multiplicity
 _atom_site_fract_x
 _atom_site_fract_y
 _atom_site_fract_z
 _atom_site_occupancy
  V  V0  1  0.38326593  0.49861212  0.37311556  1
  V  V1  1  -0.00612927  0.12144399  0.62665228  1
  V  V2  1  0.00432529  0.00800338  0.00265354  1
  V  V3  1  0.25937969  0.62498604  0.36930986  1
  V  V4  1  0.49906056  0.24816613  0.74777510  1
  V  V5  1  0.37325693  0.49729623  0.88033875  1
  V  V6  1  0.87441776  0.50267989  0.86834419  1
  V  V7  1  0.49605669  0.25060364  0.25063002  1
  V  V8  1  0.87145788  0.86006576  0.50263584  1
  V  V9  1  0.37952335  0.74785682  0.13726214  1
  V  V10  1  0.00007620  0.87133040  0.37345085  1
  V  V11  1  0.25750659  0.50149769  0.24673435  1
  V  V12  1  -0.00099274  0.37532777  0.87275858  1
  V  V13  1  0.25214526  0.74851474  0.49930657  1
  V  V14  1  0.62603783  0.00095333  0.62428520  1
  V  V15  1  0.74183136  0.12399230  0.87722753  1
  V  V16  1  0.63448050  0.63128555  0.50135780  1
  V  V17  1  0.87410898  -0.00335474  0.37395840  1
  V  V18  1  0.49472703  0.37530893  0.88419480  1
  V  V19  1  0.87382448  0.61282972  0.25111590  1
  V  V20  1  0.87335191  0.37557429  -0.00203350  1
  V  V21  1  0.62199163  0.00317123  0.11366158  1
  V  V22  1  0.12191193  0.87260804  0.74952263  1
  V  V23  1  0.74907814  0.87590891  0.12468694  1
  V  V24  1  0.74996248  -0.00086167  0.24893820  1
  V  V25  1  0.25809698  0.37574375  0.11641847  1
  V  V26  1  0.12413834  0.75160316  0.87385279  1
  V  V27  1  0.12996817  0.88000701  0.24891019  1
  V  V28  1  0.37073154  0.00568686  0.87566397  1
  V  V29  1  0.62324674  0.37535212  0.75428010  1
  V  V30  1  0.63304908  0.75239798  0.37714718  1
  V  V31  1  0.86980877  0.24726899  0.62711928  1
  V  V32  1  0.37663365  0.37024503  0.49274045  1
  V  V33  1  0.62080627  0.25126842  0.37228483  1
  V  V34  1  0.87752509  0.24739177  0.12285923  1
  V  V35  1  0.00057414  0.50105839  -0.00135245  1
  V  V36  1  0.37524221  0.87597793  0.50113566  1
  V  V37  1  0.12493786  0.50001469  0.62399864  1
  V  V38  1  0.12360854  0.00000593  0.62343940  1
  V  V39  1  0.62640312  0.50823939  0.12260308  1
  V  V40  1  0.74132769  0.24490303  0.00023169  1
  V  V41  1  0.75427159  0.37307189  0.63071588  1
  V  V42  1  0.74128572  0.74756158  0.00051900  1
  V  V43  1  0.75905329  0.00356017  0.74939158  1
  V  V44  1  0.75421518  0.86208715  0.62300123  1
  V  V45  1  0.75596788  0.61795268  0.36953271  1
  V  V46  1  0.50315951  0.00326651  0.49895996  1
  V  V47  1  0.12915316  0.23747670  0.87958355  1
  V  V48  1  0.13530800  0.13624004  0.49084612  1
  V  V49  1  0.50140179  0.87013923  0.37272045  1
  V  V50  1  0.12609886  0.49581328  0.12504829  1
  V  V51  1  0.24979714  0.50056401  0.74985752  1
  V  V52  1  0.36600248  0.00619630  0.36943633  1
  V  V53  1  0.50196170  0.51366801  -0.00062750  1
  V  V54  1  0.37747855  0.25459892  0.11733965  1
  V  V55  1  0.24820189  0.00633659  0.75442874  1
  V  V56  1  -0.00152065  0.87097216  0.87222093  1
  V  V57  1  0.74740351  0.11857510  0.37927140  1
  V  V58  1  0.74260292  0.62473116  0.87944034  1
  V  V59  1  0.00001911  0.62769108  0.12529948  1
  V  V60  1  0.87507507  0.87453055  0.00216348  1
  V  V61  1  -0.00062728  -0.00158751  0.49982323  1
  V  V62  1  0.74837590  0.38122327  0.12646932  1
  V  V63  1  0.50016695  0.88046167  0.87759252  1
  V  V64  1  0.50444729  0.12164757  0.11556833  1
  V  V65  1  0.62236446  0.37932185  0.25102859  1
  V  V66  1  0.00273064  0.25573029  0.26581070  1
  V  V67  1  0.12493029  0.62386148  0.49582445  1
  V  V68  1  0.49836028  0.62957509  0.14240204  1
  V  V69  1  0.77048789  0.28527013  0.46896751  1
  V  V70  1  0.50050879  0.62394889  0.62339694  1
  V  V71  1  0.62428723  0.87215535  0.75144220  1
  V  V72  1  0.62587447  0.49867248  0.62299711  1
  V  V73  1  0.36841371  0.25071436  0.62346081  1
  V  V74  1  0.87522833  0.00673888  0.87227902  1
  V  V75  1  -0.01241969  0.48979764  0.48721069  1
  V  V76  1  0.37529863  0.74906766  0.62595034  1
  V  V77  1  0.25234555  0.75365777  0.00288585  1
  V  V78  1  0.25065783  0.62589742  0.87511235  1
  V  V79  1  0.13529759  0.00814841  0.12565228  1
  V  V80  1  0.12391107  0.37510896  0.74868107  1
  V  V81  1  0.62119880  0.87156552  0.24957869  1
  V  V82  1  -0.00549935  0.24599296  0.74913045  1
  V  V83  1  0.37988274  0.88127046  0.00127410  1
  V  V84  1  -0.00744405  0.63377028  0.63027628  1
  Zn  Zn85  1  0.50767188  0.49347013  0.49064754  1
  Zn  Zn86  1  0.37596724  0.62450397  0.75023910  1
  Zn  Zn87  1  0.87354892  0.74873019  0.12795655  1
  Zn  Zn88  1  0.61633010  0.74190158  0.88074459  1
  Zn  Zn89  1  0.12475791  0.62711702  0.00090928  1
  Zn  Zn90  1  0.25066869  0.24247001  -0.00482381  1
  Zn  Zn91  1  0.12884653  0.75086906  0.36957055  1
  Zn  Zn92  1  0.61804024  0.24293928  0.88082008  1
  Zn  Zn93  1  0.49675939  0.75039376  0.75288327  1
  Zn  Zn94  1  0.25656127  0.87905643  0.13356640  1
  Zn  Zn95  1  0.37252226  0.12353644  0.25135140  1
  Zn  Zn96  1  -0.00052946  0.74948787  0.24917797  1
  Zn  Zn97  1  0.11443907  0.37894174  0.27441580  1
  Zn  Zn98  1  0.75131964  0.50508385  0.75102306  1
  Zn  Zn99  1  0.00648915  0.12969691  0.12542898  1
  Zn  Zn100  1  0.24694259  0.36889470  0.62158793  1
  Zn  Zn101  1  0.49859465  0.12468354  0.62613040  1
  Zn  Zn102  1  0.36932273  0.12779262  0.75141336  1
  Zn  Zn103  1  0.87410140  0.64627090  0.74974548  1
  Zn  Zn104  1  0.62900165  0.13678715  0.50451126  1
  Zn  Zn105  1  0.87659976  0.12459283  0.25074406  1
  Zn  Zn106  1  0.24934539  0.87440326  0.62483753  1
  Zn  Zn107  1  0.18642404  0.19577338  0.18789105  1
  Zn  Zn108  1  0.18171013  0.18615109  0.68654853  1
  Zn  Zn109  1  0.18697030  0.69036254  0.18816351  1
  Zn  Zn110  1  0.18643622  0.68512121  0.68713184  1
  Zn  Zn111  1  0.68769571  0.18678934  0.18892949  1
  Zn  Zn112  1  0.68696413  0.18537873  0.69300095  1
  Zn  Zn113  1  0.68743746  0.68920700  0.18883569  1
  Zn  Zn114  1  0.68787894  0.68514904  0.69488483  1
  Zn  Zn115  1  0.27306467  0.32175669  0.32887995  1
  Zn  Zn116  1  0.31039124  0.31467693  0.80893496  1
  Zn  Zn117  1  0.31225013  0.81805097  0.31648576  1
  Zn  Zn118  1  0.31006314  0.81695882  0.81172224  1
  Zn  Zn119  1  0.81324354  0.31427874  0.30251088  1
  Zn  Zn120  1  0.81157425  0.30986497  0.81296740  1
  Zn  Zn121  1  0.81488788  0.80688081  0.30977706  1
  Zn  Zn122  1  0.80594184  0.81392865  0.81626881  1
  Zn  Zn123  1  0.19095112  0.43751279  0.44220523  1
  Zn  Zn124  1  0.18547431  0.43288041  0.93785461  1
  Zn  Zn125  1  0.18699023  0.93946335  0.43805761  1
  Zn  Zn126  1  0.18960105  0.94152950  0.94207275  1
  Zn  Zn127  1  0.70107162  0.43571545  0.43132131  1
  Zn  Zn128  1  0.68584919  0.43786451  0.94126787  1
  Zn  Zn129  1  0.68993740  0.93486094  0.44078401  1
  Zn  Zn130  1  0.68807162  0.93596795  0.93625710  1
  Zn  Zn131  1  0.31453208  0.07148201  0.06033991  1
  Zn  Zn132  1  0.31254498  0.06478043  0.56314570  1
  Zn  Zn133  1  0.31648366  0.56788299  0.06149489  1
  Zn  Zn134  1  0.31404145  0.55859919  0.55716432  1
  Zn  Zn135  1  0.81184011  0.06308949  0.06101258  1
  Zn  Zn136  1  0.81476789  0.05502804  0.56201089  1
  Zn  Zn137  1  0.81481774  0.56365814  0.06030224  1
  Zn  Zn138  1  0.81257338  0.56229763  0.56075157  1
  Zn  Zn139  1  0.43971492  0.43786842  0.18650198  1
  Zn  Zn140  1  0.43644418  0.43584291  0.68786597  1
  Zn  Zn141  1  0.43762350  0.93858398  0.18839705  1
  Zn  Zn142  1  0.43679202  0.93746291  0.68962548  1
  Zn  Zn143  1  0.93823329  0.43506505  0.18827227  1
  Zn  Zn144  1  0.94099759  0.43807108  0.68132284  1
  Zn  Zn145  1  0.94159208  0.94016081  0.18732350  1
  Zn  Zn146  1  0.93484021  0.81624878  0.68606157  1
  Zn  Zn147  1  0.06207739  0.06677768  0.30841669  1
  Zn  Zn148  1  0.05854564  0.05962831  0.80999387  1
  Zn  Zn149  1  0.06444294  0.56152756  0.30960478  1
  Zn  Zn150  1  0.06299276  0.56513381  0.81149275  1
  Zn  Zn151  1  0.56137531  0.06328124  0.30804285  1
  Zn  Zn152  1  0.56169035  0.05957636  0.81338638  1
  Zn  Zn153  1  0.56919167  0.56352034  0.31089120  1
  Zn  Zn154  1  0.55984182  0.56069979  0.80942085  1
  Zn  Zn155  1  0.43726390  0.18737432  0.43956673  1
  Zn  Zn156  1  0.43701396  0.18587992  0.93786072  1
  Zn  Zn157  1  0.44266873  0.68586222  0.43902026  1
  Zn  Zn158  1  0.43503249  0.69058452  0.93955973  1
  Zn  Zn159  1  0.93747695  0.18266386  0.44055220  1
  Zn  Zn160  1  0.93531415  0.18890532  0.93661634  1
  Zn  Zn161  1  0.93970345  0.68221642  0.43823894  1
  Zn  Zn162  1  0.93366378  0.68736064  0.93790988  1
  Zn  Zn163  1  0.06309580  0.31538424  0.06074259  1
  Zn  Zn164  1  0.05956703  0.31254599  0.55665077  1
  Zn  Zn165  1  0.06495300  0.81807965  0.06237856  1
  Zn  Zn166  1  0.06454763  0.81140665  0.55681579  1
  Zn  Zn167  1  0.56096798  0.31581048  0.06492140  1
  Zn  Zn168  1  0.56403584  0.31387939  0.55776984  1
  Zn  Zn169  1  0.55909321  0.81322877  0.06484442  1
  Zn  Zn170  1  0.56315084  0.81352709  0.56215968  1
  O  O171  1  0.12699330  0.11181064  0.13247947  1
  O  O172  1  0.11527221  0.11697852  0.61814658  1
  O  O173  1  0.11768100  0.61529256  0.12447199  1
  O  O174  1  0.11739010  0.61982423  0.61603912  1
  O  O175  1  0.61429625  0.11786497  0.13058477  1
  O  O176  1  0.62561636  0.11288155  0.62414428  1
  O  O177  1  0.61830631  0.61582003  0.13175189  1
  O  O178  1  0.62275406  0.61969825  0.62014320  1
  O  O179  1  0.36640346  0.37978999  0.38629290  1
  O  O180  1  0.38362918  0.38543058  0.86875530  1
  O  O181  1  0.38477783  0.88417046  0.38032793  1
  O  O182  1  0.38131663  0.88115211  0.88096104  1
  O  O183  1  0.80630618  0.36114682  0.40451457  1
  O  O184  1  0.87854945  0.38166168  0.87838374  1
  O  O185  1  0.88087595  0.87732979  0.37997664  1
  O  O186  1  0.88069290  0.88487647  0.88505161  1
  O  O187  1  0.26770832  -0.00296847  0.38187761  1
  O  O188  1  0.25859649  -0.00870543  0.86565395  1
  O  O189  1  0.26151260  0.50824152  0.36602968  1
  O  O190  1  0.25576166  0.50333711  0.87250193  1
  O  O191  1  0.75263046  0.00112939  0.36836614  1
  O  O192  1  0.75565817  0.00484021  0.87091716  1
  O  O193  1  0.74340309  0.51974125  0.37004454  1
  O  O194  1  0.75759213  0.50661542  0.87808300  1
  O  O195  1  0.24686499  0.49924223  0.12710977  1
  O  O196  1  0.23711547  0.50597147  0.62992070  1
  O  O197  1  0.23842162  0.99868931  0.12159957  1
  O  O198  1  0.23830337  0.99687974  0.63238688  1
  O  O199  1  0.74096393  0.49073692  0.11357543  1
  O  O200  1  0.74253761  0.49395790  0.62989916  1
  O  O201  1  0.74229981  0.99572495  0.12876031  1
  O  O202  1  0.74381149  0.99382426  0.63329617  1
  O  O203  1  -0.00124348  0.36342626  0.25068257  1
  O  O204  1  0.00396144  0.36610055  0.75188247  1
  O  O205  1  0.00626709  0.87440426  0.25918281  1
  O  O206  1  0.01162837  0.87563311  0.76130024  1
  O  O207  1  0.51346698  0.36517776  0.24069415  1
  O  O208  1  0.50595354  0.36825867  0.75881752  1
  O  O209  1  0.51081872  0.88252530  0.26107609  1
  O  O210  1  0.50838499  0.87415431  0.75668124  1
  O  O211  1  0.49937385  0.13621219  0.24220430  1
  O  O212  1  0.50178999  0.13849765  0.75078526  1
  O  O213  1  0.50106183  0.62592907  0.24147430  1
  O  O214  1  0.50019624  0.62915947  0.73655678  1
  O  O215  1  0.99475021  0.13956272  0.24575867  1
  O  O216  1  1.00420670  0.13350899  0.73736984  1
  O  O217  1  0.99430248  0.62503535  0.24107643  1
  O  O218  1  1.00117899  0.62171555  0.73279205  1
  O  O219  1  0.37743033  0.24862117  0.01407695  1
  O  O220  1  0.38027908  0.26124067  0.50673053  1
  O  O221  1  0.36769283  0.76036129  0.00607034  1
  O  O222  1  0.37292457  0.75422966  0.50774083  1
  O  O223  1  0.86539698  0.25589577  0.00488461  1
  O  O224  1  0.86140646  0.24555146  0.50919750  1
  O  O225  1  0.86663217  0.76224209  0.00040111  1
  O  O226  1  0.87718500  0.76106045  0.49460335  1
  O  O227  1  0.12256211  0.23533208  0.50682735  1
  O  O228  1  0.11904343  0.25349836  0.98156030  1
  O  O229  1  0.13241066  0.73897994  0.49675776  1
  O  O230  1  0.13602996  0.75407136  0.99178727  1
  O  O231  1  0.64236306  0.25654834  0.48661186  1
  O  O232  1  0.63728550  0.25703039  0.99910705  1
  O  O233  1  0.62194288  0.74093967  0.49242580  1
  O  O234  1  0.63764945  0.75956006  0.99881858  1
  O  O235  1  0.49850574  0.24192440  0.12994636  1
  O  O236  1  0.49489940  0.25060646  0.63367824  1
  O  O237  1  0.49214254  0.74037717  0.11967092  1
  O  O238  1  0.49203114  0.74210432  0.62374393  1
  O  O239  1  0.98717343  0.25052907  0.12050648  1
  O  O240  1  0.98921284  0.24393642  0.62971519  1
  O  O241  1  1.00087181  0.73731782  0.12026553  1
  O  O242  1  1.00265183  0.73894672  0.62292207  1
  O  O243  1  -0.00914400  0.24952006  0.36462049  1
  O  O244  1  0.00339838  0.25411131  0.86608809  1
  O  O245  1  0.00368119  0.76204682  0.37644135  1
  O  O246  1  0.01195574  0.76113441  0.88809818  1
  O  O247  1  0.51295687  0.24349225  0.36720122  1
  O  O248  1  0.49902286  0.25842122  0.86865571  1
  O  O249  1  0.50989991  0.76328518  0.38164872  1
  O  O250  1  0.49971531  0.76168310  0.87287762  1
  O  O251  1  0.23398822  0.11992693  0.50472139  1
  O  O252  1  0.24978988  0.13166083  0.99760711  1
  O  O253  1  0.24325343  0.62710295  0.49116983  1
  O  O254  1  0.24939531  0.63785936  0.99394662  1
  O  O255  1  0.74662052  0.11514132  0.48591239  1
  O  O256  1  0.75362446  0.13438502  0.99114447  1
  O  O257  1  0.74184778  0.62301532  0.48932828  1
  O  O258  1  0.75707448  0.63691308  0.99210672  1
  O  O259  1  0.24560094  0.36805934  0.01186550  1
  O  O260  1  0.27128447  0.38440380  0.50978478  1
  O  O261  1  0.25943649  0.86616679  0.00146060  1
  O  O262  1  0.25628188  0.86706602  0.50168352  1
  O  O263  1  0.75388158  0.36648642  0.00703584  1
  O  O264  1  0.73511458  0.37607138  0.52666969  1
  O  O265  1  0.75828825  0.86970198  0.00329593  1
  O  O266  1  0.75971289  0.88053908  0.51138862  1
  O  O267  1  0.13401608  0.49745130  0.24058765  1
  O  O268  1  0.12783208  0.49610645  0.74212599  1
  O  O269  1  0.11629276  0.99277862  0.23546256  1
  O  O270  1  0.12851471  0.99218540  0.74401288  1
  O  O271  1  0.61943132  0.49010510  0.23690709  1
  O  O272  1  0.62512359  0.49120210  0.74079829  1
  O  O273  1  0.63078407  0.98971163  0.24326035  1
  O  O274  1  0.63116312  0.99134419  0.74214099  1
  O  O275  1  0.37723417  0.00024758  0.26484306  1
  O  O276  1  0.36484701  -0.00080444  0.75628210  1
  O  O277  1  0.36637811  0.49497215  0.25732103  1
  O  O278  1  0.36966716  0.50193804  0.75989142  1
  O  O279  1  0.86769338  -0.00087292  0.25528961  1
  O  O280  1  0.86285156  -0.00839860  0.76303240  1
  O  O281  1  0.87764465  0.51249624  0.24695266  1
  O  O282  1  0.87598973  0.49692930  0.76253154  1
  O  O283  1  0.17033927  0.35851911  0.36878977  1
  O  O284  1  0.11574849  0.37055953  0.86646006  1
  O  O285  1  0.11607848  0.87805410  0.36846841  1
  O  O286  1  0.11818292  0.87149770  0.87001916  1
  O  O287  1  0.63555095  0.36491800  0.36196259  1
  O  O288  1  0.61569005  0.37746459  0.86636806  1
  O  O289  1  0.62118459  0.87044003  0.37035741  1
  O  O290  1  0.61651031  0.87905136  0.86645734  1
  O  O291  1  0.38775465  0.13161119  0.13189453  1
  O  O292  1  0.37966230  0.13477363  0.62782908  1
  O  O293  1  0.38559250  0.63585941  0.12145847  1
  O  O294  1  0.38429913  0.63085082  0.62145153  1
  O  O295  1  0.87206427  0.13775488  0.12662994  1
  O  O296  1  0.88281046  0.13265322  0.61945224  1
  O  O297  1  0.88403467  0.62401940  0.13128761  1
  O  O298  1  0.88946615  0.62197740  0.62593623  1
  O  O299  1  0.26092971  0.26022662  0.12703297  1
  O  O300  1  0.26379121  0.24977468  0.63499993  1
  O  O301  1  0.25818502  0.75071432  0.11629686  1
  O  O302  1  0.25951961  0.74753843  0.61835219  1
  O  O303  1  0.75594582  0.25649954  0.11832403  1
  O  O304  1  0.75815577  0.25554950  0.63334323  1
  O  O305  1  0.75064822  0.75701522  0.11696817  1
  O  O306  1  0.74405289  0.76330334  0.63146492  1
  O  O307  1  0.25814933  0.20638051  0.34014708  1
  O  O308  1  0.23230714  0.25657970  0.87036672  1
  O  O309  1  0.25247975  0.74099760  0.38054954  1
  O  O310  1  0.24418367  0.74835444  0.88296976  1
  O  O311  1  0.74125069  0.23337505  0.36959107  1
  O  O312  1  0.74846207  0.24089033  0.88160768  1
  O  O313  1  0.73775675  0.74491857  0.37484285  1
  O  O314  1  0.74448940  0.74283248  0.88427281  1
  O  O315  1  -0.00617876  0.11153249  0.00030272  1
  O  O316  1  0.00526532  0.11826285  0.51022295  1
  O  O317  1  -0.00039807  0.61926172  0.00865056  1
  O  O318  1  0.00899073  0.61840257  0.50793692  1
  O  O319  1  0.50040535  0.12907957  0.01659573  1
  O  O320  1  0.50808942  0.11458373  0.50245262  1
  O  O321  1  0.50206263  0.61630320  0.00088252  1
  O  O322  1  0.51347665  0.62093454  0.50947882  1
  O  O323  1  0.48606183  0.37874799  0.50350798  1
  O  O324  1  0.50408493  0.38392309  0.98819187  1
  O  O325  1  0.49669935  0.88362751  0.49332283  1
  O  O326  1  0.49016756  0.87138674  0.99056505  1
  O  O327  1  1.00092698  0.39087711  0.50311691  1
  O  O328  1  0.99274030  0.38190122  0.99293261  1
  O  O329  1  0.99364033  0.87854858  0.49272054  1
  O  O330  1  0.99274252  0.88386615  0.99289047  1
  O  O331  1  0.48805876  0.50724424  0.37151893  1
  O  O332  1  0.49355410  0.49557015  0.88058143  1
  O  O333  1  0.49989705  0.99020365  0.38386194  1
  O  O334  1  0.48894000  0.98798992  0.86835428  1
  O  O335  1  1.00618223  0.50458648  0.38855210  1
  O  O336  1  0.99345323  0.49698042  0.87791672  1
  O  O337  1  0.99424192  0.98913224  0.37876554  1
  O  O338  1  0.99435504  0.99180591  0.88084156  1
  O  O339  1  0.00740608  0.00403313  0.11671542  1
  O  O340  1  0.01076855  0.00828106  0.62018008  1
  O  O341  1  0.00762518  0.50602732  0.12032164  1
  O  O342  1  0.01005622  0.50943322  0.61626508  1
  O  O343  1  0.50626121  0.01394254  0.13114314  1
  O  O344  1  0.50862074  -0.00145170  0.61805728  1
  O  O345  1  0.50374443  0.51047388  0.11775209  1
  O  O346  1  0.51033090  0.50796021  0.62627126  1
  O  O347  1  0.24850394  0.38974506  0.23163743  1
  O  O348  1  0.24184362  0.38433642  0.74463786  1
  O  O349  1  0.23528633  0.87490549  0.25230371  1
  O  O350  1  0.23756391  0.88397001  0.74733070  1
  O  O351  1  0.73925609  0.36963251  0.23302504  1
  O  O352  1  0.73979104  0.37616740  0.74649895  1
  O  O353  1  0.74249408  0.87897648  0.24405793  1
  O  O354  1  0.74158344  0.88404482  0.74529596  1
  O  O355  1  0.25890324  0.15849616  0.27389090  1
  O  O356  1  0.24715321  0.11008703  0.74660982  1
  O  O357  1  0.24439033  0.61553494  0.25917671  1
  O  O358  1  0.25003798  0.61812406  0.75773625  1
  O  O359  1  0.75052576  0.11705667  0.26015034  1
  O  O360  1  0.74671446  0.11275603  0.76048370  1
  O  O361  1  0.75690004  0.63169533  0.26178218  1
  O  O362  1  0.75658901  0.62358281  0.76178004  1
  O  O363  1  0.38540019  0.10842327  0.37582715  1
  O  O364  1  0.38263657  0.10989524  0.87194984  1
  O  O365  1  0.36623594  0.61709631  0.38373392  1
  O  O366  1  0.36966797  0.61671654  0.87276831  1
  O  O367  1  0.86492917  0.11511239  0.37514782  1
  O  O368  1  0.86580673  0.11240585  0.87906315  1
  O  O369  1  0.86190811  0.63135005  0.36940354  1
  O  O370  1  0.86776339  0.61619661  0.87388472  1
  O  O371  1  0.13164136  0.38832587  0.12255174  1
  O  O372  1  0.12407278  0.38492261  0.62874105  1
  O  O373  1  0.12716936  0.88457887  0.13337171  1
  O  O374  1  0.12188995  0.88145639  0.63273372  1
  O  O375  1  0.63084570  0.38398766  0.12997278  1
  O  O376  1  0.62798388  0.38081649  0.63674200  1
  O  O377  1  0.62655822  0.88173353  0.13315777  1
  O  O378  1  0.63089374  0.88262536  0.63145173  1
  O  O379  1  0.10430061  0.25440191  0.24216598  1
  O  O380  1  0.11311404  0.25519284  0.75440135  1
  O  O381  1  0.11974645  0.76144756  0.25082916  1
  O  O382  1  0.13361332  0.75989484  0.76247910  1
  O  O383  1  0.61869900  0.25705859  0.25395509  1
  O  O384  1  0.61650168  0.25968994  0.75266564  1
  O  O385  1  0.62811586  0.76396779  0.25893847  1
  O  O386  1  0.62318123  0.76365847  0.75393077  1
  O  O387  1  0.39106556  0.25382712  0.23941083  1
  O  O388  1  0.38389484  0.25059341  0.74375772  1
  O  O389  1  0.36993551  0.76096330  0.23560011  1
  O  O390  1  0.37327731  0.74905931  0.73758659  1
  O  O391  1  0.88389479  0.25216270  0.23933266  1
  O  O392  1  0.88559892  0.25115891  0.74335564  1
  O  O393  1  0.88042544  0.73812364  0.24526849  1
  O  O394  1  0.88586113  0.75672169  0.76612075  1
  O  O395  1  0.38157435  0.49180780  0.49082157  1
  O  O396  1  0.38392590  0.50399306  0.98796501  1
  O  O397  1  0.38576037  0.99631181  0.49491751  1
  O  O398  1  0.36714439  0.98773272  0.99206155  1
  O  O399  1  0.88863754  0.50390208  0.50053516  1
  O  O400  1  0.88016365  0.49514537  0.98908536  1
  O  O401  1  0.88234563  0.98989724  0.49284058  1
  O  O402  1  0.88047326  0.99175568  0.99379776  1
  O  O403  1  0.11612186  -0.00838964  0.01470787  1
  O  O404  1  0.11890899  0.00091720  0.51015796  1
  O  O405  1  0.11960992  0.50314514  0.00720560  1
  O  O406  1  0.12348552  0.50853023  0.50681484  1
  O  O407  1  0.62760217  -0.00705212  0.01470373  1
  O  O408  1  0.61784381  -0.00426077  0.51014051  1
  O  O409  1  0.61435062  0.49549902  0.01231306  1
  O  O410  1  0.62726026  0.50721315  0.50952397  1
  O  O411  1  0.36996341  0.36830974  0.12568350  1
  O  O412  1  0.37547760  0.36643140  0.61875185  1
  O  O413  1  0.37719269  0.87025195  0.11700386  1
  O  O414  1  0.37509284  0.86532511  0.61987825  1
  O  O415  1  0.86624321  0.36979466  0.11879125  1
  O  O416  1  0.86462027  0.36385262  0.63258120  1
  O  O417  1  0.87032419  0.87672193  0.11532874  1
  O  O418  1  0.86731818  0.87472633  0.61533265  1
  O  O419  1  0.11736799  0.11648428  0.39317685  1
  O  O420  1  0.11803849  0.13886647  0.86778974  1
  O  O421  1  0.13620562  0.62476929  0.38277600  1
  O  O422  1  0.12916189  0.63600880  0.87693983  1
  O  O423  1  0.63130154  0.13170479  0.37484801  1
  O  O424  1  0.63629156  0.12308733  0.87489254  1
  O  O425  1  0.63298758  0.63327548  0.38038645  1
  O  O426  1  0.63728584  0.62264788  0.86984095  1
