# generated using pymatgen
data_V85Zn86O256
_symmetry_space_group_name_H-M   'P 1'
_cell_length_a   16.98399344
_cell_length_b   16.96826034
_cell_length_c   16.96602424
_cell_angle_alpha   90.03476578
_cell_angle_beta   90.12819718
_cell_angle_gamma   90.06821265
_symmetry_Int_Tables_number   1
_chemical_formula_structural   V85Zn86O256
_chemical_formula_sum   'V85 Zn86 O256'
_cell_volume   4889.40193456
_cell_formula_units_Z   1
loop_
 _symmetry_equiv_pos_site_id
 _symmetry_equiv_pos_as_xyz
  1  'x, y, z'
loop_
 _atom_site_type_symbol
 _atom_site_label
 _atom_site_symmetry_multiplicity
 _atom_site_fract_x
 _atom_site_fract_y
 _atom_site_fract_z
 _atom_site_occupancy
  V  V0  1  0.50536301  0.49804435  -0.00175212  1
  V  V1  1  0.12454081  0.87743779  0.25108919  1
  V  V2  1  0.24991218  0.12630300  0.87476694  1
  V  V3  1  0.25002335  0.25037824  -0.00092216  1
  V  V4  1  0.00326991  0.50254339  -0.00051728  1
  V  V5  1  0.37490635  0.75176475  0.62254238  1
  V  V6  1  0.12237289  0.37552487  0.26152135  1
  V  V7  1  0.63378467  0.73635258  0.88027462  1
  V  V8  1  0.50072424  0.74668212  0.75137084  1
  V  V9  1  -0.01273538  -0.00877725  -0.01276650  1
  V  V10  1  0.61990335  0.12248944  -0.00039561  1
  V  V11  1  0.62366504  -0.00250847  0.62582070  1
  V  V12  1  0.87628639  0.00028715  0.37673030  1
  V  V13  1  -0.00063244  0.87495017  0.37557115  1
  V  V14  1  0.76464818  0.87325651  0.11409782  1
  V  V15  1  0.12451717  0.61687711  0.50359051  1
  V  V16  1  0.49842358  0.11741439  0.62177378  1
  V  V17  1  0.37332729  -0.00569950  0.88132717  1
  V  V18  1  0.12206642  0.00477123  0.12321058  1
  V  V19  1  0.37771037  0.00017569  0.38358562  1
  V  V20  1  0.50100343  0.12893159  0.13906939  1
  V  V21  1  0.87490208  0.25592642  0.12100688  1
  V  V22  1  -0.00259021  0.63488529  0.12297633  1
  V  V23  1  0.37781984  0.63480151  0.24334961  1
  V  V24  1  0.62577594  -0.00480531  0.12689470  1
  V  V25  1  0.62543339  0.49637927  0.14185166  1
  V  V26  1  0.00265053  0.61150209  0.62290989  1
  V  V27  1  0.12553422  0.75193457  0.37479534  1
  V  V28  1  0.87713741  0.74626875  0.62408590  1
  V  V29  1  0.87399587  0.50078181  0.88445279  1
  V  V30  1  0.87629721  0.12696526  0.25139893  1
  V  V31  1  0.74753223  0.25571576  0.50612972  1
  V  V32  1  0.25045522  0.75374597  0.50006194  1
  V  V33  1  0.37322225  0.49905402  0.87351376  1
  V  V34  1  0.62573701  0.87137664  0.75212648  1
  V  V35  1  0.50315623  0.62624155  0.12524359  1
  V  V36  1  0.87117246  0.25737443  0.62787418  1
  V  V37  1  0.00590745  -0.00031542  0.50451797  1
  V  V38  1  0.25447358  0.62875007  0.37310869  1
  V  V39  1  0.74997319  -0.00760829  0.24973298  1
  V  V40  1  0.13419005  0.63452937  -0.00040070  1
  V  V41  1  0.24333536  0.25611860  0.49606809  1
  V  V42  1  0.75753093  -0.00238613  0.75538071  1
  V  V43  1  0.75607765  0.11899790  0.87599662  1
  V  V44  1  -0.01049556  0.74923526  0.24552493  1
  V  V45  1  0.63006066  0.37145909  0.74669694  1
  V  V46  1  0.61878412  0.24303520  0.36970694  1
  V  V47  1  0.12559500  0.75828046  0.87495012  1
  V  V48  1  0.50050276  0.24864171  0.75026264  1
  V  V49  1  0.25013281  0.37639014  0.12242677  1
  V  V50  1  0.50254436  0.49798421  0.49744464  1
  V  V51  1  0.25296316  0.87487680  0.11758692  1
  V  V52  1  0.00264492  0.12420466  0.62604044  1
  V  V53  1  0.75007723  0.12266146  0.37728772  1
  V  V54  1  0.25248533  0.50170640  0.24863872  1
  V  V55  1  -0.00042523  0.25148304  0.75102876  1
  V  V56  1  0.75075472  0.87210383  0.62606852  1
  V  V57  1  0.63266104  0.49195653  0.62455153  1
  V  V58  1  0.37113740  0.62026051  0.74872383  1
  V  V59  1  0.62419116  0.24823932  0.87398517  1
  V  V60  1  0.24652292  -0.00043616  0.74295364  1
  V  V61  1  0.87923340  0.37870611  0.48703024  1
  V  V62  1  0.36823711  0.25291099  0.62588829  1
  V  V63  1  0.37110305  0.37760466  0.50566022  1
  V  V64  1  0.13410609  0.39141984  0.73992639  1
  V  V65  1  0.74710583  0.37480395  0.13288033  1
  V  V66  1  0.62949856  0.62419562  0.49965904  1
  V  V67  1  0.12210803  0.13303060  0.49493992  1
  V  V68  1  0.49735278  0.87117480  0.88453697  1
  V  V69  1  0.25602316  0.63027244  0.87784837  1
  V  V70  1  0.37894490  0.24914965  0.13251656  1
  V  V71  1  0.37432453  0.12388599  0.75072127  1
  V  V72  1  0.75182968  0.25276213  0.00096511  1
  V  V73  1  0.75480455  0.60747709  0.36544020  1
  V  V74  1  0.75154355  0.49872873  0.75481535  1
  V  V75  1  0.24789714  0.00952613  0.25302485  1
  V  V76  1  0.12606111  0.25248359  0.87376916  1
  V  V77  1  0.87471053  0.62179104  0.75383564  1
  V  V78  1  0.74993856  0.74584244  0.49163451  1
  V  V79  1  0.00262142  0.25734002  0.26125320  1
  V  V80  1  0.11896670  0.87658168  0.74307200  1
  V  V81  1  0.62320252  0.11778181  0.50237611  1
  V  V82  1  -0.00096772  0.12735900  0.12258932  1
  V  V83  1  0.49876829  0.36766048  0.37138672  1
  V  V84  1  -0.00243247  0.37660933  0.87947390  1
  Zn  Zn85  1  0.87501061  0.87531517  0.50074244  1
  Zn  Zn86  1  0.37681091  0.37376492  -0.00182862  1
  Zn  Zn87  1  0.12235296  0.12695961  -0.00416842  1
  Zn  Zn88  1  0.24300576  0.13416416  0.37289773  1
  Zn  Zn89  1  0.49331393  -0.00499101  0.00735657  1
  Zn  Zn90  1  -0.00300043  0.49477111  0.47103682  1
  Zn  Zn91  1  0.31371387  0.80867364  -0.03316013  1
  Zn  Zn92  1  0.50195716  0.62244917  0.62337687  1
  Zn  Zn93  1  0.38039421  0.50306305  0.37400952  1
  Zn  Zn94  1  0.62204137  0.37219039  0.25445109  1
  Zn  Zn95  1  0.65051745  0.61321057  0.00369047  1
  Zn  Zn96  1  0.49954947  0.37345963  0.87442239  1
  Zn  Zn97  1  0.41717573  0.78887586  0.13671306  1
  Zn  Zn98  1  0.38178943  0.13330256  0.26307781  1
  Zn  Zn99  1  0.38745547  0.87836074  0.49490297  1
  Zn  Zn100  1  -0.00050011  0.75159870  0.75187017  1
  Zn  Zn101  1  0.90353154  0.55332445  0.29732698  1
  Zn  Zn102  1  0.12867557  0.50406387  0.12117451  1
  Zn  Zn103  1  0.55782945  0.82881307  0.30119915  1
  Zn  Zn104  1  0.76939541  0.73922042  0.00823964  1
  Zn  Zn105  1  0.24847078  0.88221466  0.61922849  1
  Zn  Zn106  1  0.87772409  0.12169369  0.75229414  1
  Zn  Zn107  1  0.18448518  0.19421354  0.18753217  1
  Zn  Zn108  1  0.18403445  0.19173541  0.68750680  1
  Zn  Zn109  1  0.18654858  0.69261271  0.18668759  1
  Zn  Zn110  1  0.18812233  0.68462722  0.68661827  1
  Zn  Zn111  1  0.68851026  0.18217775  0.18865125  1
  Zn  Zn112  1  0.68903378  0.18337165  0.68849584  1
  Zn  Zn113  1  0.68290637  0.69947595  0.19051071  1
  Zn  Zn114  1  0.68960759  0.68245578  0.68647738  1
  Zn  Zn115  1  0.31171105  0.31728306  0.31496354  1
  Zn  Zn116  1  0.31104344  0.31537195  0.80969775  1
  Zn  Zn117  1  0.31598480  0.81914901  0.30660893  1
  Zn  Zn118  1  0.30919367  0.81260420  0.80155131  1
  Zn  Zn119  1  0.81018231  0.30741282  0.31242680  1
  Zn  Zn120  1  0.81321109  0.31293452  0.81553304  1
  Zn  Zn121  1  0.81103114  0.81214662  0.31201050  1
  Zn  Zn122  1  0.81380040  0.80842239  0.81346066  1
  Zn  Zn123  1  0.19243260  0.44105886  0.43856042  1
  Zn  Zn124  1  0.18769601  0.44047841  0.93111470  1
  Zn  Zn125  1  0.18704652  0.94149743  0.43756059  1
  Zn  Zn126  1  0.17738539  0.94464991  0.93455200  1
  Zn  Zn127  1  0.68846778  0.43435715  0.43266138  1
  Zn  Zn128  1  0.68868329  0.43454715  0.93757694  1
  Zn  Zn129  1  0.68487931  0.92625530  0.43684993  1
  Zn  Zn130  1  0.68622021  0.93358254  0.93755331  1
  Zn  Zn131  1  0.31213922  0.06636530  0.06432102  1
  Zn  Zn132  1  0.30834096  0.06883539  0.55957140  1
  Zn  Zn133  1  0.31819781  0.56462087  0.05986721  1
  Zn  Zn134  1  0.31022665  0.56254537  0.56460093  1
  Zn  Zn135  1  0.81308865  0.06299536  0.06194710  1
  Zn  Zn136  1  0.81408912  0.06330848  0.56526523  1
  Zn  Zn137  1  0.81462679  0.56758724  0.10569322  1
  Zn  Zn138  1  0.81259355  0.55840927  0.56390171  1
  Zn  Zn139  1  0.43777529  0.44071200  0.18739469  1
  Zn  Zn140  1  0.44163938  0.43733852  0.68711622  1
  Zn  Zn141  1  0.43725058  0.95069279  0.19799649  1
  Zn  Zn142  1  0.43579592  0.93480042  0.69191172  1
  Zn  Zn143  1  0.94017181  0.43865079  0.18153428  1
  Zn  Zn144  1  0.93976095  0.43415071  0.68905125  1
  Zn  Zn145  1  0.93800570  0.93691352  0.18666149  1
  Zn  Zn146  1  0.93806752  0.93630285  0.68615194  1
  Zn  Zn147  1  0.05990978  0.06677558  0.31335637  1
  Zn  Zn148  1  0.06339965  0.06217828  0.81119274  1
  Zn  Zn149  1  0.07212132  0.56679229  0.30914501  1
  Zn  Zn150  1  0.06384116  0.56822089  0.81357631  1
  Zn  Zn151  1  0.57965222  0.02089295  0.33309472  1
  Zn  Zn152  1  0.56246578  0.05834455  0.81193360  1
  Zn  Zn153  1  0.57787583  0.63174092  0.30120793  1
  Zn  Zn154  1  0.56066279  0.55968268  0.81197202  1
  Zn  Zn155  1  0.43330741  0.18482132  0.44007697  1
  Zn  Zn156  1  0.43521786  0.18692800  0.94036701  1
  Zn  Zn157  1  0.44030032  0.68935018  0.43632347  1
  Zn  Zn158  1  0.44170122  0.68771596  0.94902136  1
  Zn  Zn159  1  0.93471600  0.18995855  0.44111549  1
  Zn  Zn160  1  0.93797176  0.18604179  0.93856403  1
  Zn  Zn161  1  0.93843110  0.68437795  0.43590662  1
  Zn  Zn162  1  0.94539321  0.68623752  0.93541806  1
  Zn  Zn163  1  0.06550421  0.31452207  0.06434590  1
  Zn  Zn164  1  0.05798619  0.31735128  0.56300919  1
  Zn  Zn165  1  0.06460700  0.81697476  0.06056431  1
  Zn  Zn166  1  0.06225616  0.80857114  0.56312690  1
  Zn  Zn167  1  0.56212473  0.31206744  0.06280622  1
  Zn  Zn168  1  0.55872884  0.30774244  0.56229492  1
  Zn  Zn169  1  0.57690520  0.81093650  0.06191626  1
  Zn  Zn170  1  0.56568783  0.80795563  0.56209341  1
  O  O171  1  0.11458425  0.12123813  0.12497062  1
  O  O172  1  0.10944393  0.13269455  0.61635705  1
  O  O173  1  0.12581343  0.62672312  0.11249509  1
  O  O174  1  0.11507778  0.63259243  0.61487733  1
  O  O175  1  0.61958890  0.12182429  0.11616786  1
  O  O176  1  0.61702341  0.11911029  0.62123599  1
  O  O177  1  0.61930261  0.61065744  0.12629534  1
  O  O178  1  0.62515376  0.61117886  0.61791553  1
  O  O179  1  0.38245412  0.37688192  0.38768488  1
  O  O180  1  0.37679135  0.38623123  0.87360918  1
  O  O181  1  0.36538518  0.89463832  0.37523362  1
  O  O182  1  0.37922901  0.87730614  0.87553565  1
  O  O183  1  0.86795976  0.36959891  0.38778122  1
  O  O184  1  0.88758556  0.38513125  0.87266321  1
  O  O185  1  0.88194579  0.88154634  0.37833782  1
  O  O186  1  0.87779244  0.83424157  0.90608550  1
  O  O187  1  0.24979062  0.00694133  0.36580547  1
  O  O188  1  0.25572130  0.00497519  0.86625000  1
  O  O189  1  0.25514234  0.50934005  0.36481254  1
  O  O190  1  0.26476278  0.51359765  0.87955064  1
  O  O191  1  0.75688536  0.00406535  0.36835616  1
  O  O192  1  0.74183674  0.00679809  0.86683643  1
  O  O193  1  0.75143336  0.50692051  0.37177071  1
  O  O194  1  0.76147199  0.49324090  0.86783464  1
  O  O195  1  0.25361997  0.49273234  0.13055482  1
  O  O196  1  0.25394530  0.50648113  0.63867993  1
  O  O197  1  0.23824720  1.00272706  0.13167018  1
  O  O198  1  0.25614838  1.00236595  0.63877354  1
  O  O199  1  0.73371873  0.48108835  0.11294849  1
  O  O200  1  0.73998612  0.49885711  0.63660548  1
  O  O201  1  0.74683304  0.99381955  0.12981018  1
  O  O202  1  0.74484889  0.99322781  0.63388380  1
  O  O203  1  0.01065964  0.36858076  0.23673164  1
  O  O204  1  0.00650741  0.37119759  0.76209799  1
  O  O205  1  0.00606731  0.87049527  0.25500396  1
  O  O206  1  0.01468127  0.87445408  0.74673757  1
  O  O207  1  0.49680668  0.38008141  0.26818351  1
  O  O208  1  0.51167970  0.36736384  0.75164069  1
  O  O209  1  0.47797836  0.85169149  0.22214856  1
  O  O210  1  0.50351615  0.86320431  0.75950006  1
  O  O211  1  0.50142167  0.12233325  0.23876047  1
  O  O212  1  0.49519557  0.12838613  0.74247074  1
  O  O213  1  0.48732736  0.61392678  0.23888778  1
  O  O214  1  0.49209740  0.63373875  0.74916549  1
  O  O215  1  0.99683124  0.13536938  0.24076623  1
  O  O216  1  0.99862591  0.12992278  0.74273341  1
  O  O217  1  1.00656174  0.63577423  0.23686653  1
  O  O218  1  0.99204174  0.62557389  0.74030044  1
  O  O219  1  0.36767255  0.25240466  0.00963009  1
  O  O220  1  0.36699994  0.25762983  0.50865525  1
  O  O221  1  0.38928101  0.75327895  0.02341731  1
  O  O222  1  0.36496444  0.74729661  0.50752930  1
  O  O223  1  0.86274564  0.24032219  0.00972121  1
  O  O224  1  0.86690184  0.25776184  0.50713032  1
  O  O225  1  0.87344173  0.77255688  -0.03840434  1
  O  O226  1  0.86803923  0.74806075  0.50999715  1
  O  O227  1  0.13350738  0.24828688  0.50877708  1
  O  O228  1  0.13198685  0.24988537  0.99289746  1
  O  O229  1  0.13286147  0.74225157  0.49500324  1
  O  O230  1  0.12408971  0.74283396  0.99057897  1
  O  O231  1  0.63055312  0.23847651  0.49716162  1
  O  O232  1  0.63106326  0.23963890  0.99550996  1
  O  O233  1  0.63968553  0.73355308  0.51398869  1
  O  O234  1  0.63116514  0.74318845  0.98548153  1
  O  O235  1  0.48939131  0.24270639  0.11989759  1
  O  O236  1  0.49109867  0.23815153  0.63052546  1
  O  O237  1  0.51867139  0.72798563  0.11742070  1
  O  O238  1  0.49405120  0.74843236  0.63520685  1
  O  O239  1  0.99226438  0.24402213  0.12486664  1
  O  O240  1  0.99010083  0.24287062  0.63060004  1
  O  O241  1  1.01789409  0.74773162  0.13711726  1
  O  O242  1  0.98857209  0.74132798  0.62587450  1
  O  O243  1  -0.00810328  0.24835885  0.35976593  1
  O  O244  1  0.00295200  0.25807324  0.87354402  1
  O  O245  1  0.00562348  0.75437290  0.36795486  1
  O  O246  1  0.02159220  0.74170114  0.86710364  1
  O  O247  1  0.50762610  0.25556832  0.38610050  1
  O  O248  1  0.50570526  0.24752852  0.86831553  1
  O  O249  1  0.50211732  0.78417416  0.40866899  1
  O  O250  1  0.50627270  0.75345707  0.86818572  1
  O  O251  1  0.23633852  0.13698414  0.50187387  1
  O  O252  1  0.24721379  0.13238879  0.99306664  1
  O  O253  1  0.24490113  0.63443690  0.49453521  1
  O  O254  1  0.24560252  0.62431615  0.99114221  1
  O  O255  1  0.74255503  0.13175430  0.49767685  1
  O  O256  1  0.73989690  0.13036766  0.99514682  1
  O  O257  1  0.74727291  0.62730452  0.49516224  1
  O  O258  1  0.76026789  0.62777613  1.02422031  1
  O  O259  1  0.25058533  0.37199697  0.00757802  1
  O  O260  1  0.26200110  0.37215626  0.49897263  1
  O  O261  1  0.24102404  0.88482030  0.01188758  1
  O  O262  1  0.24675549  0.86283359  0.50153416  1
  O  O263  1  0.74101357  0.35729563  0.00889781  1
  O  O264  1  0.75479646  0.36080079  0.49855992  1
  O  O265  1  0.74891271  0.87379180  0.01161814  1
  O  O266  1  0.75019682  0.86405413  0.50744068  1
  O  O267  1  0.13962675  0.49626490  0.24385343  1
  O  O268  1  0.12301851  0.49018429  0.75815196  1
  O  O269  1  0.12722788  0.99936565  0.24323077  1
  O  O270  1  0.13356841  0.98620697  0.75619344  1
  O  O271  1  0.62143689  0.49822792  0.24126088  1
  O  O272  1  0.63116535  0.49258372  0.74557655  1
  O  O273  1  0.64145295  1.01652499  0.23429734  1
  O  O274  1  0.63364228  0.99123250  0.74542146  1
  O  O275  1  0.36181440  0.01154591  0.26070312  1
  O  O276  1  0.36684121  0.00257065  0.76035276  1
  O  O277  1  0.36379660  0.50646648  0.25135077  1
  O  O278  1  0.38756691  0.51197294  0.75854333  1
  O  O279  1  0.87018068  0.00695073  0.25566804  1
  O  O280  1  0.86143558  -0.00142133  0.74715511  1
  O  O281  1  0.86390142  0.51758480  0.20082594  1
  O  O282  1  0.86905870  0.50280638  0.75723846  1
  O  O283  1  0.12897984  0.38358782  0.36059615  1
  O  O284  1  0.11622299  0.37131737  0.86756657  1
  O  O285  1  0.11851488  0.87206582  0.37124762  1
  O  O286  1  0.13527936  0.86612545  0.86197857  1
  O  O287  1  0.61707383  0.36112559  0.37669261  1
  O  O288  1  0.62416611  0.36642076  0.86393383  1
  O  O289  1  0.61330612  0.91319535  0.35499331  1
  O  O290  1  0.61682917  0.86294541  0.86981767  1
  O  O291  1  0.38449097  0.13270885  0.12629192  1
  O  O292  1  0.38175088  0.13155168  0.62909183  1
  O  O293  1  0.38903739  0.61782795  0.13171881  1
  O  O294  1  0.37963610  0.63578603  0.63226130  1
  O  O295  1  0.88156753  0.13385511  0.13126254  1
  O  O296  1  0.88471728  0.13548501  0.62625673  1
  O  O297  1  0.90225467  0.64792597  0.10145505  1
  O  O298  1  0.88122011  0.62858558  0.63180908  1
  O  O299  1  0.25646388  0.25771000  0.11900457  1
  O  O300  1  0.26279846  0.24459108  0.61823315  1
  O  O301  1  0.24329183  0.77564311  0.12980846  1
  O  O302  1  0.26031568  0.74895401  0.61742198  1
  O  O303  1  0.75519082  0.25113966  0.11937239  1
  O  O304  1  0.75825565  0.24051136  0.61686468  1
  O  O305  1  0.74357276  0.77092053  0.12678937  1
  O  O306  1  0.76031798  0.75090096  0.62090243  1
  O  O307  1  0.25359956  0.25243742  0.39129261  1
  O  O308  1  0.24739181  0.24568764  0.87984217  1
  O  O309  1  0.24768744  0.74861881  0.38157094  1
  O  O310  1  0.25170005  0.74673168  0.88093361  1
  O  O311  1  0.73977320  0.24121761  0.38539411  1
  O  O312  1  0.74459893  0.24189273  0.88232900  1
  O  O313  1  0.75387209  0.74698857  0.38912370  1
  O  O314  1  0.73342042  0.74744612  0.86960926  1
  O  O315  1  0.00029654  0.11962381  0.01125994  1
  O  O316  1  0.00378646  0.12144934  0.50625973  1
  O  O317  1  0.01637928  0.62174947  0.00036301  1
  O  O318  1  0.00803285  0.62301306  0.50563738  1
  O  O319  1  0.51063744  0.12216268  0.00407197  1
  O  O320  1  0.50940904  0.12919995  0.51273523  1
  O  O321  1  0.50365279  0.60926518  0.00888019  1
  O  O322  1  0.51102760  0.61620387  0.49872373  1
  O  O323  1  0.49207454  0.37804638  0.49563952  1
  O  O324  1  0.49860239  0.38387920  0.99648283  1
  O  O325  1  0.49943426  0.84226217  0.47367556  1
  O  O326  1  0.50942919  0.87619587  0.98783844  1
  O  O327  1  0.98464673  0.37647636  0.49772460  1
  O  O328  1  1.01136316  0.38838937  0.99046305  1
  O  O329  1  1.00096872  0.88338593  0.49628509  1
  O  O330  1  1.00459954  0.89325919  1.00465966  1
  O  O331  1  0.50220724  0.48723865  0.39219428  1
  O  O332  1  0.49194812  0.49933915  0.88199708  1
  O  O333  1  0.47545191  1.01264667  0.37317240  1
  O  O334  1  0.49051541  0.98765635  0.87215338  1
  O  O335  1  0.98857558  0.51456358  0.36041585  1
  O  O336  1  0.99491230  0.49584578  0.88053084  1
  O  O337  1  0.99551246  0.99593555  0.38284029  1
  O  O338  1  1.00260063  1.00689847  0.88855380  1
  O  O339  1  0.00609278  0.01130532  0.12507443  1
  O  O340  1  -0.00834187  0.01096507  0.61555323  1
  O  O341  1  0.00834237  0.51239241  0.11161581  1
  O  O342  1  -0.00800343  0.51105315  0.62067052  1
  O  O343  1  0.50864111  0.01057634  0.12402479  1
  O  O344  1  0.50495540  0.00916517  0.63383884  1
  O  O345  1  0.50892983  0.50077258  0.11715287  1
  O  O346  1  0.51183194  0.49962318  0.61503547  1
  O  O347  1  0.24470010  0.38279666  0.24347228  1
  O  O348  1  0.23263037  0.37143513  0.75241919  1
  O  O349  1  0.24282448  0.89134146  0.24151793  1
  O  O350  1  0.24345366  0.88392746  0.74290342  1
  O  O351  1  0.74446300  0.36403535  0.23702077  1
  O  O352  1  0.73989062  0.38270055  0.75411634  1
  O  O353  1  0.75631432  0.88809365  0.24072754  1
  O  O354  1  0.74668727  0.87890674  0.74717489  1
  O  O355  1  0.24394181  0.11904193  0.25108204  1
  O  O356  1  0.25374728  0.11932790  0.75404348  1
  O  O357  1  0.25598521  0.61931159  0.25045491  1
  O  O358  1  0.26328470  0.63549035  0.76281946  1
  O  O359  1  0.75889548  0.11758797  0.25595349  1
  O  O360  1  0.74945954  0.11443537  0.75919358  1
  O  O361  1  0.74121156  0.62871739  0.26829418  1
  O  O362  1  0.76232863  0.61131989  0.74542403  1
  O  O363  1  0.36288423  0.11895923  0.37872842  1
  O  O364  1  0.37058722  0.11680847  0.86861498  1
  O  O365  1  0.37404499  0.62637407  0.36361680  1
  O  O366  1  0.37316849  0.62180685  0.86964731  1
  O  O367  1  0.86978142  0.12086510  0.37153739  1
  O  O368  1  0.85935619  0.12967350  0.87376739  1
  O  O369  1  0.85913011  0.62615487  0.37667538  1
  O  O370  1  0.88504880  0.61423416  0.86229581  1
  O  O371  1  0.13944211  0.37887631  0.13024749  1
  O  O372  1  0.11320002  0.37685263  0.64202601  1
  O  O373  1  0.13111132  0.89067473  0.13066704  1
  O  O374  1  0.12876739  0.86790615  0.63851724  1
  O  O375  1  0.62801151  0.37625648  0.13244695  1
  O  O376  1  0.61960256  0.37971527  0.63474716  1
  O  O377  1  0.63289191  0.89136447  0.12178068  1
  O  O378  1  0.62951151  0.87685924  0.63130560  1
  O  O379  1  0.11480967  0.26256948  0.24515810  1
  O  O380  1  0.11678422  0.25695973  0.75637413  1
  O  O381  1  0.12236095  0.75883788  0.25926657  1
  O  O382  1  0.13088580  0.76198426  0.75611685  1
  O  O383  1  0.62812885  0.24290602  0.26726301  1
  O  O384  1  0.62241233  0.25409987  0.75240445  1
  O  O385  1  0.61221011  0.73458786  0.26978776  1
  O  O386  1  0.61773853  0.74919897  0.75572594  1
  O  O387  1  0.36563452  0.24846372  0.23781937  1
  O  O388  1  0.37889752  0.24478999  0.74344031  1
  O  O389  1  0.36481376  0.73733605  0.24005574  1
  O  O390  1  0.38267047  0.74326764  0.74240884  1
  O  O391  1  0.88210343  0.24648339  0.24018916  1
  O  O392  1  0.87969571  0.24919627  0.74458436  1
  O  O393  1  0.89026665  0.75485695  0.25164997  1
  O  O394  1  0.87520629  0.73896908  0.74175902  1
  O  O395  1  0.38510416  0.49414207  0.50209950  1
  O  O396  1  0.38568763  0.49826777  0.99026329  1
  O  O397  1  0.36394386  0.99797289  0.48955357  1
  O  O398  1  0.37496272  1.00554744  0.98523921  1
  O  O399  1  0.86966876  0.48053003  0.50470972  1
  O  O400  1  0.89222273  0.50869526  0.99033509  1
  O  O401  1  0.88511769  1.00001001  0.49498162  1
  O  O402  1  0.88835573  1.00584437  1.00242353  1
  O  O403  1  0.11416702  0.00728529  0.01042052  1
  O  O404  1  0.11235593  0.01109541  0.49844944  1
  O  O405  1  0.11991734  0.51446360  -0.00604082  1
  O  O406  1  0.12099941  0.51394608  0.49082389  1
  O  O407  1  0.62529593  0.00979463  0.00780345  1
  O  O408  1  0.63376270  0.01148347  0.50909978  1
  O  O409  1  0.61622383  0.49846668  0.00021448  1
  O  O410  1  0.62305503  0.50041397  0.50841720  1
  O  O411  1  0.36553203  0.36850760  0.12560983  1
  O  O412  1  0.38525381  0.36353269  0.61721113  1
  O  O413  1  0.35382736  0.89227189  0.12528421  1
  O  O414  1  0.37721188  0.86383619  0.61901153  1
  O  O415  1  0.86550473  0.36054051  0.12463097  1
  O  O416  1  0.87854088  0.36132811  0.61975319  1
  O  O417  1  0.86395009  0.87955716  0.12255760  1
  O  O418  1  0.87021768  0.86246534  0.62502116  1
  O  O419  1  0.12081653  0.12869766  0.39005189  1
  O  O420  1  0.13235279  0.13416280  0.87347389  1
  O  O421  1  0.13508854  0.63404460  0.38221884  1
  O  O422  1  0.13978892  0.63547838  0.87791116  1
  O  O423  1  0.62812126  0.12375423  0.38638620  1
  O  O424  1  0.63182652  0.12740957  0.88146303  1
  O  O425  1  0.63998535  0.61522112  0.39361440  1
  O  O426  1  0.62108619  0.63358996  0.87641463  1
