# generated using pymatgen
data_V85Zn86O256
_symmetry_space_group_name_H-M   'P 1'
_cell_length_a   16.99619495
_cell_length_b   16.98612866
_cell_length_c   16.97048767
_cell_angle_alpha   90.13365351
_cell_angle_beta   90.08996245
_cell_angle_gamma   90.06028095
_symmetry_Int_Tables_number   1
_chemical_formula_structural   V85Zn86O256
_chemical_formula_sum   'V85 Zn86 O256'
_cell_volume   4899.35012171
_cell_formula_units_Z   1
loop_
 _symmetry_equiv_pos_site_id
 _symmetry_equiv_pos_as_xyz
  1  'x, y, z'
loop_
 _atom_site_type_symbol
 _atom_site_label
 _atom_site_symmetry_multiplicity
 _atom_site_fract_x
 _atom_site_fract_y
 _atom_site_fract_z
 _atom_site_occupancy
  V  V0  1  0.12217511  0.24740805  0.86631328  1
  V  V1  1  0.37468051  0.37718303  -0.00047614  1
  V  V2  1  0.00021612  0.13460238  0.13169554  1
  V  V3  1  0.74974916  0.12436847  0.87685121  1
  V  V4  1  0.62941580  0.62733630  0.50440638  1
  V  V5  1  0.87508783  0.49808622  0.87684372  1
  V  V6  1  0.62526604  0.25188728  0.87680738  1
  V  V7  1  0.13274952  0.63091045  0.50147187  1
  V  V8  1  0.75399822  0.63269821  0.38154324  1
  V  V9  1  0.12914121  0.38251453  0.75052842  1
  V  V10  1  0.25727875  0.50080876  0.25368915  1
  V  V11  1  0.49877763  0.87295058  0.87400440  1
  V  V12  1  0.12696655  0.36316830  0.25252267  1
  V  V13  1  0.51342364  0.50861236  0.00078683  1
  V  V14  1  0.11130210  0.11167977  0.50812309  1
  V  V15  1  0.50409356  0.61986481  0.62715418  1
  V  V16  1  0.50166553  0.50256626  0.49607788  1
  V  V17  1  0.50201231  0.24799178  0.24344988  1
  V  V18  1  0.37816466  0.12567161  0.24135869  1
  V  V19  1  0.00295888  0.50081137  0.50014429  1
  V  V20  1  0.25763557  0.62300489  0.37603670  1
  V  V21  1  0.87743227  0.13394344  0.25671726  1
  V  V22  1  0.86695022  0.86497759  0.49825634  1
  V  V23  1  0.51265711  0.62670938  0.12755241  1
  V  V24  1  0.12597775  0.50676842  0.12356545  1
  V  V25  1  -0.00290862  0.75246262  0.75214304  1
  V  V26  1  0.50077288  0.37671763  0.87573646  1
  V  V27  1  0.74177621  -0.00124497  0.74939614  1
  V  V28  1  0.87533424  -0.00103023  0.87794604  1
  V  V29  1  0.37182919  0.87387745  -0.00063290  1
  V  V30  1  0.00488567  0.50478090  0.00097236  1
  V  V31  1  0.50255360  0.12071982  0.62281191  1
  V  V32  1  0.25099302  0.37514809  0.12438520  1
  V  V33  1  0.00153451  0.87852224  0.38482104  1
  V  V34  1  0.24406462  0.87085749  0.62461317  1
  V  V35  1  0.73766674  0.12008593  0.37963857  1
  V  V36  1  0.24853796  0.87432504  0.12421262  1
  V  V37  1  0.62232840  0.75035633  0.37254379  1
  V  V38  1  0.37189767  0.86870672  0.50094583  1
  V  V39  1  0.13361309  0.75120216  0.38220425  1
  V  V40  1  0.63400397  -0.00963214  0.12313597  1
  V  V41  1  0.49392569  0.74703686  0.75028118  1
  V  V42  1  0.12045874  0.74870964  0.87771903  1
  V  V43  1  0.49773806  0.00402323  0.00532305  1
  V  V44  1  0.50441528  0.24985907  0.74947010  1
  V  V45  1  0.74850572  0.37904168  0.12980366  1
  V  V46  1  0.25088134  0.25132588  -0.00177611  1
  V  V47  1  0.49555452  0.38401226  0.36783157  1
  V  V48  1  0.37444084  0.25143769  0.62057816  1
  V  V49  1  0.37394387  0.00673845  0.37482869  1
  V  V50  1  0.87040493  0.75940048  0.12614870  1
  V  V51  1  0.75597634  0.25124315  0.00536536  1
  V  V52  1  0.24521256  0.62287269  0.86955802  1
  V  V53  1  0.62276304  0.74363550  0.88180736  1
  V  V54  1  0.25237315  0.38371504  0.62965370  1
  V  V55  1  0.74700544  0.50071691  0.24838718  1
  V  V56  1  0.00358591  0.74987025  0.25138359  1
  V  V57  1  0.88084604  0.62498585  0.24979928  1
  V  V58  1  0.00166207  0.62996178  0.62589457  1
  V  V59  1  0.37454941  0.12511288  0.74915410  1
  V  V60  1  0.37571439  0.74480385  0.13117530  1
  V  V61  1  0.36910687  0.50222757  0.87010048  1
  V  V62  1  0.88349958  0.12919698  0.73597290  1
  V  V63  1  0.12627900  0.87740718  0.25212693  1
  V  V64  1  0.37414872  0.38077467  0.49506512  1
  V  V65  1  0.24724199  0.12390727  0.87266233  1
  V  V66  1  0.62821020  0.37857842  0.73871812  1
  V  V67  1  0.62038087  0.12734554  0.00871463  1
  V  V68  1  0.87341372  0.62270408  0.75057925  1
  V  V69  1  0.00699707  0.36615302  0.37139696  1
  V  V70  1  0.23721078  -0.00349383  0.74336175  1
  V  V71  1  0.12387089  0.00178523  0.12505373  1
  V  V72  1  0.50383729  -0.00017907  0.49977967  1
  V  V73  1  0.50068401  0.87001861  0.36640371  1
  V  V74  1  0.12323681  0.12556588  -0.00075823  1
  V  V75  1  0.37412022  -0.00061978  0.87337319  1
  V  V76  1  0.88053234  0.49930810  0.37908008  1
  V  V77  1  0.74514217  0.62364224  0.88450894  1
  V  V78  1  0.74398777  0.86419510  0.62153577  1
  V  V79  1  0.74763011  0.49437527  0.73812828  1
  V  V80  1  -0.00013738  0.37025959  0.87063813  1
  V  V81  1  -0.00215406  0.87654251  0.87692898  1
  V  V82  1  0.87917002  -0.00031082  0.38048029  1
  V  V83  1  0.25124241  0.00064755  0.25188195  1
  V  V84  1  0.24258073  0.74255948  0.00089008  1
  Zn  Zn85  1  0.66650270  0.17500303  0.53754644  1
  Zn  Zn86  1  0.62162346  0.87138354  0.74806936  1
  Zn  Zn87  1  0.38285831  0.62470602  0.25554949  1
  Zn  Zn88  1  0.78891725  0.31804718  0.54349594  1
  Zn  Zn89  1  -0.00269481  0.00014930  0.00267947  1
  Zn  Zn90  1  0.00637625  0.63013243  0.11695378  1
  Zn  Zn91  1  0.23474177  0.13986128  0.37513870  1
  Zn  Zn92  1  0.38159797  0.24731275  0.11973202  1
  Zn  Zn93  1  0.23223233  0.25151541  0.49173890  1
  Zn  Zn94  1  0.75676990  -0.00841483  0.24509522  1
  Zn  Zn95  1  0.87926876  0.37433035  0.00635018  1
  Zn  Zn96  1  0.63035378  0.26173464  0.37738011  1
  Zn  Zn97  1  0.86495786  0.88081651  0.00701549  1
  Zn  Zn98  1  0.62852625  0.86201210  0.23853483  1
  Zn  Zn99  1  0.73772043  0.75202076  0.01230707  1
  Zn  Zn100  1  0.36674895  0.61832190  0.74356263  1
  Zn  Zn101  1  0.62314363  -0.00376220  0.62188157  1
  Zn  Zn102  1  0.13142010  0.50706332  0.63126316  1
  Zn  Zn103  1  0.37179437  0.74544045  0.61941347  1
  Zn  Zn104  1  0.87896921  0.25513018  0.14232203  1
  Zn  Zn105  1  0.86782845  0.74560221  0.62136585  1
  Zn  Zn106  1  0.62296359  0.37792727  0.24730792  1
  Zn  Zn107  1  0.19399446  0.18566557  0.18618921  1
  Zn  Zn108  1  0.18591324  0.19087769  0.67970882  1
  Zn  Zn109  1  0.19039099  0.68737329  0.19208047  1
  Zn  Zn110  1  0.18309431  0.69566279  0.69082544  1
  Zn  Zn111  1  0.69074751  0.18611187  0.19498675  1
  Zn  Zn112  1  0.72714866  0.21207756  0.70255117  1
  Zn  Zn113  1  0.69068963  0.68449899  0.19358966  1
  Zn  Zn114  1  0.68385113  0.68314647  0.69640638  1
  Zn  Zn115  1  0.31528008  0.31061049  0.31079593  1
  Zn  Zn116  1  0.31319696  0.31286575  0.81096695  1
  Zn  Zn117  1  0.31418338  0.81392270  0.31353125  1
  Zn  Zn118  1  0.30898684  0.81173182  0.81127530  1
  Zn  Zn119  1  0.80242975  0.32258735  0.34277188  1
  Zn  Zn120  1  0.81409897  0.31329349  0.81505136  1
  Zn  Zn121  1  0.80948578  0.81563967  0.30903109  1
  Zn  Zn122  1  0.80900790  0.81133277  0.81506994  1
  Zn  Zn123  1  0.18864351  0.43932452  0.43841782  1
  Zn  Zn124  1  0.18655026  0.43816598  0.93796753  1
  Zn  Zn125  1  0.18816622  0.94280731  0.44254909  1
  Zn  Zn126  1  0.18371108  0.93685227  0.93466759  1
  Zn  Zn127  1  0.68438204  0.44453894  0.43636494  1
  Zn  Zn128  1  0.69091867  0.43506537  0.93562419  1
  Zn  Zn129  1  0.68907858  0.93680004  0.43400648  1
  Zn  Zn130  1  0.68771238  0.93026752  0.93866972  1
  Zn  Zn131  1  0.30941451  0.06182114  0.06126121  1
  Zn  Zn132  1  0.30595288  0.06313310  0.55726794  1
  Zn  Zn133  1  0.31538943  0.56177492  0.06096769  1
  Zn  Zn134  1  0.31576739  0.56282172  0.56074749  1
  Zn  Zn135  1  0.81378846  0.06847921  0.06542014  1
  Zn  Zn136  1  0.81384913  0.05027157  0.55997039  1
  Zn  Zn137  1  0.81771941  0.56354925  0.06354857  1
  Zn  Zn138  1  0.81577079  0.56150272  0.56248976  1
  Zn  Zn139  1  0.43852317  0.44158408  0.18160853  1
  Zn  Zn140  1  0.44236174  0.43765616  0.68653775  1
  Zn  Zn141  1  0.43796787  0.93561032  0.18619851  1
  Zn  Zn142  1  0.43180558  0.93564485  0.68737276  1
  Zn  Zn143  1  0.94017225  0.43570976  0.18972423  1
  Zn  Zn144  1  0.94077844  0.43727118  0.68773171  1
  Zn  Zn145  1  0.94196920  0.94339403  0.19471289  1
  Zn  Zn146  1  0.91841275  0.93387475  0.69493092  1
  Zn  Zn147  1  0.06217013  0.06750021  0.31662714  1
  Zn  Zn148  1  0.05454785  0.05066659  0.67632521  1
  Zn  Zn149  1  0.07120060  0.55972692  0.31193626  1
  Zn  Zn150  1  0.06226036  0.56402007  0.81570796  1
  Zn  Zn151  1  0.55552911  0.05745422  0.30589034  1
  Zn  Zn152  1  0.56236413  0.06367525  0.81578135  1
  Zn  Zn153  1  0.56405406  0.56595556  0.31378236  1
  Zn  Zn154  1  0.56352041  0.56010579  0.81218278  1
  Zn  Zn155  1  0.47113944  0.20262289  0.44756685  1
  Zn  Zn156  1  0.43699234  0.18743117  0.93565927  1
  Zn  Zn157  1  0.44079444  0.68917813  0.43835429  1
  Zn  Zn158  1  0.43219200  0.68566248  0.93948309  1
  Zn  Zn159  1  0.94534942  0.18306108  0.44505822  1
  Zn  Zn160  1  0.93953245  0.18236889  0.93537005  1
  Zn  Zn161  1  0.94406239  0.68941227  0.43870761  1
  Zn  Zn162  1  0.93288408  0.68510994  0.93849694  1
  Zn  Zn163  1  0.06617873  0.31571079  0.06091655  1
  Zn  Zn164  1  0.06979450  0.31845932  0.55449091  1
  Zn  Zn165  1  0.05873275  0.81637296  0.06058319  1
  Zn  Zn166  1  0.03677886  0.86335196  0.59480158  1
  Zn  Zn167  1  0.56561843  0.31943227  0.06298445  1
  Zn  Zn168  1  0.56398145  0.31413909  0.55947376  1
  Zn  Zn169  1  0.55584132  0.81120384  0.05989898  1
  Zn  Zn170  1  0.55972275  0.80975225  0.55966799  1
  O  O171  1  0.11939242  0.12183171  0.12112549  1
  O  O172  1  0.12361123  0.12028108  0.62081936  1
  O  O173  1  0.12358859  0.61187269  0.13376212  1
  O  O174  1  0.12203306  0.62786740  0.61863648  1
  O  O175  1  0.62939711  0.11763578  0.11229007  1
  O  O176  1  0.60610843  0.11924971  0.62445032  1
  O  O177  1  0.61160850  0.63505139  0.12574915  1
  O  O178  1  0.61582152  0.63131366  0.61614898  1
  O  O179  1  0.38422682  0.37569134  0.38480752  1
  O  O180  1  0.38010344  0.38187384  0.87939226  1
  O  O181  1  0.38258221  0.88079596  0.37870905  1
  O  O182  1  0.37802007  0.87897735  0.88063105  1
  O  O183  1  0.89694483  0.39241841  0.36327963  1
  O  O184  1  0.88563108  0.37858016  0.87687497  1
  O  O185  1  0.88172471  0.87779934  0.37919004  1
  O  O186  1  0.87848345  0.88284489  0.87664224  1
  O  O187  1  0.26232073  -0.00646834  0.36690201  1
  O  O188  1  0.25392062  0.00226876  0.86453106  1
  O  O189  1  0.24425788  0.51097761  0.36570328  1
  O  O190  1  0.25663050  0.51077352  0.88281311  1
  O  O191  1  0.76202282  0.00569843  0.37326610  1
  O  O192  1  0.75411174  0.00287784  0.86952032  1
  O  O193  1  0.76357197  0.51352999  0.36719000  1
  O  O194  1  0.75690992  0.50646427  0.87227721  1
  O  O195  1  0.24350493  0.49577467  0.12929054  1
  O  O196  1  0.25142825  0.48812629  0.62338091  1
  O  O197  1  0.24428259  0.99370178  0.13079569  1
  O  O198  1  0.25940069  0.99142810  0.63893211  1
  O  O199  1  0.76326104  0.49299011  0.13729085  1
  O  O200  1  0.75952699  0.49665320  0.63821453  1
  O  O201  1  0.73658976  1.00051072  0.12034330  1
  O  O202  1  0.74427910  0.98780077  0.63386901  1
  O  O203  1  0.01308592  0.38144536  0.26191257  1
  O  O204  1  0.00959101  0.37741278  0.76274285  1
  O  O205  1  0.00658206  0.86630958  0.26069944  1
  O  O206  1  -0.01448000  0.86082060  0.76569279  1
  O  O207  1  0.49915791  0.37598612  0.25368323  1
  O  O208  1  0.50802746  0.37048682  0.75683587  1
  O  O209  1  0.50714565  0.88155278  0.26227616  1
  O  O210  1  0.49679219  0.86458420  0.75580392  1
  O  O211  1  0.48993564  0.13596743  0.25413896  1
  O  O212  1  0.49467432  0.12943330  0.74426574  1
  O  O213  1  0.49748487  0.61316847  0.23245058  1
  O  O214  1  0.49982059  0.62842341  0.74147547  1
  O  O215  1  0.99259271  0.12212583  0.24178073  1
  O  O216  1  0.98235944  0.12155886  0.74198602  1
  O  O217  1  0.99578623  0.63527107  0.25605536  1
  O  O218  1  0.99396913  0.63054917  0.74650034  1
  O  O219  1  0.37045899  0.25763014  -0.00117428  1
  O  O220  1  0.38899822  0.26557687  0.51236277  1
  O  O221  1  0.36364653  0.75527119  0.00740153  1
  O  O222  1  0.37801006  0.76431922  0.49856052  1
  O  O223  1  0.86173488  0.24789053  -0.00094789  1
  O  O224  1  0.89108946  0.25244995  0.53011913  1
  O  O225  1  0.88239238  0.74647110  0.02293956  1
  O  O226  1  0.87497666  0.75949460  0.49873029  1
  O  O227  1  0.12131012  0.23177024  0.51458329  1
  O  O228  1  0.13236086  0.24680969  0.99076895  1
  O  O229  1  0.12138472  0.73872000  0.48818905  1
  O  O230  1  0.13316415  0.75341355  0.99477204  1
  O  O231  1  0.58753263  0.23577335  0.48138286  1
  O  O232  1  0.63130732  0.24497014  0.99816179  1
  O  O233  1  0.61999772  0.73600031  0.48933373  1
  O  O234  1  0.62032681  0.74982633  0.98618452  1
  O  O235  1  0.50009139  0.26110947  0.13753731  1
  O  O236  1  0.49275858  0.24211477  0.63115884  1
  O  O237  1  0.48903012  0.73516492  0.11516138  1
  O  O238  1  0.49750256  0.73986263  0.63353227  1
  O  O239  1  0.99850700  0.23913271  0.11920745  1
  O  O240  1  0.93514033  0.28936200  0.59191111  1
  O  O241  1  0.99710893  0.74909459  0.13819884  1
  O  O242  1  0.99755606  0.75141364  0.63934699  1
  O  O243  1  -0.00627853  0.26961018  0.38300767  1
  O  O244  1  0.00996493  0.25950999  0.88267973  1
  O  O245  1  0.01053616  0.75669916  0.36720972  1
  O  O246  1  0.00231363  0.75343362  0.87440309  1
  O  O247  1  0.49455582  0.26691189  0.35627616  1
  O  O248  1  0.50506622  0.25555051  0.86917307  1
  O  O249  1  0.50786141  0.75892613  0.37689717  1
  O  O250  1  0.50278965  0.75074452  0.87083036  1
  O  O251  1  0.24062234  0.12938790  0.49684153  1
  O  O252  1  0.24426525  0.13030560  0.99363294  1
  O  O253  1  0.24166359  0.61853254  0.49181598  1
  O  O254  1  0.25446420  0.63724550  0.99061126  1
  O  O255  1  0.74793671  0.11162828  0.48622177  1
  O  O256  1  0.74158260  0.13384529  0.99713742  1
  O  O257  1  0.74229648  0.61619397  0.49192064  1
  O  O258  1  0.75807830  0.63105313  0.98872617  1
  O  O259  1  0.25505650  0.37056981  0.00344370  1
  O  O260  1  0.25843499  0.37506982  0.50876832  1
  O  O261  1  0.25275245  0.86681561  0.00485348  1
  O  O262  1  0.26041187  0.88388891  0.51492414  1
  O  O263  1  0.75247112  0.36768948  0.00959209  1
  O  O264  1  0.76194631  0.36691211  0.44849160  1
  O  O265  1  0.75463169  0.86233222  -0.00447212  1
  O  O266  1  0.75469583  0.87698605  0.50936506  1
  O  O267  1  0.13598424  0.49220706  0.24179616  1
  O  O268  1  0.12245340  0.48786400  0.75081845  1
  O  O269  1  0.13092657  0.99598165  0.24586566  1
  O  O270  1  0.14008161  1.00178319  0.74974750  1
  O  O271  1  0.64428129  0.50385787  0.25669440  1
  O  O272  1  0.63561664  0.49030331  0.75662105  1
  O  O273  1  0.61846602  1.00387147  0.22521272  1
  O  O274  1  0.63186305  0.99555349  0.75137942  1
  O  O275  1  0.37256427  0.00497980  0.25405624  1
  O  O276  1  0.37290402  0.00759177  0.75794464  1
  O  O277  1  0.36021469  0.50231193  0.24331752  1
  O  O278  1  0.38221657  0.49915561  0.76578237  1
  O  O279  1  0.87596743  0.00860139  0.26305344  1
  O  O280  1  0.86083244  0.00919791  0.76001442  1
  O  O281  1  0.87524888  0.51130968  0.25861477  1
  O  O282  1  0.86919006  0.50163564  0.75673259  1
  O  O283  1  0.11602394  0.38171977  0.36690035  1
  O  O284  1  0.12097016  0.36812814  0.86886026  1
  O  O285  1  0.12096021  0.87001934  0.37401518  1
  O  O286  1  0.11047382  0.86282438  0.88184079  1
  O  O287  1  0.60744091  0.38019978  0.36978011  1
  O  O288  1  0.61798633  0.36944917  0.87149679  1
  O  O289  1  0.61545761  0.86430502  0.38068516  1
  O  O290  1  0.61519503  0.86374486  0.87178209  1
  O  O291  1  0.37120962  0.12385987  0.13665541  1
  O  O292  1  0.38014530  0.13394945  0.62972364  1
  O  O293  1  0.37979033  0.63283572  0.12604619  1
  O  O294  1  0.38498551  0.62741434  0.62600302  1
  O  O295  1  0.88237732  0.12813459  0.13762860  1
  O  O296  1  0.86454084  0.11315084  0.63873209  1
  O  O297  1  0.88292389  0.63286400  0.13865152  1
  O  O298  1  0.88280398  0.62810350  0.63109498  1
  O  O299  1  0.25319976  0.25768309  0.11538540  1
  O  O300  1  0.26442754  0.26098967  0.62440170  1
  O  O301  1  0.25325147  0.75345352  0.11833099  1
  O  O302  1  0.25772942  0.76610581  0.63975621  1
  O  O303  1  0.75326536  0.25662980  0.12029902  1
  O  O304  1  0.71974283  0.25325908  0.60152853  1
  O  O305  1  0.76719859  0.74323412  0.13019967  1
  O  O306  1  0.74776471  0.76000528  0.63708950  1
  O  O307  1  0.25728606  0.25080298  0.38137492  1
  O  O308  1  0.24353389  0.24534996  0.87844780  1
  O  O309  1  0.23952335  0.74279407  0.36772850  1
  O  O310  1  0.24011598  0.74638112  0.88174124  1
  O  O311  1  0.74441205  0.22458105  0.37240801  1
  O  O312  1  0.74363359  0.24650546  0.88700200  1
  O  O313  1  0.74587593  0.73704426  0.37288871  1
  O  O314  1  0.73804424  0.73797987  0.86938957  1
  O  O315  1  0.00593552  0.12184158  0.01002907  1
  O  O316  1  0.00957483  0.11511314  0.50557046  1
  O  O317  1  -0.00242861  0.60969605  -0.00099773  1
  O  O318  1  0.01099683  0.62117079  0.50546170  1
  O  O319  1  0.50835144  0.11616648  -0.00723636  1
  O  O320  1  0.48445495  0.10946849  0.51128329  1
  O  O321  1  0.49714867  0.61425952  0.00641604  1
  O  O322  1  0.50605623  0.61990169  0.50590155  1
  O  O323  1  0.49499661  0.38675950  0.49187177  1
  O  O324  1  0.49598600  0.38755078  0.99628936  1
  O  O325  1  0.49076195  0.88142735  0.49260937  1
  O  O326  1  0.49078153  0.88287439  0.99293323  1
  O  O327  1  1.01363989  0.39218292  0.48476568  1
  O  O328  1  1.00054929  0.38375701  0.98983891  1
  O  O329  1  0.98970871  0.86594075  0.48766241  1
  O  O330  1  0.98926983  0.87832007  0.99174545  1
  O  O331  1  0.49922537  0.49805356  0.38350302  1
  O  O332  1  0.49219180  0.49886369  0.88591140  1
  O  O333  1  0.49267993  0.99097432  0.38075363  1
  O  O334  1  0.49453231  0.99425790  0.88384155  1
  O  O335  1  0.99687749  0.50440669  0.38263498  1
  O  O336  1  0.99683664  0.49195686  0.88201727  1
  O  O337  1  0.99224778  0.98572370  0.36838127  1
  O  O338  1  0.98482303  0.98813887  0.87549789  1
  O  O339  1  0.00690498  0.01046347  0.12512504  1
  O  O340  1  0.00120248  -0.03486437  0.62992412  1
  O  O341  1  0.00830045  0.49990079  0.11854528  1
  O  O342  1  0.00231920  0.50822841  0.61571440  1
  O  O343  1  0.50478752  -0.00454140  0.10926552  1
  O  O344  1  0.49619018  0.00469717  0.61826205  1
  O  O345  1  0.49751266  0.51171774  0.10958078  1
  O  O346  1  0.49723425  0.51130712  0.61449665  1
  O  O347  1  0.24629239  0.38324066  0.24514951  1
  O  O348  1  0.24233830  0.37170750  0.74147969  1
  O  O349  1  0.24479805  0.87987294  0.24359369  1
  O  O350  1  0.25658025  0.88835455  0.74173025  1
  O  O351  1  0.75270764  0.38481034  0.24894893  1
  O  O352  1  0.74047130  0.38237550  0.75773451  1
  O  O353  1  0.73859673  0.88110613  0.25628064  1
  O  O354  1  0.74941113  0.88376554  0.74277819  1
  O  O355  1  0.25975130  0.11807882  0.25489383  1
  O  O356  1  0.25502363  0.11486041  0.75220294  1
  O  O357  1  0.25112572  0.61713587  0.25966108  1
  O  O358  1  0.24931511  0.63227336  0.76435306  1
  O  O359  1  0.75964196  0.11391417  0.25965930  1
  O  O360  1  0.74679475  0.11240957  0.75899620  1
  O  O361  1  0.76348445  0.61975759  0.25837812  1
  O  O362  1  0.75406095  0.61283122  0.75820977  1
  O  O363  1  0.38002267  0.10960184  0.36546809  1
  O  O364  1  0.36698501  0.12071336  0.86967729  1
  O  O365  1  0.36232596  0.63491075  0.37411358  1
  O  O366  1  0.36441681  0.61779988  0.87336144  1
  O  O367  1  0.87490481  0.11612994  0.37522436  1
  O  O368  1  0.86918733  0.11621950  0.86831364  1
  O  O369  1  0.87292816  0.62278231  0.36924371  1
  O  O370  1  0.86648711  0.61833099  0.86937241  1
  O  O371  1  0.13151727  0.38375873  0.13268164  1
  O  O372  1  0.13326866  0.37650417  0.63395588  1
  O  O373  1  0.12839580  0.88068613  0.13152172  1
  O  O374  1  0.14623948  0.86933856  0.62024086  1
  O  O375  1  0.64335704  0.37541447  0.12896553  1
  O  O376  1  0.61430834  0.37639000  0.63954069  1
  O  O377  1  0.61941375  0.88603327  0.12013202  1
  O  O378  1  0.62984215  0.87444330  0.62641536  1
  O  O379  1  0.13277348  0.26410310  0.24421416  1
  O  O380  1  0.13014283  0.25936256  0.76079212  1
  O  O381  1  0.11976739  0.75605834  0.25823270  1
  O  O382  1  0.10850958  0.74770211  0.76447230  1
  O  O383  1  0.61633486  0.25187948  0.25565622  1
  O  O384  1  0.62470407  0.25899351  0.75858634  1
  O  O385  1  0.62687748  0.74552556  0.26693053  1
  O  O386  1  0.60967845  0.74866926  0.76107795  1
  O  O387  1  0.38198125  0.24127787  0.24337580  1
  O  O388  1  0.38265911  0.24669415  0.74176571  1
  O  O389  1  0.36945467  0.74889398  0.23510042  1
  O  O390  1  0.38693318  0.74430576  0.75438646  1
  O  O391  1  0.86758625  0.23606835  0.26228477  1
  O  O392  1  0.84949885  0.22890832  0.74719849  1
  O  O393  1  0.88453907  0.74456912  0.24591372  1
  O  O394  1  0.88180224  0.73960575  0.75410274  1
  O  O395  1  0.38561798  0.48917470  0.50335641  1
  O  O396  1  0.38073942  0.49468708  0.98902516  1
  O  O397  1  0.38069970  0.98990162  0.49066473  1
  O  O398  1  0.37912749  0.99613466  0.99420683  1
  O  O399  1  0.88900518  0.50919510  0.48926254  1
  O  O400  1  0.88517658  0.49628389  0.99488367  1
  O  O401  1  0.87391853  0.98242028  0.48772975  1
  O  O402  1  0.87289911  1.00311345  0.98992085  1
  O  O403  1  0.12502018  0.00747718  0.00667758  1
  O  O404  1  0.12968469  0.01005627  0.50863797  1
  O  O405  1  0.11720970  0.49328682  0.01170070  1
  O  O406  1  0.11890179  0.51369877  0.50236801  1
  O  O407  1  0.61773180  0.00646828  0.00603485  1
  O  O408  1  0.60764895  -0.00600815  0.49870329  1
  O  O409  1  0.61168918  0.49924878  -0.00650822  1
  O  O410  1  0.61401208  0.51377402  0.49503009  1
  O  O411  1  0.36755140  0.37646021  0.11541296  1
  O  O412  1  0.37162415  0.37084720  0.62034089  1
  O  O413  1  0.36920114  0.86683175  0.11959238  1
  O  O414  1  0.36973984  0.87141286  0.61558103  1
  O  O415  1  0.86747631  0.37018800  0.12712290  1
  O  O416  1  0.88803222  0.35555305  0.61611942  1
  O  O417  1  0.88250542  0.86194808  0.13241057  1
  O  O418  1  0.86093509  0.86831030  0.61525318  1
  O  O419  1  0.12253377  0.11960964  0.39369495  1
  O  O420  1  0.13160161  0.13700600  0.88157186  1
  O  O421  1  0.13456565  0.63277275  0.38120095  1
  O  O422  1  0.13080852  0.63660937  0.87549795  1
  O  O423  1  0.63820115  0.10899629  0.36813857  1
  O  O424  1  0.62980259  0.13106897  0.88618832  1
  O  O425  1  0.63386901  0.63097973  0.38249720  1
  O  O426  1  0.63413784  0.63062956  0.87094677  1
