# generated using pymatgen
data_V85Zn86O256
_symmetry_space_group_name_H-M   'P 1'
_cell_length_a   16.94946082
_cell_length_b   16.95282739
_cell_length_c   16.94100850
_cell_angle_alpha   89.92717201
_cell_angle_beta   89.83412347
_cell_angle_gamma   89.97274738
_symmetry_Int_Tables_number   1
_chemical_formula_structural   V85Zn86O256
_chemical_formula_sum   'V85 Zn86 O256'
_cell_volume   4867.82625419
_cell_formula_units_Z   1
loop_
 _symmetry_equiv_pos_site_id
 _symmetry_equiv_pos_as_xyz
  1  'x, y, z'
loop_
 _atom_site_type_symbol
 _atom_site_label
 _atom_site_symmetry_multiplicity
 _atom_site_fract_x
 _atom_site_fract_y
 _atom_site_fract_z
 _atom_site_occupancy
  V  V0  1  0.50810081  0.38595512  0.36724825  1
  V  V1  1  -0.00036379  0.62121007  0.62487104  1
  V  V2  1  0.75470826  0.75754317  -0.00051014  1
  V  V3  1  0.49974292  0.25319731  0.75458378  1
  V  V4  1  -0.00056583  0.12406366  0.12393869  1
  V  V5  1  0.49798257  0.12966302  0.12785941  1
  V  V6  1  0.62524061  0.50152193  0.62427701  1
  V  V7  1  0.39276835  0.88084971  0.50232506  1
  V  V8  1  0.75007387  0.12854196  0.87660832  1
  V  V9  1  0.49780564  -0.00812102  -0.00327823  1
  V  V10  1  0.87063917  0.25056317  0.12143582  1
  V  V11  1  0.75022436  -0.00596636  0.25110085  1
  V  V12  1  0.25125583  0.37545591  0.62259585  1
  V  V13  1  0.75456623  0.50564870  0.25322929  1
  V  V14  1  0.63063202  0.13295958  0.00088872  1
  V  V15  1  0.00131726  0.12274282  0.62167089  1
  V  V16  1  0.62055718  0.37823354  0.75249420  1
  V  V17  1  0.25017621  0.00163238  0.75824548  1
  V  V18  1  0.62746607  0.25426023  0.87653432  1
  V  V19  1  0.87526643  0.12536993  0.74927917  1
  V  V20  1  0.25059103  0.75923285  0.00251406  1
  V  V21  1  0.61562911  0.75480924  0.88742387  1
  V  V22  1  0.87858361  0.00070936  0.37736471  1
  V  V23  1  0.87695080  0.12597874  0.25165039  1
  V  V24  1  -0.00166898  0.37340990  0.87372866  1
  V  V25  1  0.62628212  0.62695544  0.49766622  1
  V  V26  1  0.49948736  0.12146908  0.62016656  1
  V  V27  1  0.24314525  0.37449762  0.12957705  1
  V  V28  1  0.62920620  -0.00120119  0.12739006  1
  V  V29  1  -0.00343972  0.74531410  0.75191726  1
  V  V30  1  0.62404610  0.13286474  0.49826935  1
  V  V31  1  0.26657332  0.62404521  0.36917887  1
  V  V32  1  0.87436310  0.75345320  0.12870673  1
  V  V33  1  0.12814141  0.12147081  -0.00654964  1
  V  V34  1  0.75033717  0.50720148  0.74937338  1
  V  V35  1  -0.00137934  0.49782712  0.00034375  1
  V  V36  1  0.25639996  0.75758952  0.51322085  1
  V  V37  1  0.62377707  0.75639009  0.36645229  1
  V  V38  1  0.49277660  0.50219343  0.49606653  1
  V  V39  1  0.38059987  0.37352156  -0.00267347  1
  V  V40  1  0.86630239  0.37017294  -0.00201114  1
  V  V41  1  0.24970595  0.62099353  0.87884080  1
  V  V42  1  0.12499429  0.37309607  0.74891954  1
  V  V43  1  0.50373413  0.50558893  -0.00173110  1
  V  V44  1  0.12436919  0.61798279  0.00545007  1
  V  V45  1  0.13032120  0.87260125  0.74566862  1
  V  V46  1  0.25042423  0.49895591  0.75030233  1
  V  V47  1  0.25295487  0.24367187  -0.00441524  1
  V  V48  1  0.38045614  0.49586796  0.87415288  1
  V  V49  1  -0.00680167  0.87201632  0.87890816  1
  V  V50  1  0.25989351  0.49532440  0.25512134  1
  V  V51  1  0.87326230  0.74486689  0.63074857  1
  V  V52  1  0.12737957  0.24654819  0.87414950  1
  V  V53  1  0.62469986  0.50735322  0.12620748  1
  V  V54  1  0.74853351  0.75032876  0.50320800  1
  V  V55  1  0.87263877  0.50632909  0.87128272  1
  V  V56  1  0.74367177  0.37461024  0.13050671  1
  V  V57  1  -0.00819273  0.62248134  0.13319722  1
  V  V58  1  0.00926233  0.38145046  0.37301562  1
  V  V59  1  0.74697961  0.13430483  0.37652554  1
  V  V60  1  0.37558885  0.24951336  0.13557003  1
  V  V61  1  0.48594519  0.62503658  0.13106952  1
  V  V62  1  -0.00004388  0.24804186  0.74852020  1
  V  V63  1  0.87778650  0.38292413  0.49694363  1
  V  V64  1  0.25075787  0.00435438  0.24911067  1
  V  V65  1  0.24983535  0.24516286  0.49905218  1
  V  V66  1  0.87737647  0.87582282  0.50322165  1
  V  V67  1  0.13223028  -0.00423814  0.62327575  1
  V  V68  1  0.12652901  0.86970572  0.24535603  1
  V  V69  1  0.87236760  -0.00333818  0.87869350  1
  V  V70  1  0.74727483  -0.00099428  0.75071812  1
  V  V71  1  0.12313955  0.49934914  0.62316331  1
  V  V72  1  0.37170366  0.12243228  0.75929017  1
  V  V73  1  0.49256024  0.63012730  0.62671658  1
  V  V74  1  0.36568810  0.76593811  0.12711660  1
  V  V75  1  0.00828276  0.25439172  0.24980332  1
  V  V76  1  0.52048059  0.25636465  0.25448500  1
  V  V77  1  0.12502373  0.62047788  0.49932365  1
  V  V78  1  0.37540493  0.25079078  0.62446572  1
  V  V79  1  0.12675041  -0.00934937  0.12127232  1
  V  V80  1  0.74135862  0.62486710  0.88311728  1
  V  V81  1  0.12529623  0.74846010  0.37351797  1
  V  V82  1  0.62169600  0.00021502  0.62176224  1
  V  V83  1  -0.00499003  -0.00508771  -0.00068242  1
  V  V84  1  0.49442708  0.75744690  0.75012499  1
  Zn  Zn85  1  -0.01019461  0.74305567  0.25659354  1
  Zn  Zn86  1  0.74914446  0.25476932  0.50060875  1
  Zn  Zn87  1  0.88808471  0.51153852  0.37151308  1
  Zn  Zn88  1  0.76024077  0.63396399  0.36133576  1
  Zn  Zn89  1  0.37737569  -0.01193326  0.88112148  1
  Zn  Zn90  1  0.13149528  0.24849686  0.36964933  1
  Zn  Zn91  1  0.37086823  0.62942973  0.74635816  1
  Zn  Zn92  1  0.26124376  0.12855767  0.36507329  1
  Zn  Zn93  1  0.75980972  0.88004350  0.11895415  1
  Zn  Zn94  1  0.12325651  0.74793128  0.87638316  1
  Zn  Zn95  1  0.00150032  0.87336524  0.37501296  1
  Zn  Zn96  1  0.61751280  0.87844198  0.75550129  1
  Zn  Zn97  1  0.87359439  0.25037402  0.62047123  1
  Zn  Zn98  1  0.11736702  0.49003117  0.13782765  1
  Zn  Zn99  1  0.57155463  0.90807304  0.29686467  1
  Zn  Zn100  1  0.47634985  0.74921849  0.26265057  1
  Zn  Zn101  1  0.00504825  -0.00118261  0.49989988  1
  Zn  Zn102  1  0.12740741  0.12157833  0.49289685  1
  Zn  Zn103  1  0.75121556  0.37462279  0.62273802  1
  Zn  Zn104  1  0.74717017  0.87421854  0.63002091  1
  Zn  Zn105  1  0.37473094  0.37716060  0.49385191  1
  Zn  Zn106  1  0.39225807  -0.00106731  0.37828344  1
  Zn  Zn107  1  0.18625028  0.18450019  0.17917894  1
  Zn  Zn108  1  0.18878515  0.18396792  0.68450181  1
  Zn  Zn109  1  0.18875004  0.68218137  0.18866953  1
  Zn  Zn110  1  0.18525069  0.68614978  0.69031518  1
  Zn  Zn111  1  0.69172652  0.18481153  0.18966480  1
  Zn  Zn112  1  0.68867320  0.18988330  0.68566655  1
  Zn  Zn113  1  0.68620384  0.68380486  0.17792574  1
  Zn  Zn114  1  0.67983617  0.68814640  0.69293526  1
  Zn  Zn115  1  0.32069109  0.31809648  0.31844034  1
  Zn  Zn116  1  0.31290857  0.31253884  0.81195810  1
  Zn  Zn117  1  0.30932583  0.81996218  0.31698086  1
  Zn  Zn118  1  0.31480975  0.81592356  0.81761614  1
  Zn  Zn119  1  0.81793529  0.31825049  0.31049096  1
  Zn  Zn120  1  0.80986574  0.31499283  0.80724383  1
  Zn  Zn121  1  0.81270309  0.81158653  0.31335179  1
  Zn  Zn122  1  0.80913278  0.81134426  0.81455870  1
  Zn  Zn123  1  0.19046565  0.43739636  0.43554080  1
  Zn  Zn124  1  0.18886009  0.43263505  0.94021581  1
  Zn  Zn125  1  0.19246533  0.93614652  0.43397888  1
  Zn  Zn126  1  0.18272884  0.93518388  0.93082091  1
  Zn  Zn127  1  0.68469258  0.43408828  0.43503107  1
  Zn  Zn128  1  0.68490033  0.43631986  0.93855462  1
  Zn  Zn129  1  0.69095940  0.94129983  0.44244784  1
  Zn  Zn130  1  0.68013882  0.93762277  0.93955531  1
  Zn  Zn131  1  0.31510793  0.05959777  0.06857277  1
  Zn  Zn132  1  0.31625537  0.05890350  0.56344474  1
  Zn  Zn133  1  0.31151289  0.55765449  0.06383429  1
  Zn  Zn134  1  0.30973479  0.56645111  0.56034040  1
  Zn  Zn135  1  0.81330006  0.06505571  0.06129324  1
  Zn  Zn136  1  0.80975907  0.06474601  0.56282677  1
  Zn  Zn137  1  0.81167192  0.56340013  0.06116230  1
  Zn  Zn138  1  0.81367955  0.56274870  0.55941992  1
  Zn  Zn139  1  0.43527184  0.43629610  0.18635104  1
  Zn  Zn140  1  0.43749342  0.44002020  0.68440670  1
  Zn  Zn141  1  0.44634594  0.94428130  0.20317874  1
  Zn  Zn142  1  0.42961233  0.93514354  0.68273290  1
  Zn  Zn143  1  0.93391252  0.43633277  0.18881633  1
  Zn  Zn144  1  0.93596414  0.43715660  0.68687570  1
  Zn  Zn145  1  0.94100930  0.93285403  0.18971694  1
  Zn  Zn146  1  0.93922487  0.93583647  0.68975003  1
  Zn  Zn147  1  0.06894809  0.06601382  0.31199228  1
  Zn  Zn148  1  0.06085002  0.05856591  0.81098295  1
  Zn  Zn149  1  0.07447634  0.56012419  0.30981486  1
  Zn  Zn150  1  0.06274665  0.56092526  0.81231704  1
  Zn  Zn151  1  0.55931373  0.07432080  0.31223660  1
  Zn  Zn152  1  0.56079632  0.06658686  0.81300125  1
  Zn  Zn153  1  0.56939953  0.56708637  0.30699806  1
  Zn  Zn154  1  0.56194172  0.56892570  0.81276176  1
  Zn  Zn155  1  0.43372360  0.18640965  0.43158898  1
  Zn  Zn156  1  0.44097900  0.18340587  0.93973230  1
  Zn  Zn157  1  0.43994885  0.69638455  0.44195114  1
  Zn  Zn158  1  0.43457882  0.68931468  0.94191265  1
  Zn  Zn159  1  0.93765746  0.19351882  0.43772852  1
  Zn  Zn160  1  0.93860159  0.18439311  0.93696591  1
  Zn  Zn161  1  0.93830037  0.68526618  0.44164020  1
  Zn  Zn162  1  0.93406294  0.68576860  0.94257503  1
  Zn  Zn163  1  0.05989548  0.30955619  0.05915980  1
  Zn  Zn164  1  0.06200437  0.31172155  0.55825923  1
  Zn  Zn165  1  0.06047865  0.80534579  0.06194557  1
  Zn  Zn166  1  0.06435383  0.80885546  0.56164772  1
  Zn  Zn167  1  0.56292167  0.31679656  0.06243594  1
  Zn  Zn168  1  0.56138502  0.31506548  0.56243141  1
  Zn  Zn169  1  0.54515196  0.82729310  0.10183757  1
  Zn  Zn170  1  0.56101766  0.81592270  0.56559514  1
  O  O171  1  0.11725093  0.11563467  0.11153438  1
  O  O172  1  0.11601709  0.11388880  0.62545086  1
  O  O173  1  0.11665355  0.62129559  0.11565811  1
  O  O174  1  0.11957267  0.61973720  0.61889158  1
  O  O175  1  0.62198598  0.12274257  0.11852720  1
  O  O176  1  0.61837437  0.11977915  0.62046290  1
  O  O177  1  0.61160178  0.61509840  0.12068706  1
  O  O178  1  0.61570570  0.62189453  0.61682988  1
  O  O179  1  0.39898793  0.37128434  0.38066571  1
  O  O180  1  0.36943240  0.38481333  0.88429913  1
  O  O181  1  0.36901245  0.87999324  0.38996294  1
  O  O182  1  0.37315295  0.87769009  0.88520608  1
  O  O183  1  0.88444801  0.38092923  0.38277765  1
  O  O184  1  0.87697971  0.38030972  0.88102332  1
  O  O185  1  0.87486127  0.88300905  0.38517590  1
  O  O186  1  0.88558979  0.88004374  0.86822251  1
  O  O187  1  0.24814933  -0.00104996  0.35472974  1
  O  O188  1  0.24835146  0.00031653  0.86205164  1
  O  O189  1  0.25207539  0.51066805  0.36771394  1
  O  O190  1  0.25675792  0.50322158  0.87173603  1
  O  O191  1  0.75985250  0.00782059  0.37027658  1
  O  O192  1  0.75084364  0.00674821  0.86916416  1
  O  O193  1  0.74093274  0.49914220  0.35693890  1
  O  O194  1  0.75256843  0.50632666  0.87117148  1
  O  O195  1  0.24958564  0.48951945  0.13372486  1
  O  O196  1  0.24469990  0.49661193  0.63008507  1
  O  O197  1  0.23139575  1.00194957  0.12517651  1
  O  O198  1  0.23778365  1.00330546  0.63628454  1
  O  O199  1  0.74430180  0.49558553  0.12956944  1
  O  O200  1  0.74431629  0.50250788  0.63398587  1
  O  O201  1  0.74693711  1.00547724  0.13420281  1
  O  O202  1  0.74145297  1.00208035  0.63562822  1
  O  O203  1  -0.00753122  0.36653755  0.26148814  1
  O  O204  1  0.00535153  0.36902520  0.75431736  1
  O  O205  1  0.01146383  0.86795691  0.25563963  1
  O  O206  1  0.00602818  0.86444385  0.75760574  1
  O  O207  1  0.50083658  0.36929195  0.25690031  1
  O  O208  1  0.50909278  0.36649525  0.74403830  1
  O  O209  1  0.51329255  0.85019732  0.21608756  1
  O  O210  1  0.49682637  0.86099173  0.74590736  1
  O  O211  1  0.50829002  0.14578325  0.23652694  1
  O  O212  1  0.49454550  0.13423987  0.74140325  1
  O  O213  1  0.50446086  0.63396006  0.23468897  1
  O  O214  1  0.49798889  0.63268379  0.74115612  1
  O  O215  1  0.99548538  0.13194136  0.24397015  1
  O  O216  1  0.99553284  0.12786854  0.74275006  1
  O  O217  1  1.00833872  0.62333383  0.23677973  1
  O  O218  1  1.00754351  0.63663277  0.74171249  1
  O  O219  1  0.37117131  0.25500808  0.00383193  1
  O  O220  1  0.36862541  0.25113835  0.50839981  1
  O  O221  1  0.35652277  0.74258007  0.00833809  1
  O  O222  1  0.36202650  0.76071625  0.49529106  1
  O  O223  1  0.88153727  0.25775501  0.00914198  1
  O  O224  1  0.87160769  0.26414750  0.49946202  1
  O  O225  1  0.86447700  0.74692817  0.00953930  1
  O  O226  1  0.86734868  0.75750862  0.50991279  1
  O  O227  1  0.13863245  0.24817068  0.49998989  1
  O  O228  1  0.13199653  0.24045084  0.99560305  1
  O  O229  1  0.13501543  0.74111664  0.49420075  1
  O  O230  1  0.13406753  0.73552976  1.00021450  1
  O  O231  1  0.62787236  0.23726210  0.50666611  1
  O  O232  1  0.61671024  0.24497418  0.98896780  1
  O  O233  1  0.63144495  0.74539021  0.49636006  1
  O  O234  1  0.63146346  0.75054631  0.98800991  1
  O  O235  1  0.49552562  0.25117378  0.13314799  1
  O  O236  1  0.49631259  0.24328234  0.63519052  1
  O  O237  1  0.47828546  0.73378460  0.11010546  1
  O  O238  1  0.50798379  0.74216157  0.64023294  1
  O  O239  1  0.99093051  0.24646734  0.12952441  1
  O  O240  1  1.00127513  0.23913329  0.63064701  1
  O  O241  1  0.99048847  0.73941982  0.12579888  1
  O  O242  1  0.99357248  0.74294939  0.63286174  1
  O  O243  1  0.00210218  0.25863512  0.36458657  1
  O  O244  1  0.00634599  0.25388847  0.86941598  1
  O  O245  1  0.01318966  0.74715611  0.37613003  1
  O  O246  1  -0.00285230  0.75263948  0.86858776  1
  O  O247  1  0.50152140  0.25311314  0.35705563  1
  O  O248  1  0.50988885  0.24389855  0.86254495  1
  O  O249  1  0.51805889  0.74546641  0.37178631  1
  O  O250  1  0.51020262  0.73974847  0.86931423  1
  O  O251  1  0.25088908  0.13749664  0.50658275  1
  O  O252  1  0.24157843  0.13390527  1.00794719  1
  O  O253  1  0.24525184  0.63277752  0.48863210  1
  O  O254  1  0.24085441  0.62195366  0.99498917  1
  O  O255  1  0.74355836  0.12800352  0.49193618  1
  O  O256  1  0.73835971  0.12409181  0.99461377  1
  O  O257  1  0.73891970  0.63583632  0.50616553  1
  O  O258  1  0.75081316  0.63407378  0.98969174  1
  O  O259  1  0.25959089  0.36547743  0.00795255  1
  O  O260  1  0.25343386  0.36807393  0.50523965  1
  O  O261  1  0.23709448  0.85703364  -0.00377129  1
  O  O262  1  0.24290748  0.85777943  0.50155178  1
  O  O263  1  0.76102188  0.37885293  0.00779247  1
  O  O264  1  0.76157195  0.37502805  0.49764147  1
  O  O265  1  0.74784964  0.86288227  -0.00218602  1
  O  O266  1  0.75910264  0.86680699  0.50582578  1
  O  O267  1  0.14747131  0.50120799  0.24724374  1
  O  O268  1  0.13091865  0.49266643  0.74528434  1
  O  O269  1  0.12692989  0.99110778  0.23910441  1
  O  O270  1  0.13045565  0.99267863  0.74463267  1
  O  O271  1  0.63409251  0.49982945  0.23513724  1
  O  O272  1  0.62839660  0.49526735  0.74719915  1
  O  O273  1  0.63592519  1.00418739  0.24309036  1
  O  O274  1  0.63220784  1.00260814  0.74441696  1
  O  O275  1  0.34717885  -0.00926198  0.22609568  1
  O  O276  1  0.36607363  0.00579741  0.74922423  1
  O  O277  1  0.36059114  0.49997416  0.24559318  1
  O  O278  1  0.36984615  0.50089148  0.75884981  1
  O  O279  1  0.87185645  0.00553189  0.25821437  1
  O  O280  1  0.86653320  0.00478280  0.75609964  1
  O  O281  1  0.85954583  0.49814249  0.25147403  1
  O  O282  1  0.86311397  0.49097789  0.76110745  1
  O  O283  1  0.11227344  0.37069688  0.38054192  1
  O  O284  1  0.11916108  0.36821352  0.86991887  1
  O  O285  1  0.12465904  0.86302995  0.36843905  1
  O  O286  1  0.11204547  0.87074134  0.86285416  1
  O  O287  1  0.60704094  0.36932779  0.38188170  1
  O  O288  1  0.62803534  0.36742988  0.86447282  1
  O  O289  1  0.63255435  0.86257643  0.38055842  1
  O  O290  1  0.62587902  0.85954499  0.87325045  1
  O  O291  1  0.38863846  0.13721772  0.11805549  1
  O  O292  1  0.38402559  0.12928059  0.63422288  1
  O  O293  1  0.38393989  0.61932938  0.12833448  1
  O  O294  1  0.38798787  0.62267645  0.62511726  1
  O  O295  1  0.87962061  0.13298466  0.12928676  1
  O  O296  1  0.88537693  0.12313150  0.63053211  1
  O  O297  1  0.88493258  0.63175152  0.11859364  1
  O  O298  1  0.88499202  0.63601494  0.61668968  1
  O  O299  1  0.25763248  0.25414546  0.11667791  1
  O  O300  1  0.25540327  0.25629780  0.61990134  1
  O  O301  1  0.25535463  0.74263723  0.11348241  1
  O  O302  1  0.24865797  0.73899938  0.61166537  1
  O  O303  1  0.76311208  0.25721514  0.13244103  1
  O  O304  1  0.75550969  0.25604482  0.62366840  1
  O  O305  1  0.75578305  0.75113580  0.11619141  1
  O  O306  1  0.75551304  0.74944174  0.62211470  1
  O  O307  1  0.25307419  0.25194747  0.38475600  1
  O  O308  1  0.24480933  0.25496366  0.88782429  1
  O  O309  1  0.24170045  0.73790230  0.37893695  1
  O  O310  1  0.24826370  0.73677764  0.88709063  1
  O  O311  1  0.75631136  0.23615092  0.36906169  1
  O  O312  1  0.73691157  0.24434431  0.86604887  1
  O  O313  1  0.74405011  0.75065203  0.38853912  1
  O  O314  1  0.74304114  0.74286352  0.87974908  1
  O  O315  1  0.00795935  0.11753231  0.00410580  1
  O  O316  1  0.00133242  0.12348756  0.51031467  1
  O  O317  1  0.00693992  0.61771190  0.00637829  1
  O  O318  1  0.01415433  0.63288821  0.51367782  1
  O  O319  1  0.51284852  0.12388358  0.01131976  1
  O  O320  1  0.50704403  0.13240723  0.51294689  1
  O  O321  1  0.49132068  0.61135479  0.01072264  1
  O  O322  1  0.50805881  0.62351589  0.50523490  1
  O  O323  1  0.50159886  0.38782240  0.49395336  1
  O  O324  1  0.48650528  0.38550571  1.00751781  1
  O  O325  1  0.49324620  0.87114618  0.49449437  1
  O  O326  1  0.50935405  0.89446466  1.01308381  1
  O  O327  1  0.99023416  0.37051135  0.48545692  1
  O  O328  1  0.98976084  0.37794975  0.99340463  1
  O  O329  1  0.98851874  0.87431327  0.49861203  1
  O  O330  1  1.00845303  0.87757418  0.98609344  1
  O  O331  1  0.50889861  0.49397912  0.37825853  1
  O  O332  1  0.48900137  0.50903249  0.88207371  1
  O  O333  1  0.48895172  0.98689589  0.31471397  1
  O  O334  1  0.50708115  1.00387131  0.89292565  1
  O  O335  1  1.00437233  0.48551383  0.36559026  1
  O  O336  1  0.99068727  0.49424172  0.87712359  1
  O  O337  1  0.98820320  1.00141511  0.37655919  1
  O  O338  1  0.99326398  0.99060076  0.87802928  1
  O  O339  1  0.00597742  0.00386499  0.11956292  1
  O  O340  1  0.00875373  0.00756878  0.62640129  1
  O  O341  1  -0.00129412  0.50381782  0.11963940  1
  O  O342  1  0.00616294  0.51317628  0.63510342  1
  O  O343  1  0.51050158  0.01355400  0.12276809  1
  O  O344  1  0.50964423  0.01205068  0.63590471  1
  O  O345  1  0.50371093  0.50758426  0.12128573  1
  O  O346  1  0.50606715  0.50919561  0.61658087  1
  O  O347  1  0.25597611  0.38359478  0.24386743  1
  O  O348  1  0.24413858  0.37882905  0.74373566  1
  O  O349  1  0.23199954  0.88265434  0.25025296  1
  O  O350  1  0.23652815  0.87957720  0.75430336  1
  O  O351  1  0.75469269  0.38498704  0.23737644  1
  O  O352  1  0.73840618  0.38831478  0.74876148  1
  O  O353  1  0.75607141  0.89141039  0.24969291  1
  O  O354  1  0.74805738  0.88897616  0.75107459  1
  O  O355  1  0.24172505  0.10896045  0.24298611  1
  O  O356  1  0.26130431  0.11746890  0.74565221  1
  O  O357  1  0.25111055  0.61742933  0.26322595  1
  O  O358  1  0.24905305  0.61899274  0.76158588  1
  O  O359  1  0.75653612  0.11582145  0.25818920  1
  O  O360  1  0.75385591  0.11658787  0.75551200  1
  O  O361  1  0.74637026  0.61032137  0.24522358  1
  O  O362  1  0.74386355  0.61314369  0.75974354  1
  O  O363  1  0.37370647  0.11202347  0.37535491  1
  O  O364  1  0.38481881  0.11728544  0.86208309  1
  O  O365  1  0.36474392  0.63300898  0.37789846  1
  O  O366  1  0.36280815  0.61335885  0.87856318  1
  O  O367  1  0.86864094  0.11768958  0.37304084  1
  O  O368  1  0.86993393  0.11903642  0.86948819  1
  O  O369  1  0.86778276  0.61995887  0.38912018  1
  O  O370  1  0.86612094  0.61141842  0.87926464  1
  O  O371  1  0.13878460  0.37211549  0.11576702  1
  O  O372  1  0.12868434  0.38029441  0.62906194  1
  O  O373  1  0.11463450  0.88106853  0.13068482  1
  O  O374  1  0.11375407  0.88337722  0.63601717  1
  O  O375  1  0.63762937  0.38448320  0.11664989  1
  O  O376  1  0.62600334  0.38343519  0.63438407  1
  O  O377  1  0.63759223  0.89609046  0.11788353  1
  O  O378  1  0.62625838  0.88731081  0.62963630  1
  O  O379  1  0.11181731  0.24660488  0.24377479  1
  O  O380  1  0.12152555  0.25324389  0.75426603  1
  O  O381  1  0.12678634  0.75296113  0.25772073  1
  O  O382  1  0.11572131  0.75615223  0.75141298  1
  O  O383  1  0.61930386  0.25627841  0.24444476  1
  O  O384  1  0.61789024  0.25756444  0.75529467  1
  O  O385  1  0.63992385  0.74551004  0.26773933  1
  O  O386  1  0.61349896  0.75295468  0.76180558  1
  O  O387  1  0.37932775  0.25556344  0.23691472  1
  O  O388  1  0.38101334  0.24362835  0.74726634  1
  O  O389  1  0.36329549  0.75507632  0.23382486  1
  O  O390  1  0.39030062  0.74524742  0.76129013  1
  O  O391  1  0.88463083  0.24569447  0.24049808  1
  O  O392  1  0.88252266  0.24394913  0.74923101  1
  O  O393  1  0.87210261  0.74856422  0.23809575  1
  O  O394  1  0.88264004  0.75469095  0.74058754  1
  O  O395  1  0.38966766  0.50355353  0.50180499  1
  O  O396  1  0.37981945  0.49120943  0.99324593  1
  O  O397  1  0.37323447  0.98691842  0.49798795  1
  O  O398  1  0.39405242  1.01085037  1.00278066  1
  O  O399  1  0.87280602  0.48707686  0.49677080  1
  O  O400  1  0.87810456  0.49005567  0.99083046  1
  O  O401  1  0.87295952  0.99148214  0.49445097  1
  O  O402  1  0.88238946  1.00592842  0.99197484  1
  O  O403  1  0.11813594  0.00373447  0.00241684  1
  O  O404  1  0.12584132  -0.00187888  0.50919534  1
  O  O405  1  0.11802882  0.50423673  0.00102731  1
  O  O406  1  0.13376577  0.51273444  0.50587476  1
  O  O407  1  0.61924189  0.01408525  0.00773965  1
  O  O408  1  0.63221518  0.01184022  0.51428132  1
  O  O409  1  0.61189674  0.49318730  0.00659862  1
  O  O410  1  0.61872765  0.51118798  0.50296519  1
  O  O411  1  0.36613184  0.36720193  0.11612529  1
  O  O412  1  0.36903524  0.36911913  0.62348674  1
  O  O413  1  0.37494366  0.86162612  0.11754723  1
  O  O414  1  0.37692055  0.87432124  0.60423493  1
  O  O415  1  0.86795450  0.36863128  0.11640498  1
  O  O416  1  0.87824448  0.37544359  0.60977786  1
  O  O417  1  0.87704644  0.86220223  0.12528746  1
  O  O418  1  0.87428327  0.86576209  0.61909991  1
  O  O419  1  0.13704693  0.12946387  0.37673371  1
  O  O420  1  0.11862338  0.12758265  0.88660139  1
  O  O421  1  0.13161065  0.63086176  0.38369226  1
  O  O422  1  0.13277032  0.62195561  0.88514167  1
  O  O423  1  0.63381617  0.11597548  0.38677687  1
  O  O424  1  0.62966774  0.13449839  0.88199528  1
  O  O425  1  0.63164795  0.63534626  0.38505876  1
  O  O426  1  0.63387955  0.63625415  0.87335646  1
