# generated using pymatgen
data_V85Zn86O256
_symmetry_space_group_name_H-M   'P 1'
_cell_length_a   16.97655171
_cell_length_b   16.98166205
_cell_length_c   16.96267345
_cell_angle_alpha   89.93937923
_cell_angle_beta   89.92991682
_cell_angle_gamma   89.97619802
_symmetry_Int_Tables_number   1
_chemical_formula_structural   V85Zn86O256
_chemical_formula_sum   'V85 Zn86 O256'
_cell_volume   4890.16339713
_cell_formula_units_Z   1
loop_
 _symmetry_equiv_pos_site_id
 _symmetry_equiv_pos_as_xyz
  1  'x, y, z'
loop_
 _atom_site_type_symbol
 _atom_site_label
 _atom_site_symmetry_multiplicity
 _atom_site_fract_x
 _atom_site_fract_y
 _atom_site_fract_z
 _atom_site_occupancy
  V  V0  1  0.24837412  0.12739235  0.87397299  1
  V  V1  1  0.37515636  0.37419393  0.00100877  1
  V  V2  1  0.75035564  0.12575460  0.37367973  1
  V  V3  1  0.63226085  -0.00206642  0.62474493  1
  V  V4  1  0.49704519  0.62524215  0.62499956  1
  V  V5  1  0.49911902  0.12958582  0.62398834  1
  V  V6  1  0.12576851  0.75612458  0.36957247  1
  V  V7  1  0.74826726  0.37321319  0.11286231  1
  V  V8  1  0.63710250  0.24544142  0.88127393  1
  V  V9  1  0.37938598  0.62228005  0.25158919  1
  V  V10  1  0.74865808  0.62481743  0.87333459  1
  V  V11  1  0.00156418  0.26627010  0.75105112  1
  V  V12  1  -0.00549751  0.88108227  0.36639012  1
  V  V13  1  0.50238590  0.00224637  0.00028732  1
  V  V14  1  0.61997337  0.62385156  0.00241402  1
  V  V15  1  0.87276849  0.62513158  0.25081258  1
  V  V16  1  0.87162106  0.25358845  0.12214565  1
  V  V17  1  0.75197133  0.62355260  0.37541116  1
  V  V18  1  0.50184645  0.74796975  0.24384180  1
  V  V19  1  0.64018473  -0.00379398  0.12666754  1
  V  V20  1  0.62582676  0.49369284  0.62647774  1
  V  V21  1  0.12416249  0.12692258  -0.00246453  1
  V  V22  1  0.75011177  0.49511680  0.74606477  1
  V  V23  1  0.49344506  0.50171496  0.49553394  1
  V  V24  1  0.36998013  0.75528769  0.62641344  1
  V  V25  1  0.37369233  0.49794180  0.87477073  1
  V  V26  1  0.61991605  0.50116550  0.12474305  1
  V  V27  1  0.25380723  0.49811109  0.25555425  1
  V  V28  1  0.00079230  0.12638006  0.12348342  1
  V  V29  1  0.50501033  0.24813211  0.25483807  1
  V  V30  1  0.49894961  0.50117011  0.00091170  1
  V  V31  1  0.37397489  0.37534370  0.49855455  1
  V  V32  1  0.88716847  0.49887358  0.87897265  1
  V  V33  1  0.88091730  0.63471856  0.73892860  1
  V  V34  1  0.12216806  0.12368140  0.50209954  1
  V  V35  1  0.25565584  0.24879363  0.50479469  1
  V  V36  1  0.89203787  0.38258366  0.00053214  1
  V  V37  1  0.36897425  0.87575082  0.50368993  1
  V  V38  1  0.12734438  0.37496721  0.24790955  1
  V  V39  1  0.11935129  0.61459061  0.00754213  1
  V  V40  1  0.49958676  0.37526256  0.37448000  1
  V  V41  1  -0.00047608  0.25112846  0.25052208  1
  V  V42  1  0.37643620  0.24908062  0.12437655  1
  V  V43  1  0.75640317  0.75079796  0.50442365  1
  V  V44  1  0.50456406  0.12419033  0.12364930  1
  V  V45  1  0.11729550  0.26086677  0.87198928  1
  V  V46  1  0.24565128  0.75264186  0.00096458  1
  V  V47  1  0.12095419  0.49845973  0.62320403  1
  V  V48  1  0.62326959  0.62639510  0.50026216  1
  V  V49  1  0.75353255  0.75185942  0.00619103  1
  V  V50  1  0.37795682  0.74702039  0.12319119  1
  V  V51  1  0.24396189  0.49267150  0.75014817  1
  V  V52  1  0.11939363  0.62448468  0.49451710  1
  V  V53  1  -0.00183379  -0.00626685  -0.01187197  1
  V  V54  1  0.37662713  -0.00035135  0.37465308  1
  V  V55  1  0.00058289  0.86686096  0.86098881  1
  V  V56  1  0.85892808  0.36995115  0.50344010  1
  V  V57  1  0.62418140  0.87424935  0.75243149  1
  V  V58  1  0.12783020  -0.00801948  0.12799796  1
  V  V59  1  0.76101164  0.00920832  0.76561387  1
  V  V60  1  0.24887240  0.37926136  0.12653248  1
  V  V61  1  0.24484179  -0.00456110  0.74313951  1
  V  V62  1  0.12561673  0.24987739  0.37501207  1
  V  V63  1  0.24823887  0.62373283  0.87691290  1
  V  V64  1  0.62790741  0.37066119  0.25236722  1
  V  V65  1  0.62388793  0.75217547  0.37421105  1
  V  V66  1  0.37504668  0.62380509  0.74943924  1
  V  V67  1  -0.00030238  0.49881757  0.49800238  1
  V  V68  1  0.24946274  0.37197198  0.62531126  1
  V  V69  1  -0.00359240  0.12576630  0.63250256  1
  V  V70  1  0.49830253  0.25129535  0.75011654  1
  V  V71  1  0.87198036  0.11141552  0.25498557  1
  V  V72  1  0.86202901  0.25116360  0.62843019  1
  V  V73  1  0.50029066  0.37394436  0.87375887  1
  V  V74  1  0.63968153  0.87624076  0.24605585  1
  V  V75  1  0.37556887  0.12845411  0.74618535  1
  V  V76  1  -0.00026144  0.37319350  0.37635927  1
  V  V77  1  0.25178192  0.12447868  0.37433646  1
  V  V78  1  0.37700876  0.12155351  0.25007636  1
  V  V79  1  0.37739168  0.00061666  0.87623363  1
  V  V80  1  0.25361769  0.62303179  0.37723321  1
  V  V81  1  0.50406453  -0.00227071  0.49895747  1
  V  V82  1  0.00055206  0.74791972  0.25054366  1
  V  V83  1  0.87241072  0.88601056  0.50140660  1
  V  V84  1  0.63080799  0.14002100  0.49397294  1
  Zn  Zn85  1  0.75930719  0.86781369  0.63548325  1
  Zn  Zn86  1  0.63360154  0.36950211  0.74782399  1
  Zn  Zn87  1  0.64801788  0.12575140  -0.00379720  1
  Zn  Zn88  1  0.24865732  0.25223576  -0.00124345  1
  Zn  Zn89  1  0.12843748  0.75298549  0.86523257  1
  Zn  Zn90  1  0.74816057  0.49881457  0.25118472  1
  Zn  Zn91  1  0.01442843  0.74965539  0.72643440  1
  Zn  Zn92  1  0.50156021  0.87565519  0.37108200  1
  Zn  Zn93  1  0.18212923  0.83375306  0.68620067  1
  Zn  Zn94  1  0.24858830  0.86999687  0.13576201  1
  Zn  Zn95  1  0.24528479  0.75369147  0.50349054  1
  Zn  Zn96  1  0.86700601  0.88236442  -0.00177685  1
  Zn  Zn97  1  0.62118396  0.74978987  0.87531940  1
  Zn  Zn98  1  0.87043435  0.49527634  0.37598953  1
  Zn  Zn99  1  0.49985411  0.87205788  0.87642711  1
  Zn  Zn100  1  0.87183374  0.75665789  0.12980416  1
  Zn  Zn101  1  -0.00865322  0.00785094  0.49345697  1
  Zn  Zn102  1  0.24630786  -0.00753588  0.25439371  1
  Zn  Zn103  1  0.50046299  0.75046536  0.75220068  1
  Zn  Zn104  1  -0.00557389  0.61243526  0.11615187  1
  Zn  Zn105  1  0.37330581  0.87652111  0.00274885  1
  Zn  Zn106  1  0.11790461  -0.00576267  0.62571915  1
  Zn  Zn107  1  0.19027303  0.18650979  0.18680957  1
  Zn  Zn108  1  0.18281360  0.18666082  0.68886433  1
  Zn  Zn109  1  0.18915138  0.68540270  0.18775946  1
  Zn  Zn110  1  0.18837659  0.67192314  0.68427061  1
  Zn  Zn111  1  0.69137199  0.18541914  0.18702343  1
  Zn  Zn112  1  0.68368939  0.18311718  0.69257684  1
  Zn  Zn113  1  0.68609528  0.68684519  0.18689728  1
  Zn  Zn114  1  0.68741109  0.68518955  0.68698024  1
  Zn  Zn115  1  0.31685062  0.30968739  0.31446656  1
  Zn  Zn116  1  0.31005584  0.31106852  0.81397924  1
  Zn  Zn117  1  0.31345225  0.81444611  0.31373693  1
  Zn  Zn118  1  0.31656492  0.81221377  0.81713874  1
  Zn  Zn119  1  0.80993570  0.30662607  0.31421245  1
  Zn  Zn120  1  0.82000442  0.31442895  0.81354133  1
  Zn  Zn121  1  0.81659093  0.80957062  0.31919541  1
  Zn  Zn122  1  0.81375750  0.81841567  0.81828920  1
  Zn  Zn123  1  0.18829448  0.43863765  0.43380238  1
  Zn  Zn124  1  0.18493072  0.43744227  0.94105478  1
  Zn  Zn125  1  0.18586023  0.93783763  0.43739376  1
  Zn  Zn126  1  0.18464070  0.93450298  0.93275491  1
  Zn  Zn127  1  0.68055567  0.43731945  0.43662823  1
  Zn  Zn128  1  0.68809182  0.43687333  0.93243975  1
  Zn  Zn129  1  0.69169548  0.94067666  0.42995076  1
  Zn  Zn130  1  0.68596773  0.93762391  0.93671551  1
  Zn  Zn131  1  0.31191895  0.06505871  0.06248185  1
  Zn  Zn132  1  0.31394424  0.06255221  0.56186566  1
  Zn  Zn133  1  0.31048232  0.56431480  0.06501848  1
  Zn  Zn134  1  0.31044941  0.56261598  0.56287587  1
  Zn  Zn135  1  0.82210301  0.06113718  0.06698393  1
  Zn  Zn136  1  0.81012506  0.06696252  0.56513243  1
  Zn  Zn137  1  0.80887081  0.56288813  0.06452243  1
  Zn  Zn138  1  0.80912022  0.55768373  0.56113832  1
  Zn  Zn139  1  0.43651570  0.43762809  0.18794855  1
  Zn  Zn140  1  0.43410024  0.43609502  0.68442890  1
  Zn  Zn141  1  0.44146622  0.93362774  0.18564306  1
  Zn  Zn142  1  0.43932322  0.93979385  0.68726243  1
  Zn  Zn143  1  0.93482164  0.44051713  0.18665997  1
  Zn  Zn144  1  0.93343038  0.43961515  0.68554395  1
  Zn  Zn145  1  0.93864735  0.93294736  0.17734269  1
  Zn  Zn146  1  0.93694886  0.93952000  0.68306580  1
  Zn  Zn147  1  0.06190260  0.06559566  0.31087353  1
  Zn  Zn148  1  0.06135988  0.06627403  0.81148523  1
  Zn  Zn149  1  0.04627191  0.54344943  0.28156247  1
  Zn  Zn150  1  0.06435539  0.56801439  0.81235765  1
  Zn  Zn151  1  0.56854333  0.06060011  0.31213184  1
  Zn  Zn152  1  0.56891496  0.06356501  0.81287683  1
  Zn  Zn153  1  0.56275425  0.56203444  0.31274275  1
  Zn  Zn154  1  0.56206011  0.56164000  0.81221411  1
  Zn  Zn155  1  0.43948951  0.18757561  0.43707729  1
  Zn  Zn156  1  0.44161728  0.18706238  0.93714054  1
  Zn  Zn157  1  0.43703780  0.69207324  0.43617336  1
  Zn  Zn158  1  0.43672803  0.68728212  0.93564495  1
  Zn  Zn159  1  0.93274909  0.19012890  0.43868348  1
  Zn  Zn160  1  0.93022961  0.18793722  0.93806839  1
  Zn  Zn161  1  0.93493872  0.68757797  0.55494117  1
  Zn  Zn162  1  0.93857162  0.68640311  0.93122681  1
  Zn  Zn163  1  0.06362848  0.31388943  0.06412530  1
  Zn  Zn164  1  0.06167491  0.31288667  0.56373217  1
  Zn  Zn165  1  0.05902139  0.80720251  0.06323239  1
  Zn  Zn166  1  0.06011700  0.81868114  0.55163157  1
  Zn  Zn167  1  0.56303392  0.31149216  0.06086492  1
  Zn  Zn168  1  0.56062610  0.31475411  0.56424996  1
  Zn  Zn169  1  0.56462865  0.81438468  0.06226689  1
  Zn  Zn170  1  0.56242942  0.81200386  0.56574074  1
  O  O171  1  0.12110602  0.12251795  0.11383167  1
  O  O172  1  0.11565473  0.12407196  0.61685681  1
  O  O173  1  0.12878224  0.62727255  0.10957160  1
  O  O174  1  0.13312639  0.60888215  0.60693388  1
  O  O175  1  0.62562575  0.11473791  0.11994762  1
  O  O176  1  0.61806140  0.11783797  0.61470709  1
  O  O177  1  0.63120082  0.61154563  0.11535084  1
  O  O178  1  0.61638181  0.61633700  0.61972686  1
  O  O179  1  0.38627236  0.37282865  0.38589512  1
  O  O180  1  0.37875714  0.37894638  0.88079397  1
  O  O181  1  0.38208851  0.88076892  0.38609179  1
  O  O182  1  0.37800424  0.89022812  0.87810600  1
  O  O183  1  0.87856513  0.37103479  0.38890460  1
  O  O184  1  0.87229493  0.39022650  0.88521344  1
  O  O185  1  0.88733752  0.87403040  0.38214243  1
  O  O186  1  0.89393967  0.86884342  0.88506439  1
  O  O187  1  0.25806207  0.00825583  0.37671595  1
  O  O188  1  0.25821697  0.00736969  0.86736797  1
  O  O189  1  0.25363468  0.51062468  0.36975142  1
  O  O190  1  0.25319141  0.50018000  0.86698199  1
  O  O191  1  0.74467763  0.02145485  0.37488737  1
  O  O192  1  0.74963180  -0.00198255  0.86564813  1
  O  O193  1  0.74499746  0.51062772  0.37463236  1
  O  O194  1  0.75480262  0.50956561  0.86667442  1
  O  O195  1  0.25845467  0.48650713  0.13652814  1
  O  O196  1  0.24386023  0.49193631  0.63080328  1
  O  O197  1  0.23600733  0.99938054  0.12035886  1
  O  O198  1  0.25376002  1.00596245  0.64141651  1
  O  O199  1  0.73814119  0.48997104  0.12752924  1
  O  O200  1  0.73628781  0.50660539  0.63278824  1
  O  O201  1  0.73883654  1.00213660  0.11686666  1
  O  O202  1  0.73941843  0.99688579  0.62777304  1
  O  O203  1  0.00587503  0.36883330  0.25696497  1
  O  O204  1  0.00094533  0.36506585  0.74713683  1
  O  O205  1  -0.00739645  0.86764982  0.26008914  1
  O  O206  1  -0.00650399  0.87137247  0.75750925  1
  O  O207  1  0.50527935  0.36837154  0.25572762  1
  O  O208  1  0.49536316  0.36438728  0.75347218  1
  O  O209  1  0.51027098  0.86292259  0.24968137  1
  O  O210  1  0.51130436  0.87686490  0.75105383  1
  O  O211  1  0.49995603  0.13208452  0.24573680  1
  O  O212  1  0.49536966  0.13016857  0.74352982  1
  O  O213  1  0.49232011  0.63484148  0.25592034  1
  O  O214  1  0.49144760  0.62268815  0.74332270  1
  O  O215  1  0.99036392  0.13207254  0.24556741  1
  O  O216  1  1.00018990  0.12874547  0.73636132  1
  O  O217  1  0.98300548  0.63870519  0.26864795  1
  O  O218  1  0.98418577  0.63066967  0.75361771  1
  O  O219  1  0.37522324  0.25566477  0.00511561  1
  O  O220  1  0.36432075  0.25712573  0.49667118  1
  O  O221  1  0.36666078  0.74629658  0.00825776  1
  O  O222  1  0.37447050  0.75886453  0.50865368  1
  O  O223  1  0.88538123  0.26504043  0.01574916  1
  O  O224  1  0.87708753  0.26280776  0.51186860  1
  O  O225  1  0.85750625  0.73673136  -0.00123153  1
  O  O226  1  0.86225380  0.75756124  0.49594539  1
  O  O227  1  0.13377504  0.24237607  0.49541400  1
  O  O228  1  0.12006428  0.23980504  0.99234992  1
  O  O229  1  0.12574157  0.73894310  0.48856931  1
  O  O230  1  0.13628521  0.74358492  0.99888664  1
  O  O231  1  0.61884074  0.23799930  0.50414716  1
  O  O232  1  0.62459272  0.24802923  0.98707289  1
  O  O233  1  0.62779708  0.74537996  0.49375267  1
  O  O234  1  0.63236652  0.73981527  0.99986342  1
  O  O235  1  0.49633072  0.24539563  0.13325160  1
  O  O236  1  0.50644718  0.23937636  0.63602449  1
  O  O237  1  0.49298377  0.75192298  0.13275757  1
  O  O238  1  0.48914422  0.74249746  0.62687449  1
  O  O239  1  0.99421189  0.24592257  0.13093051  1
  O  O240  1  0.99883967  0.24652897  0.63674212  1
  O  O241  1  1.00332045  0.74124701  0.14102812  1
  O  O242  1  1.00078280  0.75084406  0.61641741  1
  O  O243  1  0.00567511  0.25436231  0.37111655  1
  O  O244  1  -0.00101149  0.24118074  0.85865086  1
  O  O245  1  0.01062175  0.76625636  0.36483476  1
  O  O246  1  0.00468346  0.75949639  0.86969586  1
  O  O247  1  0.49671836  0.25878532  0.36376405  1
  O  O248  1  0.50726621  0.25402440  0.86638654  1
  O  O249  1  0.50694146  0.75175679  0.36422545  1
  O  O250  1  0.50184680  0.75359635  0.87083651  1
  O  O251  1  0.24534370  0.13268317  0.49772365  1
  O  O252  1  0.24010049  0.12833708  0.99377060  1
  O  O253  1  0.24332774  0.62452867  0.49111919  1
  O  O254  1  0.24278816  0.63099219  0.99594488  1
  O  O255  1  0.73484558  0.12558601  0.49731154  1
  O  O256  1  0.77646314  0.13453464  0.98835733  1
  O  O257  1  0.74414273  0.63075955  0.49464272  1
  O  O258  1  0.73922316  0.62811081  0.99196916  1
  O  O259  1  0.25610607  0.37428845  0.01006464  1
  O  O260  1  0.25624288  0.36879854  0.50261006  1
  O  O261  1  0.25103175  0.86378191  0.00055181  1
  O  O262  1  0.26586942  0.87599516  0.49606634  1
  O  O263  1  0.75747925  0.38140009  0.00999533  1
  O  O264  1  0.76043482  0.37909245  0.49726099  1
  O  O265  1  0.74880028  0.85436276  -0.01186180  1
  O  O266  1  0.76134290  0.86892062  0.49169202  1
  O  O267  1  0.14652692  0.48966658  0.25879399  1
  O  O268  1  0.13506384  0.50811994  0.73945026  1
  O  O269  1  0.12431675  1.01012580  0.23033466  1
  O  O270  1  0.14211160  1.00752447  0.74975060  1
  O  O271  1  0.62195764  0.48944897  0.24132576  1
  O  O272  1  0.63176100  0.49955261  0.74286296  1
  O  O273  1  0.62229061  0.99288584  0.23490073  1
  O  O274  1  0.63133313  0.99387875  0.74261739  1
  O  O275  1  0.38133984  0.00612354  0.25698786  1
  O  O276  1  0.37051941  0.01020799  0.75727794  1
  O  O277  1  0.36920110  0.51042226  0.24754691  1
  O  O278  1  0.36538462  0.50280550  0.75383370  1
  O  O279  1  0.88403697  0.01444308  0.24052594  1
  O  O280  1  0.85847410  -0.00585859  0.74451755  1
  O  O281  1  0.86700215  0.50984861  0.25706754  1
  O  O282  1  0.86923756  0.50770989  0.75659047  1
  O  O283  1  0.12160049  0.36776484  0.36927151  1
  O  O284  1  0.12332793  0.35971876  0.88470133  1
  O  O285  1  0.11398815  0.86486195  0.38579871  1
  O  O286  1  0.10883426  0.87304565  0.87341333  1
  O  O287  1  0.61306482  0.37705199  0.36409968  1
  O  O288  1  0.61740755  0.36623358  0.87134756  1
  O  O289  1  0.62325268  0.87077425  0.36487150  1
  O  O290  1  0.62156584  0.87362878  0.86428453  1
  O  O291  1  0.38258516  0.12912357  0.13028274  1
  O  O292  1  0.38791387  0.11923822  0.63378137  1
  O  O293  1  0.36921234  0.63588618  0.13796681  1
  O  O294  1  0.37700825  0.63307628  0.62870161  1
  O  O295  1  0.88021297  0.13538466  0.13500627  1
  O  O296  1  0.88382868  0.14360120  0.61274761  1
  O  O297  1  0.87290249  0.62718202  0.13840334  1
  O  O298  1  0.87350701  0.62082353  0.63414442  1
  O  O299  1  0.25909778  0.25882389  0.12484913  1
  O  O300  1  0.24151546  0.25812257  0.61524480  1
  O  O301  1  0.25795803  0.75000928  0.11760287  1
  O  O302  1  0.26078036  0.74914875  0.62478887  1
  O  O303  1  0.76022312  0.26119561  0.12948439  1
  O  O304  1  0.76376929  0.24723957  0.63629071  1
  O  O305  1  0.74794167  0.74470048  0.10925837  1
  O  O306  1  0.74015045  0.75325939  0.60958238  1
  O  O307  1  0.24639944  0.24490672  0.38426895  1
  O  O308  1  0.23761921  0.24482497  0.87484828  1
  O  O309  1  0.24240374  0.74157842  0.37595344  1
  O  O310  1  0.25255977  0.74322535  0.88460921  1
  O  O311  1  0.75072413  0.23045874  0.37026612  1
  O  O312  1  0.73458865  0.25963679  0.86607646  1
  O  O313  1  0.74205269  0.74193606  0.38395670  1
  O  O314  1  0.74747241  0.73564205  0.88128408  1
  O  O315  1  0.00634011  0.11661540  -0.00010037  1
  O  O316  1  0.00774762  0.12903915  0.50570427  1
  O  O317  1  0.01434882  0.63286516  0.00075218  1
  O  O318  1  0.00695746  0.60920733  0.49812038  1
  O  O319  1  0.50261430  0.11502841  0.00574612  1
  O  O320  1  0.50727225  0.11914298  0.50558227  1
  O  O321  1  0.51229777  0.61766357  -0.00650479  1
  O  O322  1  0.50171072  0.61811347  0.50239081  1
  O  O323  1  0.49347489  0.38003029  0.49456738  1
  O  O324  1  0.49418669  0.38063640  0.99417965  1
  O  O325  1  0.49451614  0.88674987  0.50137523  1
  O  O326  1  0.49970240  0.89057549  0.99884008  1
  O  O327  1  0.99707237  0.38210766  0.49411913  1
  O  O328  1  0.99107719  0.38515480  1.01094942  1
  O  O329  1  0.98437591  0.88022645  0.48691137  1
  O  O330  1  1.00795913  0.88822457  0.99240029  1
  O  O331  1  0.50495152  0.49095293  0.38661811  1
  O  O332  1  0.49326735  0.49371395  0.87954323  1
  O  O333  1  0.49697927  1.00169765  0.38591016  1
  O  O334  1  0.49291299  1.00511376  0.88237564  1
  O  O335  1  0.99745227  0.49068072  0.38193201  1
  O  O336  1  0.98513865  0.50456606  0.86865796  1
  O  O337  1  1.00991198  0.98515933  0.37384826  1
  O  O338  1  1.00525861  0.99381683  0.88273804  1
  O  O339  1  0.01316914  0.00640250  0.11278270  1
  O  O340  1  -0.00176516  0.01279129  0.61746913  1
  O  O341  1  0.01381613  0.51591625  0.17032864  1
  O  O342  1  0.01169104  0.48930616  0.61407671  1
  O  O343  1  0.50697785  0.00602913  0.11647395  1
  O  O344  1  0.50908598  0.00997697  0.61838155  1
  O  O345  1  0.51197000  0.49123242  0.11767880  1
  O  O346  1  0.50408166  0.50471384  0.61625208  1
  O  O347  1  0.25127268  0.37881370  0.24689859  1
  O  O348  1  0.25678869  0.38282105  0.73953147  1
  O  O349  1  0.25081383  0.87992477  0.24922150  1
  O  O350  1  0.25584276  0.89126739  0.75518845  1
  O  O351  1  0.73890181  0.37432285  0.24448911  1
  O  O352  1  0.75292598  0.39146577  0.75427190  1
  O  O353  1  0.73829527  0.86474388  0.25295728  1
  O  O354  1  0.74122563  0.88308022  0.75081276  1
  O  O355  1  0.25851849  0.12165652  0.25645289  1
  O  O356  1  0.25881903  0.12025897  0.75335385  1
  O  O357  1  0.25728549  0.61695965  0.25741023  1
  O  O358  1  0.25648884  0.61117365  0.75577383  1
  O  O359  1  0.76664372  0.12614716  0.25158171  1
  O  O360  1  0.74571328  0.10761269  0.74729980  1
  O  O361  1  0.75393717  0.62653892  0.25841070  1
  O  O362  1  0.75731469  0.61663077  0.75486379  1
  O  O363  1  0.37189282  0.11983640  0.37111602  1
  O  O364  1  0.37112843  0.11830331  0.86741746  1
  O  O365  1  0.36471501  0.63531582  0.36419254  1
  O  O366  1  0.36816092  0.61631872  0.87034898  1
  O  O367  1  0.87364365  0.12697572  0.36084372  1
  O  O368  1  0.82373284  0.13592527  0.92127510  1
  O  O369  1  0.85707838  0.62238930  0.36877101  1
  O  O370  1  0.86710570  0.61431353  0.86638093  1
  O  O371  1  0.14027105  0.36559763  0.13266837  1
  O  O372  1  0.13926311  0.38579027  0.61477342  1
  O  O373  1  0.12268631  0.89024317  0.11914600  1
  O  O374  1  0.13293021  0.88580683  0.60293085  1
  O  O375  1  0.63119080  0.37970383  0.13005795  1
  O  O376  1  0.61789763  0.38903881  0.62856517  1
  O  O377  1  0.62402737  0.88877975  0.12943395  1
  O  O378  1  0.62592700  0.88463274  0.63232201  1
  O  O379  1  0.12052992  0.25324442  0.25576551  1
  O  O380  1  0.11088232  0.24690042  0.75735005  1
  O  O381  1  0.11684397  0.73907149  0.26113695  1
  O  O382  1  0.13091865  0.74848732  0.74580865  1
  O  O383  1  0.61490583  0.25880977  0.24074804  1
  O  O384  1  0.61438363  0.25073418  0.75838988  1
  O  O385  1  0.61862987  0.75502822  0.25129641  1
  O  O386  1  0.62456891  0.76041695  0.74937106  1
  O  O387  1  0.38635923  0.24324049  0.24539585  1
  O  O388  1  0.38418844  0.23768071  0.75767446  1
  O  O389  1  0.38337898  0.74366932  0.24321588  1
  O  O390  1  0.37445063  0.74380279  0.74218334  1
  O  O391  1  0.88240280  0.24986170  0.23830462  1
  O  O392  1  0.88718468  0.25743403  0.73717612  1
  O  O393  1  0.88051694  0.74238684  0.25047995  1
  O  O394  1  0.86588741  0.73380179  0.75202030  1
  O  O395  1  0.38517131  0.49228442  0.50445205  1
  O  O396  1  0.37872099  0.49581456  0.99549140  1
  O  O397  1  0.38486762  0.99559983  0.49745484  1
  O  O398  1  0.38260287  1.00306544  0.99209045  1
  O  O399  1  0.88186521  0.48676202  0.50200288  1
  O  O400  1  0.87199915  0.50038988  0.98645725  1
  O  O401  1  0.86988626  0.99036773  0.49851747  1
  O  O402  1  0.89600133  1.00133969  1.00337870  1
  O  O403  1  0.11903684  0.01072153  0.00391767  1
  O  O404  1  0.12599673  0.01822299  0.49778515  1
  O  O405  1  0.12705705  0.51512784  -0.00248965  1
  O  O406  1  0.11807822  0.50392550  0.50137594  1
  O  O407  1  0.62108054  0.00408766  0.00870908  1
  O  O408  1  0.61754729  0.00333826  0.50716810  1
  O  O409  1  0.62056578  0.50426093  0.00529808  1
  O  O410  1  0.61440655  0.50476664  0.50770431  1
  O  O411  1  0.36932574  0.36883396  0.12120817  1
  O  O412  1  0.36264871  0.37743002  0.61119854  1
  O  O413  1  0.37399640  0.86106338  0.12215903  1
  O  O414  1  0.38205567  0.86649732  0.61785319  1
  O  O415  1  0.86735402  0.37434049  0.11970232  1
  O  O416  1  0.87635752  0.36547225  0.61328317  1
  O  O417  1  0.88476226  0.86628288  0.10852995  1
  O  O418  1  0.87399798  0.87619632  0.60572635  1
  O  O419  1  0.13035623  0.13122627  0.38160454  1
  O  O420  1  0.12774593  0.13279111  0.88203365  1
  O  O421  1  0.13508724  0.63077417  0.38344449  1
  O  O422  1  0.13175154  0.62913140  0.88459699  1
  O  O423  1  0.62625770  0.12537072  0.38918172  1
  O  O424  1  0.62497743  0.14004762  0.87746202  1
  O  O425  1  0.63096221  0.63066893  0.37981043  1
  O  O426  1  0.63327867  0.62218856  0.88291740  1
