# generated using pymatgen
data_V85Zn86O256
_symmetry_space_group_name_H-M   'P 1'
_cell_length_a   16.95332041
_cell_length_b   16.96225297
_cell_length_c   16.96640237
_cell_angle_alpha   89.93724528
_cell_angle_beta   89.99657209
_cell_angle_gamma   89.91676930
_symmetry_Int_Tables_number   1
_chemical_formula_structural   V85Zn86O256
_chemical_formula_sum   'V85 Zn86 O256'
_cell_volume   4878.96102411
_cell_formula_units_Z   1
loop_
 _symmetry_equiv_pos_site_id
 _symmetry_equiv_pos_as_xyz
  1  'x, y, z'
loop_
 _atom_site_type_symbol
 _atom_site_label
 _atom_site_symmetry_multiplicity
 _atom_site_fract_x
 _atom_site_fract_y
 _atom_site_fract_z
 _atom_site_occupancy
  V  V0  1  0.24651819  -0.00020042  0.74267613  1
  V  V1  1  0.74957599  0.12626441  0.87522376  1
  V  V2  1  0.62667192  0.75093217  0.87783955  1
  V  V3  1  0.50074133  0.87657218  0.87405354  1
  V  V4  1  0.75424655  0.24361746  0.50218426  1
  V  V5  1  0.88041859  0.37588927  -0.00567362  1
  V  V6  1  0.01690708  0.62370127  0.62380700  1
  V  V7  1  0.25057852  0.13333916  0.37774260  1
  V  V8  1  0.24207062  -0.00888364  0.23883314  1
  V  V9  1  0.62754153  0.62817513  0.00138284  1
  V  V10  1  0.36927747  0.75674571  0.12702925  1
  V  V11  1  0.24859976  0.12683860  0.87515169  1
  V  V12  1  0.12591166  0.74534029  0.87935316  1
  V  V13  1  0.37420094  0.25386605  0.12553056  1
  V  V14  1  0.62198488  0.25523894  0.87631722  1
  V  V15  1  0.75099817  0.74568683  0.49704684  1
  V  V16  1  0.37559984  0.00220032  0.87402001  1
  V  V17  1  0.24059656  0.62975321  0.38735228  1
  V  V18  1  0.49777277  0.75219761  0.25199722  1
  V  V19  1  0.49878820  0.75250449  0.74891190  1
  V  V20  1  0.49965150  0.00205567  -0.00066757  1
  V  V21  1  0.49922252  0.62482127  0.12662058  1
  V  V22  1  0.62433773  0.87476736  0.25060157  1
  V  V23  1  0.74632522  0.00055863  0.74763737  1
  V  V24  1  0.62547562  0.00001280  0.12409870  1
  V  V25  1  0.00154514  0.50929512  0.50452475  1
  V  V26  1  0.62518718  0.87764507  0.74918287  1
  V  V27  1  0.11833013  0.25553627  0.87488706  1
  V  V28  1  0.62679867  0.24513431  0.38257640  1
  V  V29  1  0.12958013  0.12672087  0.50089948  1
  V  V30  1  0.62529716  0.12739745  -0.00085876  1
  V  V31  1  0.37556713  0.12628506  0.25011047  1
  V  V32  1  0.62091530  0.37697833  0.75548599  1
  V  V33  1  0.00861927  0.74796180  0.24489422  1
  V  V34  1  0.62346653  0.50055107  0.62465429  1
  V  V35  1  -0.00085676  0.24587666  0.25168860  1
  V  V36  1  0.49609470  0.25541480  0.75206081  1
  V  V37  1  0.37384793  0.62695837  0.25326324  1
  V  V38  1  0.87423007  0.24696739  0.12590255  1
  V  V39  1  0.49944595  0.49741314  -0.00679591  1
  V  V40  1  0.50858941  0.12269553  0.61921425  1
  V  V41  1  0.74935099  0.61504619  0.37049837  1
  V  V42  1  0.50892034  0.25785340  0.25075527  1
  V  V43  1  0.75092851  0.50082146  0.75254541  1
  V  V44  1  0.24701808  0.74637531  0.00087024  1
  V  V45  1  0.24831693  0.50140778  0.24795272  1
  V  V46  1  -0.00594798  0.37388217  0.38527499  1
  V  V47  1  0.50132645  0.12714549  0.12562235  1
  V  V48  1  0.75496090  0.37586167  0.61886630  1
  V  V49  1  0.36802139  0.25612629  0.60937591  1
  V  V50  1  0.05895307  -0.05661859  0.05561012  1
  V  V51  1  0.37917992  0.00273223  0.38179891  1
  V  V52  1  0.00028703  0.74941853  0.75027490  1
  V  V53  1  0.87608539  0.00095756  0.88000260  1
  V  V54  1  -0.00150579  0.25313100  0.74872216  1
  V  V55  1  0.49759851  0.62847528  0.62412838  1
  V  V56  1  0.76496732  0.00369743  0.25252835  1
  V  V57  1  0.12719906  0.88097771  0.74379516  1
  V  V58  1  0.12557548  0.38236715  0.74736181  1
  V  V59  1  -0.00008025  0.12296362  0.12474339  1
  V  V60  1  0.12052203  0.12361763  0.00332418  1
  V  V61  1  0.75034175  0.62815736  0.87726703  1
  V  V62  1  0.37642961  0.37775481  -0.00680424  1
  V  V63  1  0.24868498  0.25246719  0.00187474  1
  V  V64  1  0.37349981  0.49618099  0.38371701  1
  V  V65  1  0.87611689  0.61499573  0.25026807  1
  V  V66  1  0.63017132  0.49314604  0.13698760  1
  V  V67  1  0.36269386  0.76090502  0.61874447  1
  V  V68  1  0.12259237  0.75518998  0.38765772  1
  V  V69  1  0.12320859  0.37562908  0.24731720  1
  V  V70  1  0.50067251  0.37445678  0.38254998  1
  V  V71  1  0.87169811  0.86934149  -0.00008449  1
  V  V72  1  0.24804606  0.38061666  0.61111489  1
  V  V73  1  0.87553512  0.74266447  0.12513955  1
  V  V74  1  0.37248887  0.12905906  0.75045503  1
  V  V75  1  0.74575768  0.87865147  0.62286488  1
  V  V76  1  0.00685158  0.50913618  0.00267587  1
  V  V77  1  0.37009208  0.87670412  0.00377321  1
  V  V78  1  0.49994688  0.87755841  0.38396273  1
  V  V79  1  0.00406793  0.11407121  0.62487039  1
  V  V80  1  0.87911804  0.87991491  0.49074822  1
  V  V81  1  0.00088971  0.88042793  0.87433452  1
  V  V82  1  0.87444954  0.74361928  0.62549368  1
  V  V83  1  0.62514618  0.62211028  0.50006476  1
  V  V84  1  0.74869758  0.86717236  0.12041095  1
  Zn  Zn85  1  0.25128987  0.62252484  0.87396231  1
  Zn  Zn86  1  0.18268706  -0.05549360  0.57373761  1
  Zn  Zn87  1  0.25098902  0.50349360  0.74972851  1
  Zn  Zn88  1  0.75173035  0.37684904  0.13979710  1
  Zn  Zn89  1  0.49395125  0.49301432  0.50533194  1
  Zn  Zn90  1  0.87696300  0.62185217  0.75043542  1
  Zn  Zn91  1  0.24721141  0.37864636  0.12386812  1
  Zn  Zn92  1  0.13118417  0.25430997  0.38097285  1
  Zn  Zn93  1  0.53554242  0.01010277  0.50129584  1
  Zn  Zn94  1  0.11426787  0.51710343  0.12881530  1
  Zn  Zn95  1  0.86434287  0.48436575  0.37672037  1
  Zn  Zn96  1  0.75533705  0.11190227  0.38437976  1
  Zn  Zn97  1  0.37059859  0.62541831  0.75105367  1
  Zn  Zn98  1  -0.00276525  0.00580036  0.48456592  1
  Zn  Zn99  1  0.62273820  0.74703253  0.37449687  1
  Zn  Zn100  1  0.37315799  0.50327615  0.87168933  1
  Zn  Zn101  1  0.87470628  0.12630511  0.74734986  1
  Zn  Zn102  1  0.88149081  0.49663233  0.87354272  1
  Zn  Zn103  1  0.74880726  0.25598324  0.00288745  1
  Zn  Zn104  1  0.88050722  0.25317771  0.62016173  1
  Zn  Zn105  1  0.34838131  0.87540584  0.50083336  1
  Zn  Zn106  1  0.00066169  0.88432600  0.36176755  1
  Zn  Zn107  1  0.18647666  0.18621426  0.18840959  1
  Zn  Zn108  1  0.18537325  0.19061818  0.68481584  1
  Zn  Zn109  1  0.19325000  0.68934188  0.19232870  1
  Zn  Zn110  1  0.18950292  0.69269876  0.69262278  1
  Zn  Zn111  1  0.68905028  0.18762379  0.19015384  1
  Zn  Zn112  1  0.68853741  0.18949008  0.68829218  1
  Zn  Zn113  1  0.68813118  0.68361955  0.18785202  1
  Zn  Zn114  1  0.68520595  0.68899049  0.68870851  1
  Zn  Zn115  1  0.31625660  0.31624559  0.31262955  1
  Zn  Zn116  1  0.30694478  0.31539180  0.81150032  1
  Zn  Zn117  1  0.30988606  0.81465314  0.31822133  1
  Zn  Zn118  1  0.31266402  0.81284861  0.81094856  1
  Zn  Zn119  1  0.81211260  0.30236014  0.31178940  1
  Zn  Zn120  1  0.81081597  0.31278674  0.81099052  1
  Zn  Zn121  1  0.81259019  0.80715036  0.30832786  1
  Zn  Zn122  1  0.81205612  0.81196054  0.81148569  1
  Zn  Zn123  1  0.18059792  0.44230751  0.43478577  1
  Zn  Zn124  1  0.18730903  0.44000837  0.93625476  1
  Zn  Zn125  1  0.18129416  0.94705963  0.41209689  1
  Zn  Zn126  1  0.19311747  0.93510847  0.93010779  1
  Zn  Zn127  1  0.68085332  0.43110198  0.43401917  1
  Zn  Zn128  1  0.69205358  0.43915603  0.94608746  1
  Zn  Zn129  1  0.69024558  0.93620941  0.43466353  1
  Zn  Zn130  1  0.68856191  0.93867159  0.93734041  1
  Zn  Zn131  1  0.31154557  0.06577303  0.06229751  1
  Zn  Zn132  1  0.31930275  0.07096426  0.56129478  1
  Zn  Zn133  1  0.31241528  0.56530472  0.06302744  1
  Zn  Zn134  1  0.30959323  0.56642886  0.56750158  1
  Zn  Zn135  1  0.81138914  0.06095917  0.06305164  1
  Zn  Zn136  1  0.81409060  0.06415807  0.56353649  1
  Zn  Zn137  1  0.81195595  0.55849417  0.06261823  1
  Zn  Zn138  1  0.81807682  0.55489059  0.55778662  1
  Zn  Zn139  1  0.43763193  0.43909173  0.18699223  1
  Zn  Zn140  1  0.43267011  0.43836877  0.68697978  1
  Zn  Zn141  1  0.43678762  0.94015741  0.19001277  1
  Zn  Zn142  1  0.43590709  0.94035255  0.68533457  1
  Zn  Zn143  1  0.93709811  0.43244967  0.18439935  1
  Zn  Zn144  1  0.93857005  0.43774134  0.68572628  1
  Zn  Zn145  1  0.93907381  0.93114698  0.18829786  1
  Zn  Zn146  1  0.93161603  0.93477040  0.68786184  1
  Zn  Zn147  1  0.06331116  0.06225606  0.31183292  1
  Zn  Zn148  1  0.06290029  0.06560685  0.81247397  1
  Zn  Zn149  1  0.05957062  0.56178269  0.31554142  1
  Zn  Zn150  1  0.05771179  0.56124915  0.81659186  1
  Zn  Zn151  1  0.56787765  0.06452116  0.31388326  1
  Zn  Zn152  1  0.56190637  0.06716752  0.80880347  1
  Zn  Zn153  1  0.55960039  0.56158870  0.31632733  1
  Zn  Zn154  1  0.56090377  0.56540701  0.81209540  1
  Zn  Zn155  1  0.44013021  0.18818840  0.43719162  1
  Zn  Zn156  1  0.43707783  0.19121464  0.93740854  1
  Zn  Zn157  1  0.43282127  0.68882440  0.43994164  1
  Zn  Zn158  1  0.43736512  0.68672490  0.93783028  1
  Zn  Zn159  1  0.93331380  0.18650377  0.43745776  1
  Zn  Zn160  1  0.93732476  0.18696640  0.93891671  1
  Zn  Zn161  1  0.93727942  0.68598027  0.43340661  1
  Zn  Zn162  1  0.93521418  0.68671138  0.93359566  1
  Zn  Zn163  1  0.05968741  0.31576187  0.06305286  1
  Zn  Zn164  1  0.06651247  0.30841122  0.56466901  1
  Zn  Zn165  1  0.06595860  0.68849955  0.06095187  1
  Zn  Zn166  1  0.05949602  0.80971865  0.56286868  1
  Zn  Zn167  1  0.56046653  0.31644370  0.06330566  1
  Zn  Zn168  1  0.56495592  0.31023047  0.56442015  1
  Zn  Zn169  1  0.55829121  0.81162898  0.06266702  1
  Zn  Zn170  1  0.56374649  0.81139516  0.56240386  1
  O  O171  1  0.11719530  0.12960707  0.11185162  1
  O  O172  1  0.11340449  0.12723947  0.61904964  1
  O  O173  1  0.13489839  0.62690223  0.12198233  1
  O  O174  1  0.11513613  0.63314001  0.62627880  1
  O  O175  1  0.61971305  0.12096426  0.11875421  1
  O  O176  1  0.60668145  0.13439595  0.63206359  1
  O  O177  1  0.62026529  0.62009616  0.11807742  1
  O  O178  1  0.61797253  0.62114595  0.62051490  1
  O  O179  1  0.38266838  0.38639041  0.37274268  1
  O  O180  1  0.36927739  0.37452863  0.89029386  1
  O  O181  1  0.38499338  0.88456805  0.37774841  1
  O  O182  1  0.38156615  0.88140294  0.88254537  1
  O  O183  1  0.89211701  0.36900976  0.37102497  1
  O  O184  1  0.86671595  0.37490227  0.89061673  1
  O  O185  1  0.87585748  0.86227526  0.38905980  1
  O  O186  1  0.88076556  0.87762077  0.88165555  1
  O  O187  1  0.26256010  0.01489659  0.35965477  1
  O  O188  1  0.25686853  0.00798757  0.86656265  1
  O  O189  1  0.25299548  0.50959076  0.36859748  1
  O  O190  1  0.25130348  0.50485439  0.87215233  1
  O  O191  1  0.74922359  -0.00567160  0.35548351  1
  O  O192  1  0.75641653  0.00453339  0.86766943  1
  O  O193  1  0.74917461  0.51052490  0.38300338  1
  O  O194  1  0.74755352  0.50866140  0.86607899  1
  O  O195  1  0.25148935  0.50160997  0.14041630  1
  O  O196  1  0.25645388  0.48369688  0.62730294  1
  O  O197  1  0.26030619  1.00412403  0.13964842  1
  O  O198  1  0.25550830  1.00886714  0.63868097  1
  O  O199  1  0.73243115  0.50357049  0.12445928  1
  O  O200  1  0.74495709  0.49594418  0.63326273  1
  O  O201  1  0.74542572  0.98710451  0.13056895  1
  O  O202  1  0.76271233  0.98860816  0.63769639  1
  O  O203  1  0.00675485  0.36771806  0.25716161  1
  O  O204  1  0.01404318  0.36521700  0.73898084  1
  O  O205  1  -0.00964468  0.85184203  0.24999739  1
  O  O206  1  0.00477038  0.87120849  0.75726983  1
  O  O207  1  0.49109910  0.36314560  0.25979688  1
  O  O208  1  0.51005725  0.36683744  0.74303725  1
  O  O209  1  0.50668225  0.87266279  0.25834453  1
  O  O210  1  0.50576886  0.87438358  0.75484837  1
  O  O211  1  0.49350307  0.13337269  0.24633009  1
  O  O212  1  0.49305262  0.13615330  0.74200409  1
  O  O213  1  0.49315140  0.63276449  0.24829357  1
  O  O214  1  0.50307451  0.63351617  0.73742795  1
  O  O215  1  1.01239960  0.13445573  0.23498451  1
  O  O216  1  1.00194566  0.13234041  0.73881667  1
  O  O217  1  0.98453787  0.63339058  0.25695712  1
  O  O218  1  0.99742267  0.62967470  0.74085027  1
  O  O219  1  0.37039312  0.25726849  0.00504904  1
  O  O220  1  0.37501588  0.24957239  0.51115109  1
  O  O221  1  0.37148401  0.75961307  0.00799525  1
  O  O222  1  0.37653506  0.75620984  0.51328680  1
  O  O223  1  0.87623034  0.25995302  0.00551916  1
  O  O224  1  0.85780531  0.25514121  0.50224383  1
  O  O225  1  0.88305149  0.76090698  0.00920920  1
  O  O226  1  0.86822701  0.75253900  0.50737690  1
  O  O227  1  0.12234783  0.23323092  0.49790892  1
  O  O228  1  0.12679312  0.24558401  0.99315992  1
  O  O229  1  0.11659887  0.74770235  0.48634800  1
  O  O230  1  0.13419842  0.75565289  0.99132479  1
  O  O231  1  0.63406971  0.25247667  0.49258521  1
  O  O232  1  0.62297958  0.24768059  0.99150189  1
  O  O233  1  0.63769453  0.74306099  0.49987768  1
  O  O234  1  0.61772452  0.73682903  0.99595103  1
  O  O235  1  0.49638228  0.24695291  0.13311759  1
  O  O236  1  0.48817770  0.24694204  0.63270831  1
  O  O237  1  0.48987667  0.74556651  0.13146281  1
  O  O238  1  0.49735451  0.74422217  0.62974288  1
  O  O239  1  0.99476338  0.24226635  0.13030174  1
  O  O240  1  0.99985121  0.24214003  0.63425870  1
  O  O241  1  0.98889850  0.74195787  0.13620223  1
  O  O242  1  0.99224485  0.74111322  0.62928421  1
  O  O243  1  0.00377062  0.25882697  0.36817734  1
  O  O244  1  0.01003556  0.24153288  0.86436422  1
  O  O245  1  0.01047653  0.74545387  0.36510481  1
  O  O246  1  0.00444111  0.76159861  0.87197819  1
  O  O247  1  0.50591190  0.25454429  0.36988886  1
  O  O248  1  0.51037623  0.24564196  0.86414837  1
  O  O249  1  0.49895386  0.75986810  0.37031477  1
  O  O250  1  0.50595956  0.75761369  0.86965195  1
  O  O251  1  0.24357864  0.11886427  0.48890685  1
  O  O252  1  0.24093702  0.13099366  0.99558064  1
  O  O253  1  0.24836921  0.62139533  0.48576750  1
  O  O254  1  0.25860813  0.64352011  0.99678596  1
  O  O255  1  0.74929149  0.14023813  0.50633454  1
  O  O256  1  0.74241684  0.12710865  0.99339031  1
  O  O257  1  0.74720519  0.62996904  0.49417660  1
  O  O258  1  0.73942761  0.61736197  0.98891339  1
  O  O259  1  0.25585322  0.36983466  0.00416519  1
  O  O260  1  0.23797196  0.37718135  0.51214145  1
  O  O261  1  0.26439219  0.86841707  -0.00563981  1
  O  O262  1  0.23827325  0.89044036  0.49277908  1
  O  O263  1  0.76272991  0.37524310  0.01236963  1
  O  O264  1  0.74096129  0.36968453  0.51358735  1
  O  O265  1  0.75798606  0.87643903  0.00865935  1
  O  O266  1  0.76031549  0.86298813  0.50507620  1
  O  O267  1  0.13101033  0.49413333  0.25091351  1
  O  O268  1  0.11916810  0.48340287  0.75433025  1
  O  O269  1  0.14346542  1.00549077  0.25081992  1
  O  O270  1  0.13454770  0.99325379  0.75758882  1
  O  O271  1  0.61582788  0.50546348  0.23505228  1
  O  O272  1  0.63044781  0.49413501  0.74661252  1
  O  O273  1  0.62694580  0.98805596  0.24251101  1
  O  O274  1  0.63808652  0.99473959  0.75707137  1
  O  O275  1  0.37746712  0.01284276  0.25900505  1
  O  O276  1  0.36706328  0.00713940  0.75542466  1
  O  O277  1  0.36748559  0.50593357  0.26003746  1
  O  O278  1  0.37319518  0.50366442  0.75418572  1
  O  O279  1  0.86337700  -0.00615888  0.24216200  1
  O  O280  1  0.86385044  -0.00255890  0.76279902  1
  O  O281  1  0.88159802  0.51304985  0.25076954  1
  O  O282  1  0.86333857  0.49900665  0.75305963  1
  O  O283  1  0.11601666  0.37313569  0.36410003  1
  O  O284  1  0.12946118  0.36308076  0.86169659  1
  O  O285  1  0.11984155  0.85750685  0.37105399  1
  O  O286  1  0.11567448  0.87076321  0.86819938  1
  O  O287  1  0.61156578  0.36288958  0.37337437  1
  O  O288  1  0.63231785  0.36822363  0.86621573  1
  O  O289  1  0.61885700  0.87114886  0.36406259  1
  O  O290  1  0.62064459  0.87105696  0.87129733  1
  O  O291  1  0.38218638  0.13267974  0.13162751  1
  O  O292  1  0.38020853  0.14185222  0.63133879  1
  O  O293  1  0.37954107  0.63569088  0.13241161  1
  O  O294  1  0.38395609  0.63844370  0.62414991  1
  O  O295  1  0.88986179  0.13229251  0.11138223  1
  O  O296  1  0.88921219  0.12991733  0.62702926  1
  O  O297  1  0.86163357  0.63233926  0.13828028  1
  O  O298  1  0.87586981  0.63550293  0.62645060  1
  O  O299  1  0.25639978  0.25081743  0.11947590  1
  O  O300  1  0.26257711  0.25739900  0.62805767  1
  O  O301  1  0.26373523  0.75190047  0.11992706  1
  O  O302  1  0.26394631  0.75264885  0.62809847  1
  O  O303  1  0.76348001  0.24508395  0.12429436  1
  O  O304  1  0.74753791  0.25776114  0.61692709  1
  O  O305  1  0.75847120  0.75968906  0.13081651  1
  O  O306  1  0.75626965  0.75471967  0.61819432  1
  O  O307  1  0.25269101  0.23770847  0.36740586  1
  O  O308  1  0.23918979  0.24483336  0.88074518  1
  O  O309  1  0.23699610  0.73908342  0.36952480  1
  O  O310  1  0.24089936  0.75450353  0.88293159  1
  O  O311  1  0.74179639  0.25663032  0.39160324  1
  O  O312  1  0.73752917  0.24450761  0.87444597  1
  O  O313  1  0.74918221  0.74020327  0.38453760  1
  O  O314  1  0.74279404  0.73798375  0.86718624  1
  O  O315  1  0.01131124  0.12661371  0.00717494  1
  O  O316  1  0.00394347  0.12548649  0.51274608  1
  O  O317  1  -0.00457478  0.61630400  0.00200279  1
  O  O318  1  -0.00407649  0.61666401  0.50701049  1
  O  O319  1  0.50444218  0.12158112  0.00489212  1
  O  O320  1  0.49800213  0.12644363  0.51431534  1
  O  O321  1  0.50729489  0.61846874  0.00695457  1
  O  O322  1  0.50637215  0.62730216  0.51007659  1
  O  O323  1  0.50115624  0.37386934  0.48906410  1
  O  O324  1  0.48885933  0.38535160  1.00535789  1
  O  O325  1  0.50848244  0.87982255  0.48747253  1
  O  O326  1  0.49231153  0.88201078  0.99394162  1
  O  O327  1  1.00541599  0.37521054  0.48872229  1
  O  O328  1  0.98640526  0.38157728  1.00093516  1
  O  O329  1  0.98415718  0.87433770  0.50250913  1
  O  O330  1  0.99236166  0.88484399  0.99274201  1
  O  O331  1  0.49134760  0.49213718  0.37763780  1
  O  O332  1  0.50105250  0.50493509  0.88999050  1
  O  O333  1  0.49648755  0.99592553  0.37721291  1
  O  O334  1  0.49529399  0.99800058  0.87883728  1
  O  O335  1  0.99666103  0.48674522  0.38078507  1
  O  O336  1  0.99573077  0.50378304  0.89281935  1
  O  O337  1  0.99960170  0.99548664  0.37196676  1
  O  O338  1  0.98952952  0.99089750  0.86617582  1
  O  O339  1  0.00158604  0.00328786  0.12193683  1
  O  O340  1  -0.00506587  0.01253308  0.62785481  1
  O  O341  1  -0.00313844  0.49795146  0.10993271  1
  O  O342  1  -0.00591451  0.50911216  0.61391562  1
  O  O343  1  0.50512502  0.00661611  0.11947001  1
  O  O344  1  0.49306735  0.01938800  0.62507000  1
  O  O345  1  0.50686401  0.50648448  0.11777153  1
  O  O346  1  0.50329380  0.51054074  0.62431453  1
  O  O347  1  0.24160309  0.38498821  0.25293998  1
  O  O348  1  0.23653856  0.37559659  0.74276959  1
  O  O349  1  0.25788038  0.89263895  0.25581558  1
  O  O350  1  0.23979034  0.88731190  0.75640042  1
  O  O351  1  0.76237546  0.37847327  0.25024905  1
  O  O352  1  0.73987963  0.38310053  0.74462664  1
  O  O353  1  0.74265935  0.87919808  0.24118400  1
  O  O354  1  0.74624228  0.88065926  0.74303238  1
  O  O355  1  0.26233330  0.12241595  0.25400990  1
  O  O356  1  0.25188857  0.12084582  0.75561946  1
  O  O357  1  0.25588276  0.61765568  0.26095042  1
  O  O358  1  0.25090822  0.62166654  0.75272873  1
  O  O359  1  0.74647286  0.10370756  0.24199626  1
  O  O360  1  0.75152713  0.11728293  0.75478632  1
  O  O361  1  0.76047935  0.63117066  0.26105437  1
  O  O362  1  0.74657873  0.61490457  0.75688599  1
  O  O363  1  0.37291475  0.12175470  0.36832593  1
  O  O364  1  0.36959201  0.12237095  0.87081226  1
  O  O365  1  0.36368678  0.62132949  0.37178256  1
  O  O366  1  0.37353233  0.62568867  0.86998609  1
  O  O367  1  0.86306113  0.13722845  0.37005231  1
  O  O368  1  0.87027744  0.11589511  0.87508311  1
  O  O369  1  0.86631259  0.62404071  0.36348379  1
  O  O370  1  0.86257646  0.62339597  0.87118700  1
  O  O371  1  0.12480946  0.37845714  0.13824352  1
  O  O372  1  0.13837085  0.36553423  0.63659758  1
  O  O373  1  0.10968531  0.88192251  0.10770110  1
  O  O374  1  0.11639662  0.87527291  0.63901261  1
  O  O375  1  0.62569364  0.38974165  0.12164477  1
  O  O376  1  0.63129885  0.38005592  0.63684562  1
  O  O377  1  0.62987512  0.87749714  0.12940810  1
  O  O378  1  0.63948433  0.86709961  0.63168942  1
  O  O379  1  0.11651057  0.25813031  0.25044931  1
  O  O380  1  0.11803778  0.25477027  0.75755671  1
  O  O381  1  0.11059268  0.74365814  0.25310104  1
  O  O382  1  0.11967299  0.76320753  0.75834360  1
  O  O383  1  0.61406333  0.24580965  0.25690107  1
  O  O384  1  0.61744978  0.25847390  0.75678976  1
  O  O385  1  0.61885278  0.76047454  0.24774673  1
  O  O386  1  0.61898267  0.75793438  0.75660958  1
  O  O387  1  0.38346021  0.24180508  0.24658696  1
  O  O388  1  0.38270513  0.24907282  0.75035833  1
  O  O389  1  0.37730277  0.74887377  0.24490522  1
  O  O390  1  0.38235924  0.75421482  0.73724991  1
  O  O391  1  0.89071377  0.25030531  0.23826090  1
  O  O392  1  0.88665254  0.24891489  0.75183445  1
  O  O393  1  0.88139937  0.73992956  0.24212490  1
  O  O394  1  0.88131145  0.75078470  0.74062158  1
  O  O395  1  0.37473698  0.50810199  0.48732159  1
  O  O396  1  0.38224579  0.49395622  1.00233428  1
  O  O397  1  0.37670397  1.00275435  0.48599511  1
  O  O398  1  0.37925117  0.99571109  0.99493868  1
  O  O399  1  0.89078039  0.49855113  0.49176986  1
  O  O400  1  0.88070670  0.48874738  1.00155073  1
  O  O401  1  0.87138612  0.98217139  0.50248873  1
  O  O402  1  0.86846081  0.98810481  0.98774090  1
  O  O403  1  0.12468763  0.00429636  -0.00267876  1
  O  O404  1  0.11957222  0.01335909  0.49759598  1
  O  O405  1  0.10953526  0.49176752  0.00402657  1
  O  O406  1  0.10163082  0.49896809  0.49364649  1
  O  O407  1  0.61949447  0.00587505  0.00404859  1
  O  O408  1  0.64432296  -0.00184984  0.51049644  1
  O  O409  1  0.61710075  0.50961507  0.00730850  1
  O  O410  1  0.62125157  0.50564486  0.50749773  1
  O  O411  1  0.37161536  0.37003550  0.11739646  1
  O  O412  1  0.36397433  0.36394393  0.62599390  1
  O  O413  1  0.38561335  0.86806484  0.11489623  1
  O  O414  1  0.37995329  0.86579853  0.61977612  1
  O  O415  1  0.87673956  0.36135208  0.11539891  1
  O  O416  1  0.85933898  0.37194812  0.63421129  1
  O  O417  1  0.86799105  0.86539845  0.11755522  1
  O  O418  1  0.86666734  0.86236562  0.61754679  1
  O  O419  1  0.13576024  0.12795885  0.38105261  1
  O  O420  1  0.12801884  0.13235538  0.88483042  1
  O  O421  1  0.13541484  0.63180037  0.37121434  1
  O  O422  1  0.12192176  0.64362231  0.86900011  1
  O  O423  1  0.63556752  0.13854436  0.37024705  1
  O  O424  1  0.62866017  0.13490894  0.87893624  1
  O  O425  1  0.63184257  0.62668381  0.38013726  1
  O  O426  1  0.63024605  0.63028618  0.88239931  1
