# generated using pymatgen
data_V85Zn86O256
_symmetry_space_group_name_H-M   'P 1'
_cell_length_a   16.98521743
_cell_length_b   16.94826159
_cell_length_c   16.97583853
_cell_angle_alpha   90.06171140
_cell_angle_beta   89.94627077
_cell_angle_gamma   89.87400601
_symmetry_Int_Tables_number   1
_chemical_formula_structural   V85Zn86O256
_chemical_formula_sum   'V85 Zn86 O256'
_cell_volume   4886.81626943
_cell_formula_units_Z   1
loop_
 _symmetry_equiv_pos_site_id
 _symmetry_equiv_pos_as_xyz
  1  'x, y, z'
loop_
 _atom_site_type_symbol
 _atom_site_label
 _atom_site_symmetry_multiplicity
 _atom_site_fract_x
 _atom_site_fract_y
 _atom_site_fract_z
 _atom_site_occupancy
  V  V0  1  0.62451148  0.74767083  0.37462017  1
  V  V1  1  0.87636600  0.62290971  0.74953319  1
  V  V2  1  0.74970295  0.74682408  0.49693108  1
  V  V3  1  0.74377279  0.87964177  0.62547169  1
  V  V4  1  0.00234632  0.01419130  0.50282123  1
  V  V5  1  -0.00116843  0.62165151  0.62251853  1
  V  V6  1  0.25604252  0.24860729  0.00680269  1
  V  V7  1  0.12527371  0.63134433  0.49309393  1
  V  V8  1  0.12262151  0.25029632  0.87308384  1
  V  V9  1  0.11855196  0.01632835  0.62283328  1
  V  V10  1  0.25371199  0.50247120  0.74953127  1
  V  V11  1  0.37517342  0.50048231  0.37306688  1
  V  V12  1  0.86840021  0.49718634  0.37005220  1
  V  V13  1  0.62389377  0.61964115  0.00024490  1
  V  V14  1  0.49571470  0.62691027  0.12272100  1
  V  V15  1  0.24984361  -0.00566115  0.74318441  1
  V  V16  1  0.86616872  0.37202529  -0.00147714  1
  V  V17  1  0.75927718  0.25142210  0.50284605  1
  V  V18  1  0.12700301  0.25662735  0.37003867  1
  V  V19  1  0.37649962  0.24708874  0.62896956  1
  V  V20  1  0.87304871  -0.00042041  0.36789154  1
  V  V21  1  0.00106073  0.74980076  0.74718754  1
  V  V22  1  0.36684524  0.76020438  0.63036310  1
  V  V23  1  0.38292625  0.37855422  0.00680158  1
  V  V24  1  0.86699946  0.62110204  0.24767996  1
  V  V25  1  0.12611801  0.86499513  0.25257467  1
  V  V26  1  0.75045367  0.88016248  0.12780652  1
  V  V27  1  0.49883493  0.25234794  0.25192311  1
  V  V28  1  0.49933657  -0.00218325  0.50219204  1
  V  V29  1  0.24694118  0.62613714  0.37269629  1
  V  V30  1  0.62741194  0.87959296  0.25061009  1
  V  V31  1  0.12630766  0.12256666  -0.00009730  1
  V  V32  1  0.51935356  0.74783820  0.73965441  1
  V  V33  1  0.12764508  0.49894974  0.62155332  1
  V  V34  1  0.37545579  0.12873246  0.24979873  1
  V  V35  1  0.74946468  -0.00796718  0.76928323  1
  V  V36  1  0.37684328  0.11892471  0.75346423  1
  V  V37  1  0.24751837  -0.00135752  0.24749916  1
  V  V38  1  0.00341517  0.86853236  0.37494622  1
  V  V39  1  0.12667795  0.87506579  0.74007568  1
  V  V40  1  0.50119786  0.12781203  0.62863230  1
  V  V41  1  0.12486339  0.37141091  0.75295579  1
  V  V42  1  0.62100846  0.50475533  0.62574945  1
  V  V43  1  0.25202856  0.37451748  0.62482181  1
  V  V44  1  0.49994955  0.12655899  0.12778384  1
  V  V45  1  0.25315401  0.62398943  0.86816008  1
  V  V46  1  0.86854597  0.25009091  0.11992879  1
  V  V47  1  0.25440652  0.76252848  0.49887865  1
  V  V48  1  0.61864229  0.36033530  0.75653091  1
  V  V49  1  0.87410259  0.50051979  0.87137087  1
  V  V50  1  0.24154242  0.12436969  0.37999465  1
  V  V51  1  0.63288447  0.37988778  0.25281708  1
  V  V52  1  0.75388903  0.14697485  0.88103706  1
  V  V53  1  0.49065330  0.75092621  0.24465385  1
  V  V54  1  0.49572581  0.87481233  0.37838257  1
  V  V55  1  -0.00341258  0.49540461  0.49504711  1
  V  V56  1  0.12338990  0.62762980  -0.00323357  1
  V  V57  1  0.25363833  0.11563384  0.87521401  1
  V  V58  1  0.62571606  0.12442752  0.50226643  1
  V  V59  1  0.62566412  0.24971038  0.37732944  1
  V  V60  1  0.00034347  0.49857303  -0.00243548  1
  V  V61  1  0.24732974  0.24636317  0.50003029  1
  V  V62  1  0.75257247  0.37089391  0.62344300  1
  V  V63  1  -0.00251434  0.87580400  0.87180844  1
  V  V64  1  0.87536383  0.74949132  0.62292682  1
  V  V65  1  0.00033158  -0.00228028  -0.00357502  1
  V  V66  1  0.87695300  0.87565742  0.49927966  1
  V  V67  1  0.87890511  0.74951349  0.12597252  1
  V  V68  1  0.49800190  0.50705018  0.50407224  1
  V  V69  1  0.74324590  0.75250286  -0.00353819  1
  V  V70  1  0.37358089  -0.00240327  0.38081196  1
  V  V71  1  0.87454744  0.87866221  -0.00478913  1
  V  V72  1  0.12941421  0.49069181  0.12772029  1
  V  V73  1  -0.00251817  0.37607413  0.36979864  1
  V  V74  1  0.26720831  0.74719608  -0.00003144  1
  V  V75  1  0.63013347  0.13768052  -0.00127017  1
  V  V76  1  0.50400383  0.85949370  0.86709696  1
  V  V77  1  0.75063625  0.11991368  0.36998349  1
  V  V78  1  0.00029142  0.12292383  0.12394530  1
  V  V79  1  0.00342485  0.25180823  0.24601032  1
  V  V80  1  0.74671806  0.62969739  0.87480262  1
  V  V81  1  0.62611857  0.00157916  0.12798658  1
  V  V82  1  0.49675496  0.00116652  -0.01612262  1
  V  V83  1  0.63008682  0.50236333  0.13026427  1
  V  V84  1  0.88260411  0.12659118  0.74848250  1
  Zn  Zn85  1  0.62169953  -0.00423314  0.63611589  1
  Zn  Zn86  1  0.74384509  0.61470165  0.36932163  1
  Zn  Zn87  1  0.25825318  0.85958674  0.13029403  1
  Zn  Zn88  1  0.49999162  0.37628224  0.37797083  1
  Zn  Zn89  1  0.24572782  0.49081164  0.25320963  1
  Zn  Zn90  1  0.74861950  0.49680410  0.74716329  1
  Zn  Zn91  1  0.87117494  0.12135526  0.24478170  1
  Zn  Zn92  1  0.12643805  -0.00537494  0.12375458  1
  Zn  Zn93  1  0.37757833  0.37480045  0.50055435  1
  Zn  Zn94  1  0.38880811  0.62099217  0.73596050  1
  Zn  Zn95  1  0.50123019  0.34620837  0.87548713  1
  Zn  Zn96  1  0.12664021  0.75061645  0.87191283  1
  Zn  Zn97  1  0.61926681  0.62748442  0.50501867  1
  Zn  Zn98  1  -0.00608426  0.36638676  0.87075356  1
  Zn  Zn99  1  0.89382642  0.23909748  0.62368905  1
  Zn  Zn100  1  0.00412738  0.74581419  0.25427333  1
  Zn  Zn101  1  0.75034834  0.37780970  0.12613555  1
  Zn  Zn102  1  0.39014338  0.49000197  0.86973351  1
  Zn  Zn103  1  0.36825414  0.62610872  0.23981037  1
  Zn  Zn104  1  0.25621834  0.36275985  0.13309435  1
  Zn  Zn105  1  0.37536973  0.88333180  0.00102690  1
  Zn  Zn106  1  0.00027839  0.62342959  0.12636423  1
  Zn  Zn107  1  0.18497986  0.18311713  0.18828808  1
  Zn  Zn108  1  0.18933114  0.18677695  0.68980679  1
  Zn  Zn109  1  0.18795896  0.68079581  0.18171615  1
  Zn  Zn110  1  0.18721538  0.68905220  0.68015608  1
  Zn  Zn111  1  0.68549362  0.19054789  0.18910069  1
  Zn  Zn112  1  0.69676623  0.18098782  0.68787304  1
  Zn  Zn113  1  0.68632339  0.69238157  0.18550085  1
  Zn  Zn114  1  0.69405438  0.68493560  0.68465501  1
  Zn  Zn115  1  0.31322816  0.31734069  0.31088174  1
  Zn  Zn116  1  0.31368777  0.30855771  0.81814425  1
  Zn  Zn117  1  0.31029548  0.81148567  0.31704257  1
  Zn  Zn118  1  0.31937980  0.81489620  0.82065239  1
  Zn  Zn119  1  0.81492709  0.30818996  0.31249402  1
  Zn  Zn120  1  0.81269766  0.31397614  0.80489459  1
  Zn  Zn121  1  0.81431711  0.81205158  0.31154481  1
  Zn  Zn122  1  0.81281419  0.81158187  0.81044844  1
  Zn  Zn123  1  0.18790310  0.43626516  0.43733637  1
  Zn  Zn124  1  0.19518586  0.43550453  0.93919865  1
  Zn  Zn125  1  0.17970769  0.94106116  0.43757252  1
  Zn  Zn126  1  0.18621754  0.93139344  0.93352718  1
  Zn  Zn127  1  0.68427491  0.43443098  0.44207222  1
  Zn  Zn128  1  0.68422608  0.43914023  0.93551675  1
  Zn  Zn129  1  0.68690726  0.93713393  0.44039161  1
  Zn  Zn130  1  0.67649506  0.93903662  0.93964728  1
  Zn  Zn131  1  0.31583418  0.06256185  0.06434442  1
  Zn  Zn132  1  0.31021686  0.05895613  0.56531919  1
  Zn  Zn133  1  0.31275684  0.55942209  0.05632288  1
  Zn  Zn134  1  0.31624608  0.57042470  0.56177710  1
  Zn  Zn135  1  0.81352659  0.06311709  0.05917729  1
  Zn  Zn136  1  0.81645746  0.06236698  0.56155117  1
  Zn  Zn137  1  0.81043667  0.56138512  0.06175571  1
  Zn  Zn138  1  0.81028271  0.55716099  0.56042452  1
  Zn  Zn139  1  0.44233716  0.44294022  0.18665648  1
  Zn  Zn140  1  0.44026456  0.43388468  0.68659149  1
  Zn  Zn141  1  0.43427641  0.93698718  0.18479495  1
  Zn  Zn142  1  0.43665161  0.93422781  0.68876532  1
  Zn  Zn143  1  0.93908967  0.43661163  0.18575160  1
  Zn  Zn144  1  0.96074845  0.40112596  0.66202451  1
  Zn  Zn145  1  0.94096932  0.93533212  0.18650598  1
  Zn  Zn146  1  0.93199584  0.94442794  0.68657935  1
  Zn  Zn147  1  0.05968149  0.06024058  0.31228892  1
  Zn  Zn148  1  0.06533349  0.06064339  0.81363358  1
  Zn  Zn149  1  0.05848214  0.56507615  0.30838992  1
  Zn  Zn150  1  0.06442084  0.55847464  0.81050045  1
  Zn  Zn151  1  0.56371784  0.06269975  0.31520632  1
  Zn  Zn152  1  0.56763523  0.17139385  0.81204427  1
  Zn  Zn153  1  0.55678316  0.56308900  0.31070506  1
  Zn  Zn154  1  0.56579334  0.55896682  0.80633465  1
  Zn  Zn155  1  0.43575399  0.18592053  0.43911837  1
  Zn  Zn156  1  0.43384219  0.18480576  0.94394964  1
  Zn  Zn157  1  0.43140758  0.68704939  0.43997399  1
  Zn  Zn158  1  0.45875828  0.65413968  0.91270907  1
  Zn  Zn159  1  0.93637894  0.18865179  0.43223356  1
  Zn  Zn160  1  0.93665113  0.18465584  0.93514476  1
  Zn  Zn161  1  0.93386674  0.68286510  0.43500791  1
  Zn  Zn162  1  0.93710908  0.69016377  0.93685984  1
  Zn  Zn163  1  0.06023038  0.31084725  0.05637093  1
  Zn  Zn164  1  0.06762520  0.30467640  0.55581115  1
  Zn  Zn165  1  0.06873308  0.81376295  0.06529888  1
  Zn  Zn166  1  0.06307841  0.81496464  0.55974711  1
  Zn  Zn167  1  0.56019030  0.31661534  0.06793457  1
  Zn  Zn168  1  0.56424313  0.31619118  0.56269762  1
  Zn  Zn169  1  0.55820313  0.81346534  0.06090027  1
  Zn  Zn170  1  0.56018613  0.81163713  0.56341515  1
  O  O171  1  0.11715260  0.11989676  0.11738260  1
  O  O172  1  0.12047447  0.11619090  0.63286459  1
  O  O173  1  0.12093273  0.61427431  0.11129414  1
  O  O174  1  0.11818584  0.61814224  0.61424679  1
  O  O175  1  0.62180550  0.11741356  0.12354614  1
  O  O176  1  0.61589934  0.12242161  0.62128360  1
  O  O177  1  0.62221217  0.62113233  0.12021387  1
  O  O178  1  0.63245030  0.60985852  0.62367887  1
  O  O179  1  0.37659879  0.38721343  0.37892364  1
  O  O180  1  0.38367714  0.37268509  0.88078776  1
  O  O181  1  0.38544834  0.88594308  0.36897215  1
  O  O182  1  0.39548087  0.87246799  0.88510948  1
  O  O183  1  0.88694813  0.38223338  0.36824103  1
  O  O184  1  0.87467477  0.38273316  0.87920821  1
  O  O185  1  0.88049107  0.88222059  0.37833065  1
  O  O186  1  0.88573593  0.86745961  0.88489092  1
  O  O187  1  0.25465893  0.00608140  0.37082093  1
  O  O188  1  0.24133354  0.00975187  0.86517199  1
  O  O189  1  0.25647046  0.50782840  0.37619402  1
  O  O190  1  0.25082984  0.50655765  0.86332956  1
  O  O191  1  0.76036594  0.00764724  0.38419644  1
  O  O192  1  0.75230021  -0.01197968  0.87016003  1
  O  O193  1  0.76411627  0.49740182  0.38584841  1
  O  O194  1  0.76037130  0.51082711  0.87698045  1
  O  O195  1  0.23508487  0.50156592  0.12207908  1
  O  O196  1  0.24729423  0.49599192  0.62952558  1
  O  O197  1  0.25020741  1.00588566  0.14189721  1
  O  O198  1  0.23786315  1.00409233  0.63508122  1
  O  O199  1  0.73639952  0.50053026  0.12564025  1
  O  O200  1  0.73911556  0.49023267  0.62189013  1
  O  O201  1  0.74057421  0.99010623  0.11805891  1
  O  O202  1  0.74909281  0.98778108  0.61864505  1
  O  O203  1  -0.00061075  0.36374990  0.25646037  1
  O  O204  1  0.02202104  0.39010667  0.75963879  1
  O  O205  1  0.00903268  0.87270502  0.25633123  1
  O  O206  1  0.00305891  0.87237687  0.75498503  1
  O  O207  1  0.50747698  0.36453237  0.25061309  1
  O  O208  1  0.51530201  0.37399703  0.74972092  1
  O  O209  1  0.50724105  0.87067876  0.25789959  1
  O  O210  1  0.49736780  0.86507419  0.75967733  1
  O  O211  1  0.49547719  0.13026223  0.24792989  1
  O  O212  1  0.49155108  0.12016019  0.73673669  1
  O  O213  1  0.49882521  0.63573492  0.24069532  1
  O  O214  1  0.50326112  0.64501850  0.74953382  1
  O  O215  1  0.99810874  0.13303621  0.24338106  1
  O  O216  1  0.98096756  0.11424282  0.76161801  1
  O  O217  1  0.98647186  0.63020699  0.24582396  1
  O  O218  1  0.99687215  0.62782855  0.74235947  1
  O  O219  1  0.36425818  0.25861194  -0.00200104  1
  O  O220  1  0.36505284  0.24891374  0.50871392  1
  O  O221  1  0.36449497  0.73887028  -0.00838463  1
  O  O222  1  0.36140434  0.74997157  0.50757041  1
  O  O223  1  0.88595682  0.26072132  0.00892843  1
  O  O224  1  0.86313959  0.24270813  0.50281926  1
  O  O225  1  0.86716803  0.75899994  0.00723888  1
  O  O226  1  0.86720593  0.75371604  0.50242297  1
  O  O227  1  0.13812739  0.25009225  0.48689370  1
  O  O228  1  0.13362562  0.24261807  0.99247560  1
  O  O229  1  0.13630719  0.73920598  0.50694928  1
  O  O230  1  0.12472488  0.73703789  0.99666307  1
  O  O231  1  0.63092197  0.24259372  0.49545069  1
  O  O232  1  0.62443521  0.23598588  1.01408656  1
  O  O233  1  0.63029321  0.74975838  0.49106484  1
  O  O234  1  0.63942125  0.74465207  1.00811018  1
  O  O235  1  0.50710736  0.23594419  0.13916954  1
  O  O236  1  0.48859650  0.23832220  0.61540817  1
  O  O237  1  0.50816999  0.74341939  0.13666230  1
  O  O238  1  0.48972997  0.75825004  0.63549289  1
  O  O239  1  0.99506193  0.24487736  0.12977301  1
  O  O240  1  0.98961461  0.29348527  0.62942586  1
  O  O241  1  0.98664819  0.75091088  0.12227703  1
  O  O242  1  0.99436632  0.74296962  0.62661553  1
  O  O243  1  0.00635620  0.25621443  0.36806627  1
  O  O244  1  0.01789787  0.24898182  0.88152511  1
  O  O245  1  -0.00857408  0.76419276  0.37491063  1
  O  O246  1  0.00143241  0.75801920  0.86627768  1
  O  O247  1  0.50616842  0.24781997  0.36813135  1
  O  O248  1  0.50173612  0.23457627  0.87395910  1
  O  O249  1  0.50563718  0.75732720  0.37074807  1
  O  O250  1  0.50134430  0.75345555  0.85919460  1
  O  O251  1  0.25663496  0.13237904  0.48952781  1
  O  O252  1  0.24802621  0.12617139  0.99343393  1
  O  O253  1  0.24043087  0.62952216  0.49133801  1
  O  O254  1  0.24363871  0.62985654  0.98845268  1
  O  O255  1  0.74469526  0.13127205  0.49286952  1
  O  O256  1  0.74528312  0.12037145  0.98792689  1
  O  O257  1  0.74892268  0.63849010  0.49604795  1
  O  O258  1  0.74526078  0.63406724  0.99459363  1
  O  O259  1  0.25973937  0.36378630  0.00382680  1
  O  O260  1  0.25183913  0.36393884  0.50604538  1
  O  O261  1  0.25152288  0.85655189  -0.00684242  1
  O  O262  1  0.24405028  0.86058879  0.48829210  1
  O  O263  1  0.76303293  0.38112286  0.00077973  1
  O  O264  1  0.74172640  0.36090323  0.50975275  1
  O  O265  1  0.75523865  0.87097293  0.00645887  1
  O  O266  1  0.75550560  0.86505862  0.50421200  1
  O  O267  1  0.11985582  0.50497388  0.23013713  1
  O  O268  1  0.13623789  0.49332680  0.74276600  1
  O  O269  1  0.13405269  0.99162195  0.25108138  1
  O  O270  1  0.12914427  0.99407468  0.74183210  1
  O  O271  1  0.62073344  0.48973592  0.24695037  1
  O  O272  1  0.62791839  0.49150302  0.73992301  1
  O  O273  1  0.62036597  0.98920232  0.24364972  1
  O  O274  1  0.65197976  1.00404471  0.74680906  1
  O  O275  1  0.36823845  0.00779618  0.26195738  1
  O  O276  1  0.36407082  0.00954827  0.74110369  1
  O  O277  1  0.37622857  0.50477586  0.26168978  1
  O  O278  1  0.36474717  0.50172020  0.74624282  1
  O  O279  1  0.88083835  -0.00016898  0.26290065  1
  O  O280  1  0.85896544  0.01221404  0.74566096  1
  O  O281  1  0.87982825  0.50811723  0.25697704  1
  O  O282  1  0.87326834  0.50524319  0.76338291  1
  O  O283  1  0.11791290  0.36406944  0.37356339  1
  O  O284  1  0.13133264  0.36618443  0.86974862  1
  O  O285  1  0.11357632  0.87980214  0.36520922  1
  O  O286  1  0.11211221  0.87283715  0.86272892  1
  O  O287  1  0.62253820  0.36881124  0.36790472  1
  O  O288  1  0.62170696  0.37978308  0.86057095  1
  O  O289  1  0.61758009  0.86961969  0.36846467  1
  O  O290  1  0.60317601  0.87538413  0.88243702  1
  O  O291  1  0.38698773  0.11788198  0.14038146  1
  O  O292  1  0.38129541  0.12836829  0.63076530  1
  O  O293  1  0.39064650  0.61494051  0.12102908  1
  O  O294  1  0.37167540  0.64504065  0.62472566  1
  O  O295  1  0.88144563  0.13155474  0.12318007  1
  O  O296  1  0.86881166  0.12611013  0.64078796  1
  O  O297  1  0.87416703  0.63303276  0.12861972  1
  O  O298  1  0.87920409  0.62760780  0.62844563  1
  O  O299  1  0.24391879  0.24416032  0.11191535  1
  O  O300  1  0.25566895  0.25039559  0.61643142  1
  O  O301  1  0.24921260  0.74121636  0.10447678  1
  O  O302  1  0.25547077  0.75260648  0.61128710  1
  O  O303  1  0.76564143  0.24950066  0.13007532  1
  O  O304  1  0.74919585  0.25404006  0.61613966  1
  O  O305  1  0.75834379  0.76070120  0.11653436  1
  O  O306  1  0.75581534  0.75661115  0.61562155  1
  O  O307  1  0.24558258  0.24356115  0.37958549  1
  O  O308  1  0.24276004  0.23761016  0.88431761  1
  O  O309  1  0.25652229  0.73781301  0.38779704  1
  O  O310  1  0.24513694  0.74192070  0.88250954  1
  O  O311  1  0.74682012  0.24192320  0.38373331  1
  O  O312  1  0.75100373  0.24521684  0.87808314  1
  O  O313  1  0.73999797  0.75492036  0.38221170  1
  O  O314  1  0.75882579  0.74152269  0.88491863  1
  O  O315  1  0.00455606  0.11464719  0.00210014  1
  O  O316  1  -0.00311508  0.11368120  0.49370118  1
  O  O317  1  0.00563957  0.61636747  -0.00170602  1
  O  O318  1  0.00737119  0.61860329  0.50120209  1
  O  O319  1  0.50803777  0.11709356  0.01048714  1
  O  O320  1  0.50364238  0.11643494  0.50757635  1
  O  O321  1  0.51817678  0.64406833  0.01194186  1
  O  O322  1  0.50111510  0.61306206  0.49511032  1
  O  O323  1  0.49798963  0.38696622  0.49784238  1
  O  O324  1  0.48711023  0.36676512  0.99690899  1
  O  O325  1  0.50601541  0.88388066  0.48758848  1
  O  O326  1  0.50181505  0.88918223  0.99560803  1
  O  O327  1  1.00978098  0.38775456  0.48315134  1
  O  O328  1  0.99067091  0.38475412  0.99368639  1
  O  O329  1  0.99559577  0.88021293  0.49118838  1
  O  O330  1  0.99509387  0.87793060  0.99325583  1
  O  O331  1  0.49076978  0.50044632  0.38272814  1
  O  O332  1  0.48780494  0.54353329  0.88229166  1
  O  O333  1  0.49268639  0.99540969  0.38135492  1
  O  O334  1  0.50381729  1.00158105  0.88687175  1
  O  O335  1  0.99352121  0.49372451  0.37597039  1
  O  O336  1  0.99045452  0.50197409  0.88325638  1
  O  O337  1  0.99330978  0.99189922  0.38219565  1
  O  O338  1  1.00442940  0.98866546  0.88668074  1
  O  O339  1  0.00161230  0.00234094  0.11308805  1
  O  O340  1  0.00560349  -0.00447113  0.61411245  1
  O  O341  1  0.00763784  0.49994249  0.11193531  1
  O  O342  1  0.00581386  0.50018380  0.61257087  1
  O  O343  1  0.51119605  0.01049489  0.12771887  1
  O  O344  1  0.50008681  0.00497672  0.61694666  1
  O  O345  1  0.51648817  0.51447251  0.12995012  1
  O  O346  1  0.50914656  0.49476850  0.61665666  1
  O  O347  1  0.24979460  0.37747772  0.24375983  1
  O  O348  1  0.24579638  0.38357004  0.74611140  1
  O  O349  1  0.24347359  0.88222276  0.25498982  1
  O  O350  1  0.23936113  0.88579729  0.76199982  1
  O  O351  1  0.73611028  0.36554127  0.24900125  1
  O  O352  1  0.73479383  0.37534178  0.74401051  1
  O  O353  1  0.73961715  0.86779423  0.23877925  1
  O  O354  1  0.76100359  0.88496381  0.74014953  1
  O  O355  1  0.25684502  0.11924799  0.25956300  1
  O  O356  1  0.25581114  0.11447528  0.75656189  1
  O  O357  1  0.24963318  0.62130017  0.25950663  1
  O  O358  1  0.24029367  0.61451108  0.75285958  1
  O  O359  1  0.74941021  0.12966280  0.26570125  1
  O  O360  1  0.75504140  0.11660996  0.76875427  1
  O  O361  1  0.76175447  0.63338970  0.25122708  1
  O  O362  1  0.75789351  0.62438879  0.75927121  1
  O  O363  1  0.36715080  0.11665753  0.36816112  1
  O  O364  1  0.36318665  0.12824057  0.86442551  1
  O  O365  1  0.36377194  0.61603386  0.37543959  1
  O  O366  1  0.35622802  0.62971784  0.85990283  1
  O  O367  1  0.86713064  0.11649301  0.37227999  1
  O  O368  1  0.86099215  0.12705275  0.87097970  1
  O  O369  1  0.87151463  0.61585210  0.36483878  1
  O  O370  1  0.86833224  0.61947842  0.87210988  1
  O  O371  1  0.12501940  0.38876431  0.11326640  1
  O  O372  1  0.13463801  0.37937804  0.63239521  1
  O  O373  1  0.13516641  0.87701332  0.13524336  1
  O  O374  1  0.11961950  0.88205921  0.63725718  1
  O  O375  1  0.62602092  0.38407716  0.13341012  1
  O  O376  1  0.63113506  0.37944769  0.63590651  1
  O  O377  1  0.63049956  0.88213662  0.13114010  1
  O  O378  1  0.63884173  0.87600461  0.61810963  1
  O  O379  1  0.11444716  0.24435179  0.25760283  1
  O  O380  1  0.13779908  0.26058023  0.76051936  1
  O  O381  1  0.12564059  0.76017276  0.24334593  1
  O  O382  1  0.11908831  0.75817938  0.74662622  1
  O  O383  1  0.61624645  0.25637666  0.25686506  1
  O  O384  1  0.62685565  0.25608768  0.74830807  1
  O  O385  1  0.61709234  0.76081258  0.25729511  1
  O  O386  1  0.61802280  0.75282152  0.73683275  1
  O  O387  1  0.38555943  0.23807281  0.25997538  1
  O  O388  1  0.36263894  0.23478932  0.73669966  1
  O  O389  1  0.38685965  0.74790277  0.25659330  1
  O  O390  1  0.36967622  0.74987966  0.73698858  1
  O  O391  1  0.88692453  0.24716487  0.24042345  1
  O  O392  1  0.87056269  0.23291041  0.74911508  1
  O  O393  1  0.87584143  0.74468180  0.23923213  1
  O  O394  1  0.88121956  0.74290885  0.74270563  1
  O  O395  1  0.38107618  0.49988613  0.49392520  1
  O  O396  1  0.36485506  0.48100344  0.99008224  1
  O  O397  1  0.38435402  1.00628340  0.49026065  1
  O  O398  1  0.39384636  1.00857797  1.00101542  1
  O  O399  1  0.88974296  0.50821168  0.48829598  1
  O  O400  1  0.88130234  0.49455390  0.99305446  1
  O  O401  1  0.88404689  0.99457364  0.49094053  1
  O  O402  1  0.88464557  0.98627719  1.00548358  1
  O  O403  1  0.11756172  0.00208626  0.00029332  1
  O  O404  1  0.11545007  -0.00272405  0.51129477  1
  O  O405  1  0.11885756  0.50675729  0.00204670  1
  O  O406  1  0.11769266  0.50861471  0.50148759  1
  O  O407  1  0.61486925  0.00932474  0.01184950  1
  O  O408  1  0.61215650  0.00585571  0.49868690  1
  O  O409  1  0.62984351  0.51308278  0.00959044  1
  O  O410  1  0.61622095  0.50175421  0.50703024  1
  O  O411  1  0.37796899  0.38109211  0.11145161  1
  O  O412  1  0.36983123  0.36194658  0.62656965  1
  O  O413  1  0.36846441  0.88063831  0.11592852  1
  O  O414  1  0.37435273  0.86159062  0.62494233  1
  O  O415  1  0.87373144  0.36863196  0.11675289  1
  O  O416  1  0.85168805  0.37896203  0.63841009  1
  O  O417  1  0.86812093  0.86986596  0.11859208  1
  O  O418  1  0.86818777  0.86844080  0.61772683  1
  O  O419  1  0.13606833  0.13347210  0.36946715  1
  O  O420  1  0.13395822  0.13039361  0.87902855  1
  O  O421  1  0.13207591  0.61880336  0.38246683  1
  O  O422  1  0.13257213  0.62367104  0.88104561  1
  O  O423  1  0.63222173  0.12797290  0.38132928  1
  O  O424  1  0.64366052  0.12478108  0.88506194  1
  O  O425  1  0.62597391  0.63800815  0.37224638  1
  O  O426  1  0.64093212  0.61992894  0.88362045  1
