# generated using pymatgen
data_V85Zn86O256
_symmetry_space_group_name_H-M   'P 1'
_cell_length_a   16.99660787
_cell_length_b   16.99134664
_cell_length_c   16.99732775
_cell_angle_alpha   89.85448117
_cell_angle_beta   90.12412769
_cell_angle_gamma   89.86000862
_symmetry_Int_Tables_number   1
_chemical_formula_structural   V85Zn86O256
_chemical_formula_sum   'V85 Zn86 O256'
_cell_volume   4908.70555035
_cell_formula_units_Z   1
loop_
 _symmetry_equiv_pos_site_id
 _symmetry_equiv_pos_as_xyz
  1  'x, y, z'
loop_
 _atom_site_type_symbol
 _atom_site_label
 _atom_site_symmetry_multiplicity
 _atom_site_fract_x
 _atom_site_fract_y
 _atom_site_fract_z
 _atom_site_occupancy
  V  V0  1  0.73983860  0.75224795  0.48262253  1
  V  V1  1  0.25595681  0.50570158  0.25098945  1
  V  V2  1  0.87379921  0.87555174  -0.00361827  1
  V  V3  1  0.00984784  0.01907907  0.50503913  1
  V  V4  1  0.36981132  0.87806566  0.50492227  1
  V  V5  1  0.74864386  0.12611017  0.37111171  1
  V  V6  1  0.50107849  0.24871387  0.75038254  1
  V  V7  1  0.36982719  -0.00087329  0.87266715  1
  V  V8  1  0.85983719  0.75292512  0.62450468  1
  V  V9  1  0.37338517  0.37653447  0.50050246  1
  V  V10  1  0.37085698  0.12129686  0.75074555  1
  V  V11  1  0.12493528  0.62365085  -0.00037089  1
  V  V12  1  -0.00077416  0.75857304  0.74796589  1
  V  V13  1  0.87654889  0.12313052  0.25145328  1
  V  V14  1  0.25433246  0.61941093  0.86514810  1
  V  V15  1  0.49889277  0.87335549  0.87643282  1
  V  V16  1  0.49938523  0.50023460  0.50010175  1
  V  V17  1  0.74430650  0.37773022  0.13207105  1
  V  V18  1  0.63270054  0.50033601  0.62579623  1
  V  V19  1  0.12641412  0.12392206  -0.00027802  1
  V  V20  1  0.50461463  -0.00218060  0.00803734  1
  V  V21  1  0.36893622  0.75222156  0.62646651  1
  V  V22  1  0.50090934  0.37286606  0.87644448  1
  V  V23  1  0.00797452  0.25039286  0.25584135  1
  V  V24  1  0.37668348  0.00614375  0.37757761  1
  V  V25  1  0.75096007  0.24482761  -0.00323461  1
  V  V26  1  0.12599277  0.24990326  0.87497726  1
  V  V27  1  0.00086601  0.00024650  -0.00232614  1
  V  V28  1  0.13896560  0.88547391  0.74181235  1
  V  V29  1  0.25194609  0.37177817  0.12685026  1
  V  V30  1  0.12331162  0.74989050  0.87444123  1
  V  V31  1  0.62512609  0.62914781  0.48933571  1
  V  V32  1  0.86815886  0.13081500  0.73960109  1
  V  V33  1  0.00142438  0.37816049  0.37311526  1
  V  V34  1  0.50647756  0.37381855  0.37430346  1
  V  V35  1  0.50645709  0.11630263  0.62032808  1
  V  V36  1  -0.00042431  0.24491342  0.73437245  1
  V  V37  1  0.87282514  0.62406581  0.74993398  1
  V  V38  1  0.13082739  0.37881760  0.74509662  1
  V  V39  1  0.75588223  0.36623562  0.62679993  1
  V  V40  1  0.37210126  0.74611507  0.13260463  1
  V  V41  1  0.74912399  0.74847478  0.00076266  1
  V  V42  1  0.49277181  0.12466179  0.12791130  1
  V  V43  1  0.24157033  0.25230818  0.49401483  1
  V  V44  1  0.00012983  0.37452890  0.87454282  1
  V  V45  1  0.49483473  0.74548797  0.75118399  1
  V  V46  1  0.12724456  0.50054567  0.62357916  1
  V  V47  1  0.00331910  0.75457477  0.26113728  1
  V  V48  1  0.86856741  0.61971156  0.26043205  1
  V  V49  1  0.62590504  0.12098636  0.00599742  1
  V  V50  1  0.62661054  0.24409268  0.87631363  1
  V  V51  1  0.63143584  0.88514048  0.74552820  1
  V  V52  1  0.62266730  0.62268523  0.00094465  1
  V  V53  1  0.24880193  -0.00049536  0.25331718  1
  V  V54  1  0.87623958  0.25028076  0.12476524  1
  V  V55  1  0.25390943  0.24702279  0.00319499  1
  V  V56  1  0.12607072  0.49834576  0.12650375  1
  V  V57  1  0.24585829  0.87389240  0.12635945  1
  V  V58  1  0.24147603  0.75298095  0.49726684  1
  V  V59  1  0.23420193  0.13011835  0.37557769  1
  V  V60  1  0.49453266  0.62288749  0.62845462  1
  V  V61  1  0.37402462  0.87463051  0.00264362  1
  V  V62  1  0.49919668  0.49852797  0.00091883  1
  V  V63  1  0.49470616  0.62383594  0.12946976  1
  V  V64  1  0.62378143  0.74837519  0.87432640  1
  V  V65  1  0.37410070  0.25408379  0.62298047  1
  V  V66  1  0.88235170  0.87166371  0.48975089  1
  V  V67  1  -0.00032214  0.62459474  0.12502877  1
  V  V68  1  0.86300926  0.01246170  0.87118858  1
  V  V69  1  0.00022990  0.49762925  0.00021739  1
  V  V70  1  -0.00806161  0.50415791  0.49303826  1
  V  V71  1  0.74529333  -0.00059566  0.24098709  1
  V  V72  1  0.37498865  0.37113650  0.00017124  1
  V  V73  1  0.24941338  0.62917775  0.37370425  1
  V  V74  1  0.50384514  0.87140369  0.37562087  1
  V  V75  1  -0.00189577  0.62777453  0.62445363  1
  V  V76  1  0.74976208  0.62295196  0.87580080  1
  V  V77  1  0.87339688  0.37158082  0.49716655  1
  V  V78  1  0.50084410  0.25711216  0.24479025  1
  V  V79  1  0.62243065  0.87586503  0.24258856  1
  V  V80  1  0.50162196  0.74601958  0.25509527  1
  V  V81  1  0.00194237  0.12500888  0.12556292  1
  V  V82  1  0.87638960  0.37402977  -0.00063296  1
  V  V83  1  0.87272899  0.75039007  0.12368492  1
  V  V84  1  0.12314442  0.87135746  0.26568314  1
  Zn  Zn85  1  0.74462355  0.49234521  0.27036669  1
  Zn  Zn86  1  0.62051965  0.49325193  0.13286635  1
  Zn  Zn87  1  0.13230890  0.37087267  0.26137662  1
  Zn  Zn88  1  0.87398684  0.49875909  0.87510848  1
  Zn  Zn89  1  0.88349603  -0.01536542  0.36617543  1
  Zn  Zn90  1  0.37119896  0.13178012  0.24723710  1
  Zn  Zn91  1  0.51888883  -0.00834060  0.50385320  1
  Zn  Zn92  1  0.62705828  0.24901763  0.37588391  1
  Zn  Zn93  1  0.70055195  -0.06127689  0.58884904  1
  Zn  Zn94  1  0.24715138  0.12006884  0.87217974  1
  Zn  Zn95  1  0.62743352  0.37387300  0.75025428  1
  Zn  Zn96  1  0.75151387  0.24647406  0.50037053  1
  Zn  Zn97  1  0.12396964  -0.00241389  0.12704734  1
  Zn  Zn98  1  0.37758641  0.50474496  0.37013735  1
  Zn  Zn99  1  0.26486997  0.49689916  0.73450852  1
  Zn  Zn100  1  0.37987924  0.50356151  0.86609890  1
  Zn  Zn101  1  0.25010949  0.74630484  0.00025817  1
  Zn  Zn102  1  0.63637944  0.11740183  0.50389474  1
  Zn  Zn103  1  0.11912270  0.63337995  0.49232250  1
  Zn  Zn104  1  0.74228730  0.87895561  0.11940545  1
  Zn  Zn105  1  0.75003246  0.49772509  0.75303369  1
  Zn  Zn106  1  0.00000898  0.88035984  0.87123964  1
  Zn  Zn107  1  0.18843337  0.18475081  0.18688584  1
  Zn  Zn108  1  0.19266499  0.19479533  0.68659365  1
  Zn  Zn109  1  0.18531951  0.68597708  0.19044275  1
  Zn  Zn110  1  0.18479644  0.69020996  0.68634100  1
  Zn  Zn111  1  0.68257769  0.19059009  0.18708825  1
  Zn  Zn112  1  0.68735431  0.18371166  0.69015037  1
  Zn  Zn113  1  0.68039134  0.68093644  0.19294136  1
  Zn  Zn114  1  0.68246960  0.68726314  0.68732449  1
  Zn  Zn115  1  0.31910397  0.31267079  0.31407931  1
  Zn  Zn116  1  0.31374190  0.31154683  0.81383997  1
  Zn  Zn117  1  0.31419141  0.81431120  0.31688550  1
  Zn  Zn118  1  0.31104992  0.81030409  0.81431502  1
  Zn  Zn119  1  0.81934081  0.31210400  0.31541222  1
  Zn  Zn120  1  0.81430237  0.30861521  0.81263734  1
  Zn  Zn121  1  0.80814943  0.80741095  0.30608557  1
  Zn  Zn122  1  0.81256315  0.81547809  0.81477275  1
  Zn  Zn123  1  0.18471360  0.44172353  0.43829181  1
  Zn  Zn124  1  0.18670571  0.43687330  0.93536524  1
  Zn  Zn125  1  0.18726996  0.94330079  0.44409231  1
  Zn  Zn126  1  0.18571858  0.93385348  0.93585300  1
  Zn  Zn127  1  0.68337523  0.43561558  0.44382397  1
  Zn  Zn128  1  0.68724234  0.43614981  0.94180379  1
  Zn  Zn129  1  0.69249647  0.93891986  0.42354386  1
  Zn  Zn130  1  0.68629788  0.93587412  0.93252089  1
  Zn  Zn131  1  0.31377646  0.05917114  0.06248017  1
  Zn  Zn132  1  0.31641198  0.07313388  0.55642957  1
  Zn  Zn133  1  0.31188657  0.55958327  0.05800238  1
  Zn  Zn134  1  0.31110524  0.56814115  0.55687151  1
  Zn  Zn135  1  0.81529970  0.06287365  0.06206033  1
  Zn  Zn136  1  0.82350811  0.06674240  0.55571278  1
  Zn  Zn137  1  0.81471401  0.56181941  0.06465958  1
  Zn  Zn138  1  0.80840233  0.56529615  0.44071812  1
  Zn  Zn139  1  0.43454645  0.43521892  0.18589419  1
  Zn  Zn140  1  0.44179728  0.43532927  0.68831541  1
  Zn  Zn141  1  0.43388707  0.93705948  0.18990821  1
  Zn  Zn142  1  0.43937266  0.93484113  0.69071910  1
  Zn  Zn143  1  0.93477342  0.43721895  0.18833704  1
  Zn  Zn144  1  0.93936537  0.43832364  0.68513784  1
  Zn  Zn145  1  0.93710930  0.93503571  0.18400447  1
  Zn  Zn146  1  0.89052187  0.96040524  0.66224398  1
  Zn  Zn147  1  0.05906192  0.05291315  0.31825838  1
  Zn  Zn148  1  0.05960705  0.06364116  0.81073083  1
  Zn  Zn149  1  0.06699797  0.56428702  0.31123934  1
  Zn  Zn150  1  0.06226702  0.56269027  0.81178605  1
  Zn  Zn151  1  0.56262830  0.06043164  0.31033569  1
  Zn  Zn152  1  0.55802508  0.06290640  0.81686938  1
  Zn  Zn153  1  0.56398507  0.55662777  0.30974959  1
  Zn  Zn154  1  0.56274021  0.55924039  0.81213070  1
  Zn  Zn155  1  0.43916701  0.19035911  0.43689702  1
  Zn  Zn156  1  0.43809308  0.18484238  0.93839792  1
  Zn  Zn157  1  0.43211459  0.68663247  0.44041935  1
  Zn  Zn158  1  0.43469107  0.68777731  0.94155382  1
  Zn  Zn159  1  0.94068962  0.18988322  0.43745710  1
  Zn  Zn160  1  0.94109746  0.18912647  0.93442592  1
  Zn  Zn161  1  0.93611729  0.69532915  0.43899871  1
  Zn  Zn162  1  0.93825221  0.68643900  0.93636808  1
  Zn  Zn163  1  0.06571868  0.31094198  0.06482686  1
  Zn  Zn164  1  0.06140945  0.31887890  0.55962681  1
  Zn  Zn165  1  0.06016022  0.81156380  0.06301123  1
  Zn  Zn166  1  0.05973236  0.82499458  0.56826422  1
  Zn  Zn167  1  0.56305576  0.30862601  0.06347671  1
  Zn  Zn168  1  0.56754289  0.30668871  0.55916147  1
  Zn  Zn169  1  0.56030794  0.80740448  0.06405960  1
  Zn  Zn170  1  0.55926090  0.81053692  0.56491066  1
  O  O171  1  0.11972323  0.11976212  0.11797958  1
  O  O172  1  0.16175402  0.09150024  0.62907580  1
  O  O173  1  0.11942951  0.61899927  0.11985836  1
  O  O174  1  0.10936620  0.62150542  0.62681410  1
  O  O175  1  0.61246621  0.12908998  0.11266057  1
  O  O176  1  0.60923808  0.12615834  0.62974146  1
  O  O177  1  0.60813280  0.63220122  0.11586322  1
  O  O178  1  0.61464120  0.61851712  0.61891863  1
  O  O179  1  0.38717337  0.37804510  0.38551053  1
  O  O180  1  0.38180450  0.37372280  0.88574649  1
  O  O181  1  0.38256868  0.88575586  0.38335768  1
  O  O182  1  0.37945776  0.87909848  0.88166948  1
  O  O183  1  0.88865293  0.37617626  0.38258000  1
  O  O184  1  0.88166036  0.37499583  0.88167749  1
  O  O185  1  0.86625177  0.86599985  0.38544091  1
  O  O186  1  0.87832203  0.88846917  0.87816909  1
  O  O187  1  0.25674635  0.01037486  0.37317274  1
  O  O188  1  0.26601261  0.00110774  0.88606113  1
  O  O189  1  0.25091343  0.50541742  0.36668763  1
  O  O190  1  0.24737410  0.51294869  0.87249057  1
  O  O191  1  0.75989977  0.00809524  0.35760606  1
  O  O192  1  0.76447285  0.00133943  0.87937956  1
  O  O193  1  0.75587541  0.48871616  0.38051307  1
  O  O194  1  0.75189617  0.50619240  0.87424474  1
  O  O195  1  0.24646594  0.49293399  0.13087676  1
  O  O196  1  0.23229439  0.51387162  0.62303356  1
  O  O197  1  0.25131249  0.98857762  0.13279013  1
  O  O198  1  0.21816675  1.03991120  0.62375702  1
  O  O199  1  0.75209927  0.48153811  0.11933076  1
  O  O200  1  0.73629309  0.48923373  0.62788119  1
  O  O201  1  0.75608538  0.99786301  0.13627767  1
  O  O202  1  0.78255570  0.99607853  0.63270766  1
  O  O203  1  -0.00076016  0.36835466  0.25628478  1
  O  O204  1  0.00610132  0.36508272  0.75362150  1
  O  O205  1  0.00635246  0.86279489  0.24443234  1
  O  O206  1  0.00523522  0.86125733  0.75124448  1
  O  O207  1  0.49554711  0.36466443  0.25549150  1
  O  O208  1  0.50482776  0.36427029  0.75758672  1
  O  O209  1  0.50403096  0.86920862  0.25558898  1
  O  O210  1  0.50704175  0.86442703  0.75700481  1
  O  O211  1  0.49832089  0.12905604  0.24157849  1
  O  O212  1  0.49161444  0.12936776  0.74234556  1
  O  O213  1  0.50126069  0.63374113  0.24010261  1
  O  O214  1  0.50593456  0.63497043  0.74141692  1
  O  O215  1  0.99432143  0.12903696  0.24668545  1
  O  O216  1  0.99974821  0.14152740  0.75152199  1
  O  O217  1  0.99283907  0.63569089  0.24539643  1
  O  O218  1  0.99238621  0.63405732  0.74532325  1
  O  O219  1  0.36559942  0.25802536  -0.00512521  1
  O  O220  1  0.37300264  0.25870415  0.50572171  1
  O  O221  1  0.37407832  0.75758883  0.01354299  1
  O  O222  1  0.36795267  0.75943305  0.50870092  1
  O  O223  1  0.86872851  0.25182267  0.00399999  1
  O  O224  1  0.87339771  0.26710055  0.49600468  1
  O  O225  1  0.87063868  0.75368331  0.00521836  1
  O  O226  1  0.85673958  0.75179621  0.50290719  1
  O  O227  1  0.14389797  0.25969833  0.50753939  1
  O  O228  1  0.13376881  0.24444854  0.99543047  1
  O  O229  1  0.13918615  0.75640359  0.51109621  1
  O  O230  1  0.12277558  0.74357651  0.99030876  1
  O  O231  1  0.63248648  0.23750507  0.49505333  1
  O  O232  1  0.63132950  0.24137707  0.99509248  1
  O  O233  1  0.63428555  0.74435113  0.50750808  1
  O  O234  1  0.62817433  0.74396944  0.99357989  1
  O  O235  1  0.50179274  0.24375305  0.13745252  1
  O  O236  1  0.49255071  0.23974163  0.62941601  1
  O  O237  1  0.48988041  0.74356710  0.13324594  1
  O  O238  1  0.49166437  0.74180404  0.63224210  1
  O  O239  1  0.99543406  0.24459947  0.13166230  1
  O  O240  1  1.00353190  0.25431852  0.63600346  1
  O  O241  1  0.98873372  0.74425687  0.12745349  1
  O  O242  1  0.99429183  0.74330671  0.63200050  1
  O  O243  1  -0.00444810  0.25926519  0.36319264  1
  O  O244  1  0.00968301  0.25747103  0.87105074  1
  O  O245  1  -0.00063195  0.74819331  0.35922099  1
  O  O246  1  0.00817422  0.74812079  0.86645718  1
  O  O247  1  0.50220016  0.25703732  0.36689707  1
  O  O248  1  0.50750628  0.25312509  0.87267260  1
  O  O249  1  0.48531565  0.76040349  0.36548501  1
  O  O250  1  0.50152578  0.75186633  0.86922601  1
  O  O251  1  0.25617696  0.14285132  0.48789361  1
  O  O252  1  0.24664124  0.13262105  1.00132700  1
  O  O253  1  0.24326396  0.63637895  0.49343141  1
  O  O254  1  0.24090369  0.62517970  0.99150141  1
  O  O255  1  0.76037543  0.12677426  0.48362902  1
  O  O256  1  0.74098893  0.13587160  1.01064612  1
  O  O257  1  0.73985339  0.64038293  0.49635062  1
  O  O258  1  0.74421974  0.62896906  0.99675404  1
  O  O259  1  0.25579177  0.36801125  0.00500343  1
  O  O260  1  0.26261889  0.36492497  0.48979266  1
  O  O261  1  0.25397848  0.87164217  0.01117721  1
  O  O262  1  0.26272759  0.86886780  0.49333344  1
  O  O263  1  0.75596603  0.36311232  0.00852350  1
  O  O264  1  0.75666634  0.37384335  0.51254933  1
  O  O265  1  0.75431494  0.86739227  0.00030815  1
  O  O266  1  0.74935957  0.86204780  0.49928024  1
  O  O267  1  0.13584122  0.49506144  0.24294557  1
  O  O268  1  0.12103678  0.49291161  0.74076530  1
  O  O269  1  0.12914936  0.98859451  0.24801009  1
  O  O270  1  0.12036797  0.98233558  0.76398494  1
  O  O271  1  0.64185128  0.52557239  0.23783785  1
  O  O272  1  0.62673061  0.49544299  0.74083021  1
  O  O273  1  0.63417846  0.98940507  0.25164487  1
  O  O274  1  0.61764106  0.98389802  0.76056362  1
  O  O275  1  0.36733045  -0.00148575  0.26269434  1
  O  O276  1  0.38287424  0.00736715  0.76162911  1
  O  O277  1  0.36034130  0.49451097  0.24994468  1
  O  O278  1  0.37469441  0.49453007  0.75319058  1
  O  O279  1  0.87097382  0.00790270  0.24771803  1
  O  O280  1  0.88560105  0.01804219  0.76461953  1
  O  O281  1  0.87132573  0.51782117  0.24351667  1
  O  O282  1  0.87538225  0.51333358  0.75065842  1
  O  O283  1  0.10822898  0.37795601  0.37754208  1
  O  O284  1  0.11930184  0.37034668  0.86605268  1
  O  O285  1  0.13275139  0.87527689  0.36344196  1
  O  O286  1  0.12209759  0.86192058  0.86994184  1
  O  O287  1  0.60950455  0.37352074  0.38123841  1
  O  O288  1  0.61938760  0.36160523  0.87839916  1
  O  O289  1  0.60976359  0.87837304  0.36406714  1
  O  O290  1  0.61690771  0.86663943  0.86906095  1
  O  O291  1  0.38766397  0.12197029  0.12560900  1
  O  O292  1  0.38448773  0.13222505  0.63190300  1
  O  O293  1  0.38359404  0.63399813  0.11715232  1
  O  O294  1  0.38772563  0.63420455  0.61821837  1
  O  O295  1  0.88151422  0.12997414  0.13341032  1
  O  O296  1  0.87794864  0.12797931  0.64142273  1
  O  O297  1  0.88015899  0.63426981  0.13131290  1
  O  O298  1  0.88628870  0.63659551  0.63652761  1
  O  O299  1  0.24492366  0.25838595  0.11396123  1
  O  O300  1  0.26480531  0.24367223  0.60967188  1
  O  O301  1  0.25626275  0.75600926  0.12703880  1
  O  O302  1  0.26358978  0.74089884  0.61807448  1
  O  O303  1  0.75500892  0.25767190  0.11806667  1
  O  O304  1  0.74534074  0.26415573  0.62532853  1
  O  O305  1  0.75984315  0.74806843  0.11977100  1
  O  O306  1  0.75718759  0.74445879  0.62139768  1
  O  O307  1  0.25457904  0.24498307  0.38426412  1
  O  O308  1  0.24400539  0.24897192  0.88671073  1
  O  O309  1  0.25693008  0.74372790  0.38579825  1
  O  O310  1  0.24021309  0.73850003  0.87676321  1
  O  O311  1  0.74889337  0.23858678  0.36924451  1
  O  O312  1  0.74103097  0.25520980  0.88765255  1
  O  O313  1  0.74235587  0.75212844  0.38408745  1
  O  O314  1  0.74457566  0.74281935  0.88195071  1
  O  O315  1  0.00565869  0.11928397  0.00565742  1
  O  O316  1  -0.00726502  0.11953740  0.50666626  1
  O  O317  1  0.00477934  0.61822885  0.00466740  1
  O  O318  1  -0.00172729  0.62330863  0.50674823  1
  O  O319  1  0.50482278  0.11762126  0.00808507  1
  O  O320  1  0.49974180  0.12233312  0.51401460  1
  O  O321  1  0.50242302  0.61877401  0.00698570  1
  O  O322  1  0.50428006  0.62208041  0.51025315  1
  O  O323  1  0.49404463  0.37897462  0.49408617  1
  O  O324  1  0.49241047  0.37611866  0.99897117  1
  O  O325  1  0.49168317  0.87352231  0.49217933  1
  O  O326  1  0.49606651  0.88022503  0.99771729  1
  O  O327  1  0.99182436  0.38394023  0.49433099  1
  O  O328  1  0.99656582  0.37747892  0.99595682  1
  O  O329  1  0.98190853  0.85505748  0.49172171  1
  O  O330  1  0.99330949  0.88443390  0.99916042  1
  O  O331  1  0.49750971  0.49240941  0.38029213  1
  O  O332  1  0.50163133  0.49176910  0.88368206  1
  O  O333  1  0.49246967  0.99184071  0.37885132  1
  O  O334  1  0.48978824  0.99363370  0.88741929  1
  O  O335  1  1.00505073  0.49639186  0.38428910  1
  O  O336  1  0.99980255  0.49264165  0.88179743  1
  O  O337  1  0.99267159  1.00357073  0.39354188  1
  O  O338  1  0.99257095  1.00163369  0.88843158  1
  O  O339  1  -0.00151824  0.00510046  0.11279025  1
  O  O340  1  -0.01571330  -0.01258972  0.59915325  1
  O  O341  1  0.00570587  0.50402789  0.12086609  1
  O  O342  1  0.00381156  0.51045363  0.61669624  1
  O  O343  1  0.49518173  0.00449359  0.11482558  1
  O  O344  1  0.49331522  0.01317534  0.62382916  1
  O  O345  1  0.49771656  0.50794811  0.12113318  1
  O  O346  1  0.50866245  0.50590866  0.62064148  1
  O  O347  1  0.25086901  0.37823716  0.24201648  1
  O  O348  1  0.23470018  0.37516070  0.75410686  1
  O  O349  1  0.24263057  0.87737509  0.24470230  1
  O  O350  1  0.23847427  0.87211212  0.75471004  1
  O  O351  1  0.75999100  0.37311687  0.23449209  1
  O  O352  1  0.75180545  0.37508414  0.73851173  1
  O  O353  1  0.73978212  0.88052328  0.24764502  1
  O  O354  1  0.73036271  0.86865621  0.75599508  1
  O  O355  1  0.25317684  0.12013671  0.25757323  1
  O  O356  1  0.26731025  0.13453178  0.75423046  1
  O  O357  1  0.24634168  0.61609649  0.25706288  1
  O  O358  1  0.24387679  0.62335484  0.76295845  1
  O  O359  1  0.75660867  0.11942367  0.24956964  1
  O  O360  1  0.76940999  0.14034076  0.75420708  1
  O  O361  1  0.76920666  0.63676527  0.24926029  1
  O  O362  1  0.75817950  0.62603726  0.75618457  1
  O  O363  1  0.37402079  0.11369886  0.37599751  1
  O  O364  1  0.37766361  0.11607413  0.86780190  1
  O  O365  1  0.35825106  0.61953200  0.38466134  1
  O  O366  1  0.35744582  0.62655249  0.88123505  1
  O  O367  1  0.86817916  0.12913627  0.35878177  1
  O  O368  1  0.87739938  0.11591773  0.87423815  1
  O  O369  1  0.87740949  0.62723235  0.36452880  1
  O  O370  1  0.86956728  0.62592689  0.86504281  1
  O  O371  1  0.13866266  0.38074340  0.12351960  1
  O  O372  1  0.11667067  0.38928585  0.63367278  1
  O  O373  1  0.13559710  0.87361276  0.12967726  1
  O  O374  1  0.12559830  0.87450983  0.64289847  1
  O  O375  1  0.64044435  0.37185381  0.12199962  1
  O  O376  1  0.63470058  0.38077653  0.62368309  1
  O  O377  1  0.62350834  0.87014486  0.13705298  1
  O  O378  1  0.61845919  0.87550539  0.63985499  1
  O  O379  1  0.11177956  0.25255134  0.24206853  1
  O  O380  1  0.11748545  0.25635811  0.75077339  1
  O  O381  1  0.10980364  0.75578474  0.24310083  1
  O  O382  1  0.11792053  0.75540079  0.75724237  1
  O  O383  1  0.60704297  0.24330249  0.25585472  1
  O  O384  1  0.62038615  0.24746162  0.76251737  1
  O  O385  1  0.60960735  0.75759280  0.24856497  1
  O  O386  1  0.61284102  0.75558194  0.75537094  1
  O  O387  1  0.39336025  0.24570261  0.25669686  1
  O  O388  1  0.38088312  0.24490592  0.74266631  1
  O  O389  1  0.38375547  0.75780220  0.23914309  1
  O  O390  1  0.38618137  0.75794230  0.74178372  1
  O  O391  1  0.88525360  0.24099643  0.24313483  1
  O  O392  1  0.89175931  0.24237711  0.75701570  1
  O  O393  1  0.88584369  0.74524955  0.24209492  1
  O  O394  1  0.87950656  0.74627399  0.74458491  1
  O  O395  1  0.38086617  0.48975539  0.50497553  1
  O  O396  1  0.38033543  0.48798173  0.99447546  1
  O  O397  1  0.37251309  0.99260508  0.49429941  1
  O  O398  1  0.38483158  0.99361285  0.99479515  1
  O  O399  1  0.88703402  0.49460734  0.49928234  1
  O  O400  1  0.88340661  0.49317123  0.99941562  1
  O  O401  1  0.87672330  0.97787419  0.49176312  1
  O  O402  1  0.88105306  0.99818108  0.99108663  1
  O  O403  1  0.11595026  0.00353786  0.00002263  1
  O  O404  1  0.10946453  -0.00234383  0.50084189  1
  O  O405  1  0.11947639  0.50331912  0.00630128  1
  O  O406  1  0.11246165  0.50262018  0.50948202  1
  O  O407  1  0.61431636  0.00783558  -0.00899423  1
  O  O408  1  0.63523565  -0.00151332  0.50580055  1
  O  O409  1  0.61709052  0.50476799  0.00754254  1
  O  O410  1  0.61829071  0.50936934  0.50910234  1
  O  O411  1  0.36264461  0.37831021  0.11242215  1
  O  O412  1  0.38460427  0.36331892  0.61435946  1
  O  O413  1  0.36472131  0.86751523  0.12310426  1
  O  O414  1  0.38321947  0.86591025  0.61521308  1
  O  O415  1  0.86867229  0.36827688  0.11803675  1
  O  O416  1  0.86156309  0.38290370  0.61723508  1
  O  O417  1  0.87184152  0.86380309  0.11758302  1
  O  O418  1  0.87592653  0.85769358  0.60753491  1
  O  O419  1  0.13594387  0.12345750  0.36962941  1
  O  O420  1  0.12764941  0.13116086  0.88165550  1
  O  O421  1  0.14031943  0.62355912  0.37695557  1
  O  O422  1  0.13145926  0.63168936  0.87849442  1
  O  O423  1  0.64034691  0.11890726  0.37439316  1
  O  O424  1  0.61612437  0.13575117  0.88902602  1
  O  O425  1  0.61066066  0.62462532  0.39162860  1
  O  O426  1  0.62888251  0.62905429  0.88111074  1
