# generated using pymatgen
data_V85Zn86O256
_symmetry_space_group_name_H-M   'P 1'
_cell_length_a   16.96351575
_cell_length_b   16.96417090
_cell_length_c   16.96457241
_cell_angle_alpha   89.89621930
_cell_angle_beta   89.91874918
_cell_angle_gamma   90.12088414
_symmetry_Int_Tables_number   1
_chemical_formula_structural   V85Zn86O256
_chemical_formula_sum   'V85 Zn86 O256'
_cell_volume   4881.90478834
_cell_formula_units_Z   1
loop_
 _symmetry_equiv_pos_site_id
 _symmetry_equiv_pos_as_xyz
  1  'x, y, z'
loop_
 _atom_site_type_symbol
 _atom_site_label
 _atom_site_symmetry_multiplicity
 _atom_site_fract_x
 _atom_site_fract_y
 _atom_site_fract_z
 _atom_site_occupancy
  V  V0  1  0.75236037  0.50028135  0.74834693  1
  V  V1  1  0.75123043  0.87548267  0.62373879  1
  V  V2  1  0.50163272  0.75052142  0.24935406  1
  V  V3  1  0.75561723  0.25110592  0.50218291  1
  V  V4  1  0.62481686  0.37907438  0.74446126  1
  V  V5  1  0.12430916  0.75108782  0.87519388  1
  V  V6  1  0.11858727  0.00288886  0.12806038  1
  V  V7  1  0.25193195  0.49988946  0.74925335  1
  V  V8  1  0.62173835  0.37325224  0.25035523  1
  V  V9  1  0.87566565  0.12886650  0.74467047  1
  V  V10  1  0.50273323  0.50586831  0.50322941  1
  V  V11  1  0.49630890  0.37102873  0.37275975  1
  V  V12  1  0.74509404  0.62850334  0.87645172  1
  V  V13  1  0.74886708  0.49651315  0.24711042  1
  V  V14  1  0.50369290  0.62159653  0.11374207  1
  V  V15  1  0.87117684  0.62592851  0.24985533  1
  V  V16  1  0.12411142  0.87767955  0.75108172  1
  V  V17  1  0.24637871  0.12621246  0.38949389  1
  V  V18  1  0.12694303  0.24372121  0.39047422  1
  V  V19  1  0.87629433  -0.00218854  0.88087424  1
  V  V20  1  0.37016483  0.50337060  0.37484420  1
  V  V21  1  0.38953385  0.49499220  0.87751260  1
  V  V22  1  0.62822091  0.25377492  0.87338130  1
  V  V23  1  0.24339791  -0.00442006  0.25282363  1
  V  V24  1  0.37758807  0.62795914  0.74421099  1
  V  V25  1  0.01374451  0.75300194  0.25338967  1
  V  V26  1  0.75149056  0.36307613  0.12256330  1
  V  V27  1  0.37588586  0.12573189  0.25370222  1
  V  V28  1  0.74545472  0.75077663  -0.00033650  1
  V  V29  1  0.87566132  -0.00564964  0.37940507  1
  V  V30  1  0.37041491  0.36219025  0.50374158  1
  V  V31  1  0.25492949  0.87507755  0.61548722  1
  V  V32  1  0.00196809  0.12188575  0.61453489  1
  V  V33  1  0.62538615  -0.00084258  0.62823125  1
  V  V34  1  0.62454598  0.12635097  0.50029676  1
  V  V35  1  0.24807015  0.73764773  0.49234321  1
  V  V36  1  0.12097025  0.49788429  0.11866166  1
  V  V37  1  0.49878472  0.12896921  0.12982855  1
  V  V38  1  0.87254656  0.75400069  0.12310253  1
  V  V39  1  0.62195761  0.24934607  0.37315502  1
  V  V40  1  0.00248512  0.37848165  0.87969034  1
  V  V41  1  0.11895745  0.12336452  0.00343489  1
  V  V42  1  0.12623966  0.37451456  0.75017403  1
  V  V43  1  0.49535114  -0.00681719  0.50193019  1
  V  V44  1  0.25005286  0.62487426  0.87455489  1
  V  V45  1  -0.00245618  0.87786251  0.88432477  1
  V  V46  1  0.37420679  0.12933255  0.75279914  1
  V  V47  1  0.62685403  0.74110656  0.37878283  1
  V  V48  1  0.87184634  0.36479913  -0.00094868  1
  V  V49  1  0.25371120  -0.00040460  0.75592065  1
  V  V50  1  0.00671628  0.37111608  0.36776779  1
  V  V51  1  0.24864823  0.74897004  0.00118244  1
  V  V52  1  0.62823170  0.13171256  0.00235833  1
  V  V53  1  0.00791799  0.24402671  0.24082680  1
  V  V54  1  0.87922037  0.62645701  0.75050805  1
  V  V55  1  -0.00400347  0.62041047  0.11815643  1
  V  V56  1  0.49911787  0.25470024  0.74858489  1
  V  V57  1  0.01220644  0.87475187  0.37614683  1
  V  V58  1  0.12075458  0.00400994  0.61346620  1
  V  V59  1  0.87766669  0.49682100  0.37248441  1
  V  V60  1  0.50030937  0.75404157  0.75140413  1
  V  V61  1  0.87965800  0.50133168  0.88375363  1
  V  V62  1  0.00705406  0.50205189  0.49568677  1
  V  V63  1  0.24465239  0.87379233  0.12977353  1
  V  V64  1  0.49495565  0.13147372  0.62480870  1
  V  V65  1  0.75142649  0.12781673  0.87845149  1
  V  V66  1  0.50694841  0.87658449  0.36911385  1
  V  V67  1  0.37358740  -0.00631545  0.38090643  1
  V  V68  1  0.37410210  0.25064659  0.13395266  1
  V  V69  1  0.74425627  -0.00563011  0.25171533  1
  V  V70  1  0.25245350  0.35901501  0.62176100  1
  V  V71  1  0.76029560  0.37180027  0.62406243  1
  V  V72  1  0.25223496  0.25028979  0.00156204  1
  V  V73  1  0.12931141  0.50372206  0.62142654  1
  V  V74  1  0.61991474  -0.00469473  0.12766501  1
  V  V75  1  -0.00218325  0.25085734  0.74331966  1
  V  V76  1  0.49531808  0.88453471  0.87741634  1
  V  V77  1  0.74995819  0.87601165  0.12106469  1
  V  V78  1  0.87694412  0.12342170  0.24386746  1
  V  V79  1  0.24422980  0.37398701  0.12919402  1
  V  V80  1  0.87654984  0.75160844  0.61851657  1
  V  V81  1  0.24387901  0.49661206  0.24973653  1
  V  V82  1  0.00542061  0.62713284  0.61961170  1
  V  V83  1  0.25566696  0.12209952  0.87730678  1
  V  V84  1  0.37201886  0.88429158  -0.00323405  1
  Zn  Zn85  1  0.62662083  0.87708132  0.75748150  1
  Zn  Zn86  1  0.88189747  0.36868401  0.50338955  1
  Zn  Zn87  1  0.64727325  0.51953972  0.59908095  1
  Zn  Zn88  1  0.75089406  0.00064626  0.75160974  1
  Zn  Zn89  1  0.37173467  0.62648391  0.24793065  1
  Zn  Zn90  1  0.11748667  0.61905651  -0.00517575  1
  Zn  Zn91  1  0.60854348  0.49534352  0.10296470  1
  Zn  Zn92  1  0.74369395  0.61627226  0.38331141  1
  Zn  Zn93  1  0.37529799  0.74977515  0.12741387  1
  Zn  Zn94  1  0.73774841  0.73268978  0.51158083  1
  Zn  Zn95  1  0.87750749  0.24030226  0.11754035  1
  Zn  Zn96  1  0.37933024  0.75855294  0.61639956  1
  Zn  Zn97  1  0.51023778  0.63562264  0.61619618  1
  Zn  Zn98  1  0.23034576  0.62413421  0.37178466  1
  Zn  Zn99  1  -0.00662240  0.00192809  0.01036747  1
  Zn  Zn100  1  0.48967004  0.01294104  -0.00727917  1
  Zn  Zn101  1  0.61992938  0.75107762  0.88222231  1
  Zn  Zn102  1  0.12641920  0.24916376  0.87544380  1
  Zn  Zn103  1  0.87855979  0.87528708  0.49904586  1
  Zn  Zn104  1  0.38889813  0.38975946  0.00697828  1
  Zn  Zn105  1  0.00102849  0.75266714  0.74980816  1
  Zn  Zn106  1  0.75097800  0.12326672  0.37602570  1
  Zn  Zn107  1  0.18810858  0.18246316  0.19243787  1
  Zn  Zn108  1  0.18101531  0.18456676  0.68873875  1
  Zn  Zn109  1  0.18697421  0.67975175  0.18468990  1
  Zn  Zn110  1  0.18998250  0.69058151  0.68687131  1
  Zn  Zn111  1  0.68786139  0.18398839  0.19311855  1
  Zn  Zn112  1  0.68840569  0.18797743  0.68698216  1
  Zn  Zn113  1  0.68160886  0.68742704  0.19058130  1
  Zn  Zn114  1  0.68611866  0.68962731  0.69230902  1
  Zn  Zn115  1  0.30694349  0.31380303  0.31594681  1
  Zn  Zn116  1  0.31363255  0.31331624  0.81181488  1
  Zn  Zn117  1  0.31410846  0.81134520  0.31529667  1
  Zn  Zn118  1  0.31376811  0.81339376  0.81276838  1
  Zn  Zn119  1  0.81429313  0.30948817  0.31206373  1
  Zn  Zn120  1  0.81325186  0.31241863  0.81136853  1
  Zn  Zn121  1  0.81133483  0.81332257  0.31115934  1
  Zn  Zn122  1  0.81329844  0.81428103  0.80951890  1
  Zn  Zn123  1  0.18741248  0.43088436  0.43730252  1
  Zn  Zn124  1  0.19453378  0.43674480  0.93859689  1
  Zn  Zn125  1  0.18738343  0.93549287  0.43731095  1
  Zn  Zn126  1  0.18475117  0.93877942  0.94108135  1
  Zn  Zn127  1  0.68877302  0.43347353  0.43546629  1
  Zn  Zn128  1  0.68454137  0.43294931  0.93381350  1
  Zn  Zn129  1  0.68691268  0.93349108  0.44068907  1
  Zn  Zn130  1  0.68326640  0.94104198  0.94117179  1
  Zn  Zn131  1  0.30795113  0.06401668  0.06585813  1
  Zn  Zn132  1  0.31263995  0.06227006  0.56894869  1
  Zn  Zn133  1  0.31633955  0.56526329  0.06338949  1
  Zn  Zn134  1  0.31610903  0.55993020  0.55963289  1
  Zn  Zn135  1  0.80889380  0.06169554  0.06222634  1
  Zn  Zn136  1  0.81327260  0.06455199  0.56152535  1
  Zn  Zn137  1  0.77001582  0.54120268  0.04092072  1
  Zn  Zn138  1  0.82112431  0.56364807  0.55764542  1
  Zn  Zn139  1  0.43414619  0.43962923  0.18936748  1
  Zn  Zn140  1  0.43449529  0.43696840  0.68512774  1
  Zn  Zn141  1  0.43225587  0.93778064  0.18774966  1
  Zn  Zn142  1  0.43593845  0.94130149  0.69120271  1
  Zn  Zn143  1  0.93659763  0.43247211  0.18446739  1
  Zn  Zn144  1  0.93963678  0.43981303  0.68874360  1
  Zn  Zn145  1  0.93485404  0.93463040  0.19397936  1
  Zn  Zn146  1  0.93720980  0.94219508  0.69114517  1
  Zn  Zn147  1  0.06033658  0.06317048  0.31681259  1
  Zn  Zn148  1  0.06399921  0.06334437  0.81254289  1
  Zn  Zn149  1  0.05995573  0.55987282  0.30048708  1
  Zn  Zn150  1  0.06447805  0.56153957  0.80990697  1
  Zn  Zn151  1  0.56124973  0.06303376  0.31286689  1
  Zn  Zn152  1  0.56142659  0.06670717  0.81329049  1
  Zn  Zn153  1  0.55756128  0.56207714  0.30797132  1
  Zn  Zn154  1  0.56482968  0.56526817  0.80661440  1
  Zn  Zn155  1  0.43720041  0.18366269  0.43774735  1
  Zn  Zn156  1  0.46081710  0.22863925  0.95840624  1
  Zn  Zn157  1  0.43147966  0.69136966  0.43631276  1
  Zn  Zn158  1  0.43311937  0.69035308  0.93524211  1
  Zn  Zn159  1  0.93604664  0.18363092  0.42943957  1
  Zn  Zn160  1  0.93955263  0.18878053  0.93047225  1
  Zn  Zn161  1  1.06683016  0.69165984  0.43713665  1
  Zn  Zn162  1  0.93307609  0.69442388  0.93911548  1
  Zn  Zn163  1  0.06327824  0.31251399  0.05954303  1
  Zn  Zn164  1  0.06359255  0.31463867  0.56338703  1
  Zn  Zn165  1  0.06277838  0.81169156  0.06597748  1
  Zn  Zn166  1  0.06588060  0.81786587  0.56251425  1
  Zn  Zn167  1  0.56335794  0.31568441  0.06624297  1
  Zn  Zn168  1  0.56567027  0.31895825  0.56148205  1
  Zn  Zn169  1  0.55954632  0.81240546  0.06125465  1
  Zn  Zn170  1  0.56288077  0.81462351  0.56196605  1
  O  O171  1  0.13407226  0.11390693  0.11584420  1
  O  O172  1  0.11479311  0.11470865  0.63088545  1
  O  O173  1  0.11371609  0.61616676  0.12051818  1
  O  O174  1  0.11736527  0.61432454  0.63481477  1
  O  O175  1  0.61794993  0.12293914  0.12142848  1
  O  O176  1  0.61642206  0.11712073  0.62152074  1
  O  O177  1  0.60791494  0.62079068  0.13301888  1
  O  O178  1  0.61865952  0.61795495  0.64067668  1
  O  O179  1  0.37886651  0.38007577  0.38028690  1
  O  O180  1  0.37225613  0.39296129  0.87053967  1
  O  O181  1  0.38207091  0.88958910  0.37467980  1
  O  O182  1  0.38119222  0.87320873  0.88519695  1
  O  O183  1  0.88505226  0.38290517  0.37450380  1
  O  O184  1  0.88036911  0.38134634  0.87941888  1
  O  O185  1  0.87919171  0.88043647  0.37508858  1
  O  O186  1  0.88560462  0.88613637  0.86552368  1
  O  O187  1  0.25504700  0.00472876  0.37169418  1
  O  O188  1  0.24352757  0.00742796  0.86529790  1
  O  O189  1  0.25356639  0.49436629  0.36624387  1
  O  O190  1  0.25418704  0.50670873  0.86603907  1
  O  O191  1  0.75304887  -0.00332117  0.36666744  1
  O  O192  1  0.75593685  0.00927793  0.87470200  1
  O  O193  1  0.76009972  0.49328156  0.36483129  1
  O  O194  1  0.76284054  0.50934769  0.86717205  1
  O  O195  1  0.24638666  0.49245043  0.12990757  1
  O  O196  1  0.24228473  0.49758782  0.62948954  1
  O  O197  1  0.24280044  0.99359888  0.13500755  1
  O  O198  1  0.24249917  0.99255827  0.63298598  1
  O  O199  1  0.75503829  0.48446648  0.14056773  1
  O  O200  1  0.75640676  0.49145537  0.62994449  1
  O  O201  1  0.74127031  0.99411293  0.13018618  1
  O  O202  1  0.74098615  0.99482594  0.62452322  1
  O  O203  1  -0.00667572  0.35805932  0.25922877  1
  O  O204  1  0.00440546  0.36933977  0.75557907  1
  O  O205  1  -0.00586783  0.85841659  0.25757962  1
  O  O206  1  0.01237257  0.87701566  0.75775175  1
  O  O207  1  0.50832071  0.38204998  0.26135508  1
  O  O208  1  0.51106573  0.36552887  0.73728176  1
  O  O209  1  0.49237291  0.86847018  0.25974883  1
  O  O210  1  0.49570123  0.87040699  0.75946351  1
  O  O211  1  0.48553862  0.11919495  0.24485955  1
  O  O212  1  0.49342438  0.13132451  0.74298504  1
  O  O213  1  0.49382107  0.63436548  0.24425042  1
  O  O214  1  0.49103006  0.63827272  0.75302546  1
  O  O215  1  0.99149044  0.13534921  0.25476068  1
  O  O216  1  0.99407799  0.13358762  0.74755224  1
  O  O217  1  0.99146715  0.63661856  0.24047473  1
  O  O218  1  0.99353218  0.62451004  0.73987063  1
  O  O219  1  0.35927411  0.23687387  0.01856341  1
  O  O220  1  0.37917123  0.26284266  0.49486034  1
  O  O221  1  0.36068046  0.76103201  0.00097289  1
  O  O222  1  0.35757147  0.74795247  0.50352211  1
  O  O223  1  0.87850392  0.25896511  -0.00147108  1
  O  O224  1  0.85927946  0.25078318  0.48643545  1
  O  O225  1  0.86516622  0.75106785  0.01564962  1
  O  O226  1  0.86874851  0.75124318  0.51806825  1
  O  O227  1  0.12154880  0.24784518  0.48898105  1
  O  O228  1  0.13747334  0.24221942  1.00186699  1
  O  O229  1  0.13946250  0.75200794  0.50425890  1
  O  O230  1  0.13500020  0.75004745  0.99482730  1
  O  O231  1  0.63157529  0.24765839  0.49187717  1
  O  O232  1  0.62150248  0.23959063  0.98946983  1
  O  O233  1  0.62129635  0.75299402  0.48447933  1
  O  O234  1  0.64046146  0.75269908  1.00131098  1
  O  O235  1  0.48861110  0.23730894  0.12838090  1
  O  O236  1  0.51065302  0.23914595  0.63276398  1
  O  O237  1  0.50019049  0.74442855  0.13423531  1
  O  O238  1  0.49588722  0.75446872  0.63418058  1
  O  O239  1  0.99970911  0.25389853  0.13809144  1
  O  O240  1  1.00689001  0.24325284  0.63742144  1
  O  O241  1  0.99150275  0.74644702  0.13372438  1
  O  O242  1  0.99604174  0.74367163  0.62653653  1
  O  O243  1  0.01089356  0.25191152  0.36920782  1
  O  O244  1  0.00348040  0.26177475  0.86401872  1
  O  O245  1  0.00391555  0.75790697  0.36129120  1
  O  O246  1  0.00431070  0.75988174  0.87285690  1
  O  O247  1  0.50892340  0.25987458  0.38107116  1
  O  O248  1  0.51689117  0.23986430  0.85744299  1
  O  O249  1  0.50473044  0.75743062  0.37122964  1
  O  O250  1  0.49867443  0.76091053  0.86819197  1
  O  O251  1  0.25670860  0.12126584  0.48827616  1
  O  O252  1  0.24249583  0.12910178  0.99444668  1
  O  O253  1  0.24811442  0.63384319  0.50001931  1
  O  O254  1  0.24987309  0.63658780  0.99513029  1
  O  O255  1  0.74262509  0.13343980  0.49884324  1
  O  O256  1  0.74035166  0.12308427  0.99086894  1
  O  O257  1  0.74831305  0.62056329  0.49607711  1
  O  O258  1  0.76302861  0.63980144  0.98528075  1
  O  O259  1  0.25763170  0.36451169  0.00940352  1
  O  O260  1  0.25830893  0.37880178  0.50977179  1
  O  O261  1  0.25362306  0.86942339  0.00653999  1
  O  O262  1  0.24695369  0.87057600  0.51242200  1
  O  O263  1  0.76101396  0.37449004  0.01011459  1
  O  O264  1  0.75227490  0.36913855  0.50761917  1
  O  O265  1  0.74825589  0.87073022  0.01318814  1
  O  O266  1  0.75115950  0.87019167  0.51511133  1
  O  O267  1  0.13518018  0.49932004  0.23472821  1
  O  O268  1  0.13035966  0.49372755  0.74044411  1
  O  O269  1  0.13672812  1.01001057  0.24440980  1
  O  O270  1  0.13502122  0.99349640  0.74485694  1
  O  O271  1  0.63420325  0.48718909  0.25575150  1
  O  O272  1  0.63447356  0.48742988  0.75630467  1
  O  O273  1  0.63249471  1.00986379  0.23904008  1
  O  O274  1  0.62426356  1.00165098  0.73784296  1
  O  O275  1  0.36512566  0.00752101  0.25985996  1
  O  O276  1  0.36209629  0.01259218  0.74661267  1
  O  O277  1  0.36311598  0.49808154  0.25988253  1
  O  O278  1  0.37277323  0.50845947  0.75681064  1
  O  O279  1  0.86458909  0.00446971  0.25597622  1
  O  O280  1  0.87448818  0.01216228  0.76265515  1
  O  O281  1  0.86961089  0.50210074  0.25332415  1
  O  O282  1  0.87284498  0.50926374  0.75690967  1
  O  O283  1  0.11705606  0.35902131  0.37608830  1
  O  O284  1  0.11853953  0.37687502  0.87040951  1
  O  O285  1  0.11136342  0.88269725  0.37137302  1
  O  O286  1  0.11895978  0.87299610  0.86837367  1
  O  O287  1  0.61633931  0.36785784  0.36948294  1
  O  O288  1  0.63647665  0.36271575  0.86075189  1
  O  O289  1  0.61199180  0.86947861  0.37663240  1
  O  O290  1  0.61319146  0.87418753  0.87693963  1
  O  O291  1  0.37778084  0.12886392  0.13564783  1
  O  O292  1  0.38578184  0.12284428  0.63586802  1
  O  O293  1  0.38620509  0.62977264  0.12791664  1
  O  O294  1  0.37919329  0.62413465  0.63712561  1
  O  O295  1  0.86997924  0.12329870  0.13737248  1
  O  O296  1  0.88313140  0.11589593  0.63869724  1
  O  O297  1  0.88005510  0.63297509  0.13659203  1
  O  O298  1  0.88570273  0.63050023  0.63264288  1
  O  O299  1  0.25332057  0.25526913  0.12371789  1
  O  O300  1  0.24283896  0.26011908  0.62873621  1
  O  O301  1  0.24722694  0.75718113  0.11877391  1
  O  O302  1  0.24992132  0.76288444  0.61860714  1
  O  O303  1  0.75287895  0.25998807  0.13309669  1
  O  O304  1  0.74402040  0.25836477  0.61348821  1
  O  O305  1  0.75198700  0.75590808  0.12220741  1
  O  O306  1  0.75699530  0.75843625  0.62990473  1
  O  O307  1  0.23394155  0.24221156  0.36953091  1
  O  O308  1  0.25102134  0.24391937  0.88567127  1
  O  O309  1  0.25141344  0.74813115  0.38792687  1
  O  O310  1  0.24452116  0.74655734  0.88193527  1
  O  O311  1  0.73736522  0.25074819  0.38219813  1
  O  O312  1  0.74125893  0.23800141  0.86789578  1
  O  O313  1  0.73229404  0.75175974  0.37134603  1
  O  O314  1  0.75339809  0.74673004  0.88255168  1
  O  O315  1  0.01530757  0.12660035  -0.00722716  1
  O  O316  1  -0.01011979  0.13285742  0.51630107  1
  O  O317  1  -0.00322461  0.63215712  0.01406455  1
  O  O318  1  0.00358613  0.61714876  0.51221872  1
  O  O319  1  0.50726798  0.12940155  0.01127333  1
  O  O320  1  0.50398690  0.11771579  0.50798215  1
  O  O321  1  0.49780488  0.63829960  0.01478750  1
  O  O322  1  0.49044914  0.60959406  0.49821983  1
  O  O323  1  0.49211349  0.38225375  0.49153591  1
  O  O324  1  0.48597571  0.33802693  0.99097341  1
  O  O325  1  0.50083714  0.88829512  0.49257516  1
  O  O326  1  0.48838168  0.87642621  0.99425653  1
  O  O327  1  1.00041426  0.38168527  0.48962533  1
  O  O328  1  0.99230670  0.37054900  0.98734425  1
  O  O329  1  0.99747479  0.86466785  0.48073621  1
  O  O330  1  1.00626105  0.87812329  0.98785396  1
  O  O331  1  0.49015996  0.49080716  0.38093591  1
  O  O332  1  0.48847047  0.50586060  0.86993274  1
  O  O333  1  0.49393229  0.99583652  0.38136614  1
  O  O334  1  0.50181655  0.99082764  0.87604559  1
  O  O335  1  0.99734316  0.48940114  0.37514957  1
  O  O336  1  0.99163769  0.48947078  0.86679145  1
  O  O337  1  0.98911740  0.98346785  0.36101817  1
  O  O338  1  0.99387487  0.99420990  0.87646423  1
  O  O339  1  0.01325310  -0.01020041  0.12869758  1
  O  O340  1  0.00924909  0.00901017  0.63162012  1
  O  O341  1  0.00804044  0.50795240  0.13428426  1
  O  O342  1  0.00806984  0.50541018  0.61681788  1
  O  O343  1  0.50405174  0.01120170  0.12585576  1
  O  O344  1  0.50487220  0.00696267  0.61974228  1
  O  O345  1  0.49552125  0.51299174  0.12541995  1
  O  O346  1  0.49749829  0.49742298  0.60665465  1
  O  O347  1  0.25274388  0.38221109  0.23879335  1
  O  O348  1  0.24652563  0.37965632  0.74128866  1
  O  O349  1  0.25662876  0.88570375  0.24363408  1
  O  O350  1  0.24229985  0.88191923  0.74602800  1
  O  O351  1  0.74337596  0.37785693  0.24519837  1
  O  O352  1  0.74647472  0.37795354  0.74157888  1
  O  O353  1  0.74961516  0.88660015  0.23854978  1
  O  O354  1  0.74749026  0.87979033  0.73854493  1
  O  O355  1  0.25881189  0.11515550  0.26003118  1
  O  O356  1  0.25464375  0.12062079  0.75593756  1
  O  O357  1  0.25191219  0.61189974  0.25126404  1
  O  O358  1  0.25858317  0.62202512  0.75352816  1
  O  O359  1  0.75707378  0.11342199  0.25384756  1
  O  O360  1  0.75784094  0.12449975  0.75737004  1
  O  O361  1  0.75481871  0.61380407  0.25207418  1
  O  O362  1  0.76387178  0.62280593  0.75652233  1
  O  O363  1  0.36897867  0.11754566  0.36992393  1
  O  O364  1  0.36164285  0.12721818  0.86471811  1
  O  O365  1  0.36979137  0.60943811  0.37513212  1
  O  O366  1  0.36952122  0.61780722  0.86514925  1
  O  O367  1  0.87312022  0.11237884  0.36345283  1
  O  O368  1  0.86827164  0.12001093  0.86799304  1
  O  O369  1  0.87656649  0.60702043  0.35872643  1
  O  O370  1  0.87515953  0.62021214  0.86729639  1
  O  O371  1  0.13609367  0.38124982  0.11848126  1
  O  O372  1  0.13234677  0.38464118  0.62922726  1
  O  O373  1  0.13814452  0.88479440  0.11969690  1
  O  O374  1  0.13253736  0.88331192  0.63457430  1
  O  O375  1  0.63125418  0.37594038  0.13383375  1
  O  O376  1  0.63820496  0.38075496  0.63231574  1
  O  O377  1  0.62910128  0.88918644  0.12017056  1
  O  O378  1  0.63145127  0.88510300  0.62637785  1
  O  O379  1  0.11058850  0.24179790  0.25515173  1
  O  O380  1  0.11638285  0.25703435  0.75433497  1
  O  O381  1  0.11164332  0.74748976  0.24145732  1
  O  O382  1  0.12624020  0.76192146  0.75583844  1
  O  O383  1  0.62913198  0.26105488  0.26047681  1
  O  O384  1  0.62054589  0.25781263  0.75327144  1
  O  O385  1  0.61149358  0.75049597  0.26258383  1
  O  O386  1  0.61089807  0.75613865  0.75449810  1
  O  O387  1  0.36439745  0.23943498  0.24315799  1
  O  O388  1  0.38676378  0.24215182  0.75508745  1
  O  O389  1  0.38548059  0.74829760  0.25141935  1
  O  O390  1  0.38141989  0.74377448  0.74792984  1
  O  O391  1  0.88448932  0.23863989  0.25214559  1
  O  O392  1  0.88506471  0.24005329  0.75608478  1
  O  O393  1  0.87453280  0.74088023  0.24292740  1
  O  O394  1  0.87853640  0.74025553  0.74282092  1
  O  O395  1  0.38200507  0.48918970  0.49097243  1
  O  O396  1  0.37032829  0.50282655  0.98245570  1
  O  O397  1  0.38516337  1.00886599  0.49238758  1
  O  O398  1  0.37224768  0.98985867  1.00603398  1
  O  O399  1  0.89156363  0.49768490  0.48937195  1
  O  O400  1  0.86865432  0.49067063  0.98733911  1
  O  O401  1  0.86819175  0.99894910  0.48380485  1
  O  O402  1  0.87771485  1.00871312  0.98672505  1
  O  O403  1  0.12365531  0.00795130  0.01028398  1
  O  O404  1  0.12778961  -0.00432176  0.51452191  1
  O  O405  1  0.13260432  0.50149752  0.01289590  1
  O  O406  1  0.11677348  0.49297972  0.50899697  1
  O  O407  1  0.61999709  0.01472964  0.01115965  1
  O  O408  1  0.61614343  0.00510585  0.50850427  1
  O  O409  1  0.66170943  0.51042059  0.00701959  1
  O  O410  1  0.60784625  0.49357490  0.49225034  1
  O  O411  1  0.36690163  0.36568664  0.12660372  1
  O  O412  1  0.36352658  0.37892519  0.61658029  1
  O  O413  1  0.36201898  0.87344538  0.11755495  1
  O  O414  1  0.35770211  0.87971412  0.63114123  1
  O  O415  1  0.86991283  0.36908893  0.11556598  1
  O  O416  1  0.86581548  0.37654267  0.62455102  1
  O  O417  1  0.86332660  0.86505039  0.13275692  1
  O  O418  1  0.87014920  0.87031718  0.62698361  1
  O  O419  1  0.13069954  0.13424819  0.37552095  1
  O  O420  1  0.13730222  0.12651406  0.88261049  1
  O  O421  1  0.11861687  0.61545668  0.37558216  1
  O  O422  1  0.12963979  0.63107290  0.87526889  1
  O  O423  1  0.62246954  0.13424922  0.38032737  1
  O  O424  1  0.63280885  0.12992970  0.88129662  1
  O  O425  1  0.62214962  0.63740201  0.37114047  1
  O  O426  1  0.64249083  0.63010532  0.86427402  1
