# generated using pymatgen
data_V85Zn86O256
_symmetry_space_group_name_H-M   'P 1'
_cell_length_a   16.96117157
_cell_length_b   16.95339648
_cell_length_c   16.97141028
_cell_angle_alpha   89.94066723
_cell_angle_beta   90.03319766
_cell_angle_gamma   89.98721397
_symmetry_Int_Tables_number   1
_chemical_formula_structural   V85Zn86O256
_chemical_formula_sum   'V85 Zn86 O256'
_cell_volume   4880.11641243
_cell_formula_units_Z   1
loop_
 _symmetry_equiv_pos_site_id
 _symmetry_equiv_pos_as_xyz
  1  'x, y, z'
loop_
 _atom_site_type_symbol
 _atom_site_label
 _atom_site_symmetry_multiplicity
 _atom_site_fract_x
 _atom_site_fract_y
 _atom_site_fract_z
 _atom_site_occupancy
  V  V0  1  0.38364260  -0.00556521  0.87747017  1
  V  V1  1  0.25142478  0.61206704  0.87243720  1
  V  V2  1  0.12558354  0.87066805  0.75968701  1
  V  V3  1  0.87707467  0.00138441  0.37546649  1
  V  V4  1  0.37524392  0.12615050  0.75094124  1
  V  V5  1  0.11231397  0.62034659  0.50464693  1
  V  V6  1  0.24905185  0.75329474  -0.00925855  1
  V  V7  1  0.00414212  0.37571938  0.87603391  1
  V  V8  1  0.75226595  0.13119164  0.37099705  1
  V  V9  1  -0.00155715  0.50067540  -0.00131048  1
  V  V10  1  0.87238444  0.49586336  0.87929183  1
  V  V11  1  0.75203696  0.25706579  -0.00261153  1
  V  V12  1  0.26111069  0.37362473  0.60262183  1
  V  V13  1  0.74620400  0.87650683  0.62385994  1
  V  V14  1  0.00265151  0.74881192  0.75550014  1
  V  V15  1  0.61424182  0.00335726  0.61776860  1
  V  V16  1  0.49538076  0.63011296  0.12419345  1
  V  V17  1  0.25038778  0.49992311  0.25184209  1
  V  V18  1  0.50474839  0.24886464  0.25249406  1
  V  V19  1  0.74945490  0.12664398  0.87392381  1
  V  V20  1  0.75387711  0.37779787  0.11825780  1
  V  V21  1  0.00788914  0.25036682  0.75962602  1
  V  V22  1  0.87655853  0.87522589  0.50196963  1
  V  V23  1  0.24725745  0.12903819  0.87684798  1
  V  V24  1  0.12534480  0.12903793  0.00112348  1
  V  V25  1  0.62824418  0.37177017  0.25186263  1
  V  V26  1  0.74818565  0.50047672  0.74827520  1
  V  V27  1  0.38050872  0.87225423  0.00042167  1
  V  V28  1  0.25597869  0.86783196  0.12563606  1
  V  V29  1  0.88949624  0.12876828  0.23494683  1
  V  V30  1  0.63065438  0.12229927  0.49551049  1
  V  V31  1  0.62233150  0.50197329  0.12418094  1
  V  V32  1  0.87877858  0.74610422  0.62548118  1
  V  V33  1  0.50135923  0.88119896  0.37994605  1
  V  V34  1  -0.00170074  -0.00635930  -0.00004419  1
  V  V35  1  0.13680729  0.37966904  0.75287051  1
  V  V36  1  0.00272269  0.87517305  0.37818264  1
  V  V37  1  0.24875084  0.74794075  0.50056545  1
  V  V38  1  0.87388008  -0.00578175  0.87913296  1
  V  V39  1  0.00238236  0.12517741  0.63012057  1
  V  V40  1  0.37696724  0.88099780  0.50013855  1
  V  V41  1  0.74733156  0.00192980  0.74853177  1
  V  V42  1  0.49730508  0.24711788  0.74155516  1
  V  V43  1  0.74993960  0.61995186  0.37335660  1
  V  V44  1  0.49751725  0.12304474  0.13027288  1
  V  V45  1  0.47931245  0.13361310  0.59928727  1
  V  V46  1  0.63132193  -0.00471866  0.12455008  1
  V  V47  1  0.37447687  0.24457416  0.12928075  1
  V  V48  1  0.61775704  0.87414679  0.75676001  1
  V  V49  1  0.24893798  0.87627321  0.62579062  1
  V  V50  1  0.87634149  0.12610309  0.75330100  1
  V  V51  1  0.37334876  0.00223273  0.36754302  1
  V  V52  1  0.86684000  0.75921118  0.11874255  1
  V  V53  1  0.12909209  0.87600623  0.25264812  1
  V  V54  1  0.74532724  0.63368647  0.87471890  1
  V  V55  1  0.75116883  0.37504837  0.62178647  1
  V  V56  1  0.87910475  0.62338399  0.74527703  1
  V  V57  1  0.49381759  0.75260086  0.24893524  1
  V  V58  1  0.62604985  0.63362617  -0.00379405  1
  V  V59  1  0.62442187  0.37512812  0.74779283  1
  V  V60  1  0.37142001  0.62653501  0.24730842  1
  V  V61  1  0.12319762  0.63182162  -0.00578809  1
  V  V62  1  -0.00053085  0.74821388  0.24852895  1
  V  V63  1  0.37461666  0.61541501  0.75618465  1
  V  V64  1  0.62392627  0.75063318  0.37588905  1
  V  V65  1  0.00203009  0.00050655  0.50422194  1
  V  V66  1  0.13057397  0.13327474  0.50269407  1
  V  V67  1  0.75239671  -0.00549456  0.24653207  1
  V  V68  1  0.75148086  0.25174061  0.49316913  1
  V  V69  1  0.11253602  0.36875537  0.25510678  1
  V  V70  1  0.74980558  0.74949842  0.50016738  1
  V  V71  1  0.61813881  0.50023839  0.61863596  1
  V  V72  1  0.11678270  0.50131127  0.62913495  1
  V  V73  1  0.89038470  0.49689944  0.37878658  1
  V  V74  1  0.61682470  0.62155191  0.50060998  1
  V  V75  1  0.61926081  0.25277498  0.87299781  1
  V  V76  1  0.24976669  0.37437376  0.12656311  1
  V  V77  1  0.49582434  0.38217294  0.37626323  1
  V  V78  1  0.49966427  0.75595002  0.75945859  1
  V  V79  1  0.12128446  0.00146619  0.12515530  1
  V  V80  1  0.37868656  0.38102759  -0.00291895  1
  V  V81  1  0.25054808  -0.00116640  0.75134808  1
  V  V82  1  0.89056180  0.37711022  0.49877928  1
  V  V83  1  0.62297580  0.12704688  0.00055806  1
  V  V84  1  0.25246030  0.13666123  0.37117535  1
  Zn  Zn85  1  0.88046261  0.25767809  0.12878387  1
  Zn  Zn86  1  0.37730841  0.74991648  0.62711414  1
  Zn  Zn87  1  0.74892798  0.76560110  -0.00460809  1
  Zn  Zn88  1  0.62901320  0.87224812  0.24662870  1
  Zn  Zn89  1  0.12397736  0.74661240  0.37711174  1
  Zn  Zn90  1  0.49200797  0.38257346  0.86970639  1
  Zn  Zn91  1  0.48884238  0.62108727  0.62138575  1
  Zn  Zn92  1  0.43648823  0.44073800  0.53670412  1
  Zn  Zn93  1  0.49116147  0.51146861  -0.01116971  1
  Zn  Zn94  1  -0.00255797  0.86899754  0.88023377  1
  Zn  Zn95  1  0.50305424  -0.00627105  -0.00161133  1
  Zn  Zn96  1  0.75279827  0.49729633  0.24974341  1
  Zn  Zn97  1  0.12118071  0.50293273  0.12533495  1
  Zn  Zn98  1  -0.00169086  0.62834518  0.12196515  1
  Zn  Zn99  1  0.24828757  0.25222350  -0.00273640  1
  Zn  Zn100  1  0.11058111  0.25550076  0.38045905  1
  Zn  Zn101  1  0.87601183  0.25228810  0.62809050  1
  Zn  Zn102  1  0.37260630  0.50175337  0.38649055  1
  Zn  Zn103  1  0.25452622  0.00714116  0.24572182  1
  Zn  Zn104  1  0.87480688  0.62470819  0.24841572  1
  Zn  Zn105  1  0.12560322  0.00161895  0.62743364  1
  Zn  Zn106  1  0.25050714  0.62428942  0.37947568  1
  Zn  Zn107  1  0.18439512  0.18804584  0.18760821  1
  Zn  Zn108  1  0.19178645  0.19416641  0.68625346  1
  Zn  Zn109  1  0.18511480  0.68837876  0.18132594  1
  Zn  Zn110  1  0.18861388  0.68653383  0.68804520  1
  Zn  Zn111  1  0.69471180  0.18790518  0.18531098  1
  Zn  Zn112  1  0.68614688  0.18764235  0.68206076  1
  Zn  Zn113  1  0.68529215  0.68873419  0.18843520  1
  Zn  Zn114  1  0.68470785  0.68816772  0.68734522  1
  Zn  Zn115  1  0.31602189  0.31422650  0.31132221  1
  Zn  Zn116  1  0.31365410  0.30896965  0.81245683  1
  Zn  Zn117  1  0.31261927  0.81175094  0.31587216  1
  Zn  Zn118  1  0.31491338  0.81004056  0.81469650  1
  Zn  Zn119  1  0.93289562  0.30896391  0.31233373  1
  Zn  Zn120  1  0.81345824  0.31257752  0.81321134  1
  Zn  Zn121  1  0.81512641  0.81128855  0.31315704  1
  Zn  Zn122  1  0.80917033  0.81453703  0.80750260  1
  Zn  Zn123  1  0.18212570  0.43997557  0.43685883  1
  Zn  Zn124  1  0.18627551  0.43924106  0.94007070  1
  Zn  Zn125  1  0.18933528  0.94421806  0.43784501  1
  Zn  Zn126  1  0.19142741  0.94170221  0.93871066  1
  Zn  Zn127  1  0.68822808  0.43435312  0.43417156  1
  Zn  Zn128  1  0.67953154  0.44391576  0.93623657  1
  Zn  Zn129  1  0.69087696  0.93888155  0.43407264  1
  Zn  Zn130  1  0.68207490  0.93983966  0.93403355  1
  Zn  Zn131  1  0.31101878  0.05700663  0.06303691  1
  Zn  Zn132  1  0.31270416  0.06684588  0.55636663  1
  Zn  Zn133  1  0.30837567  0.56423813  0.06354173  1
  Zn  Zn134  1  0.30170252  0.55963803  0.57220061  1
  Zn  Zn135  1  0.81303295  -0.06054071  0.06103039  1
  Zn  Zn136  1  0.81419848  0.06318315  0.56592124  1
  Zn  Zn137  1  0.81204397  0.56976086  0.06398307  1
  Zn  Zn138  1  0.81063170  0.55989476  0.55908170  1
  Zn  Zn139  1  0.43742427  0.43904248  0.18705767  1
  Zn  Zn140  1  0.43222973  0.43546802  0.69867745  1
  Zn  Zn141  1  0.43997258  0.93772377  0.18693787  1
  Zn  Zn142  1  0.43706867  0.94328006  0.68387468  1
  Zn  Zn143  1  0.93375726  0.44610940  0.18529396  1
  Zn  Zn144  1  0.93866403  0.43623959  0.68766992  1
  Zn  Zn145  1  0.94153479  0.93842750  0.19125631  1
  Zn  Zn146  1  0.93771936  0.93640121  0.69074270  1
  Zn  Zn147  1  0.06580639  0.06577776  0.31735334  1
  Zn  Zn148  1  0.06345387  0.05857617  0.81653079  1
  Zn  Zn149  1  0.06933654  0.56358557  0.31320065  1
  Zn  Zn150  1  0.06446701  0.56295072  0.81304882  1
  Zn  Zn151  1  0.56656652  0.06156334  0.31227938  1
  Zn  Zn152  1  0.56141085  0.06419263  0.80727107  1
  Zn  Zn153  1  0.56244702  0.56251470  0.31064798  1
  Zn  Zn154  1  0.55988158  0.56387146  0.81174420  1
  Zn  Zn155  1  0.44207038  0.18504533  0.42888785  1
  Zn  Zn156  1  0.43461297  0.18942519  0.93959755  1
  Zn  Zn157  1  0.43235627  0.68829784  0.43508230  1
  Zn  Zn158  1  0.43516076  0.69325159  0.93686042  1
  Zn  Zn159  1  0.93677624  0.18460244  0.44253706  1
  Zn  Zn160  1  0.95721106  0.20589290  0.97106943  1
  Zn  Zn161  1  0.93693334  0.68702745  0.43594606  1
  Zn  Zn162  1  0.93155147  0.68590356  0.93553115  1
  Zn  Zn163  1  0.06094467  0.31638051  0.06939801  1
  Zn  Zn164  1  0.06664343  0.30994494  0.57313576  1
  Zn  Zn165  1  0.06392278  0.81261270  0.06510333  1
  Zn  Zn166  1  0.06386031  0.81046209  0.56831836  1
  Zn  Zn167  1  0.56104625  0.31303697  0.06473671  1
  Zn  Zn168  1  0.56982111  0.30767325  0.55732169  1
  Zn  Zn169  1  0.56325072  0.81178836  0.06206297  1
  Zn  Zn170  1  0.55899781  0.80706085  0.56815245  1
  O  O171  1  0.13572682  0.11249816  0.11336721  1
  O  O172  1  0.12294878  0.12477320  0.62076198  1
  O  O173  1  0.12102219  0.62302941  0.11071528  1
  O  O174  1  0.13209307  0.61164019  0.61850765  1
  O  O175  1  0.61906784  0.11929744  0.11808001  1
  O  O176  1  0.62033443  0.11887178  0.61364018  1
  O  O177  1  0.61725710  0.62009345  0.11956824  1
  O  O178  1  0.62528513  0.61491389  0.61692957  1
  O  O179  1  0.39046395  0.37907738  0.36992934  1
  O  O180  1  0.37254005  0.36634701  0.89386779  1
  O  O181  1  0.38136517  0.88117597  0.38128570  1
  O  O182  1  0.36731716  0.88530200  0.88665289  1
  O  O183  1  0.88031653  0.38975485  0.38090073  1
  O  O184  1  0.88377799  0.38933555  0.86747685  1
  O  O185  1  0.88215084  0.87994968  0.38271782  1
  O  O186  1  0.87251351  0.89065205  0.86560679  1
  O  O187  1  0.25808778  0.00601704  0.36955312  1
  O  O188  1  0.26100553  0.00911723  0.87058344  1
  O  O189  1  0.25058613  0.50164016  0.36195765  1
  O  O190  1  0.25376724  0.51351348  0.88023916  1
  O  O191  1  0.75836526  0.00738699  0.36736872  1
  O  O192  1  0.75281452  0.00788534  0.86786053  1
  O  O193  1  0.75364651  0.50941238  0.37331817  1
  O  O194  1  0.75526884  0.50625986  0.86906764  1
  O  O195  1  0.24843667  0.49034074  0.13381966  1
  O  O196  1  0.23520222  0.48157125  0.62332268  1
  O  O197  1  0.24080625  0.98888593  0.12801735  1
  O  O198  1  0.25104541  0.98907930  0.63078679  1
  O  O199  1  0.73952513  0.49692883  0.12402868  1
  O  O200  1  0.74084468  0.49475617  0.62893154  1
  O  O201  1  0.74251752  1.00112671  0.13410427  1
  O  O202  1  0.74212307  0.99612216  0.63110313  1
  O  O203  1  0.00900088  0.37730331  0.24306765  1
  O  O204  1  0.00731595  0.36932061  0.75764926  1
  O  O205  1  0.01019489  0.86852918  0.25695298  1
  O  O206  1  0.00906933  0.86753027  0.75212313  1
  O  O207  1  0.50731047  0.36897132  0.25383502  1
  O  O208  1  0.50401447  0.36241869  0.74922071  1
  O  O209  1  0.49992127  0.86636639  0.25887858  1
  O  O210  1  0.50249406  0.86424325  0.74001847  1
  O  O211  1  0.50906479  0.13411956  0.24013636  1
  O  O212  1  0.49227126  0.13234360  0.74146180  1
  O  O213  1  0.49244490  0.63215753  0.24430371  1
  O  O214  1  0.48791103  0.63507902  0.75153536  1
  O  O215  1  0.98847048  0.11325052  0.25000758  1
  O  O216  1  0.99902377  0.13226250  0.75200678  1
  O  O217  1  1.00448075  0.63873059  0.25031483  1
  O  O218  1  0.98664228  0.63125579  0.75554985  1
  O  O219  1  0.37220014  0.25885115  0.01304599  1
  O  O220  1  0.40568930  0.17410049  0.53769530  1
  O  O221  1  0.36428818  0.76201590  -0.00299252  1
  O  O222  1  0.36463424  0.76008400  0.50034645  1
  O  O223  1  0.84963865  0.24815495  -0.01962770  1
  O  O224  1  0.86647896  0.25868549  0.50425134  1
  O  O225  1  0.87438089  0.74757335  0.01517973  1
  O  O226  1  0.87090740  0.75368613  0.50792636  1
  O  O227  1  0.12081616  0.23759277  0.50126168  1
  O  O228  1  0.12838995  0.23189174  1.00706287  1
  O  O229  1  0.13143810  0.74001974  0.50521888  1
  O  O230  1  0.13190253  0.74071172  1.00241538  1
  O  O231  1  0.64253163  0.23800141  0.50231459  1
  O  O232  1  0.62544335  0.24723815  0.99092028  1
  O  O233  1  0.63108851  0.74247538  0.49638760  1
  O  O234  1  0.62892961  0.73735544  1.00630652  1
  O  O235  1  0.49419037  0.24235270  0.13153012  1
  O  O236  1  0.51074769  0.24021156  0.63333184  1
  O  O237  1  0.50598187  0.74011545  0.13699786  1
  O  O238  1  0.49473055  0.74020500  0.63470680  1
  O  O239  1  0.97820157  0.24621018  0.07760007  1
  O  O240  1  0.99786858  0.24376017  0.64159802  1
  O  O241  1  0.99118350  0.75248162  0.13389548  1
  O  O242  1  0.98482618  0.75461283  0.63533483  1
  O  O243  1  -0.00095290  0.24591671  0.37515394  1
  O  O244  1  -0.00493865  0.26467520  0.87237961  1
  O  O245  1  0.00123322  0.75691678  0.36677548  1
  O  O246  1  -0.01101683  0.75289895  0.86057318  1
  O  O247  1  0.49334019  0.25939502  0.36013902  1
  O  O248  1  0.50739262  0.25001113  0.86496845  1
  O  O249  1  0.50344613  0.75848554  0.36733553  1
  O  O250  1  0.49982266  0.74943957  0.85907353  1
  O  O251  1  0.23965212  0.11965219  0.48761899  1
  O  O252  1  0.24237191  0.12192469  0.99382519  1
  O  O253  1  0.24219687  0.63774188  0.50362162  1
  O  O254  1  0.24624049  0.63196194  0.99123568  1
  O  O255  1  0.75076780  0.13065273  0.49346458  1
  O  O256  1  0.73040577  0.13868852  0.99152261  1
  O  O257  1  0.74086222  0.62977582  0.49164464  1
  O  O258  1  0.74187847  0.62794065  0.99062163  1
  O  O259  1  0.25537034  0.37382668  0.00988818  1
  O  O260  1  0.24781357  0.37242281  0.50316235  1
  O  O261  1  0.25504141  0.87026939  0.00659452  1
  O  O262  1  0.25402891  0.86939701  0.50722010  1
  O  O263  1  0.73506995  0.36993114  0.00823804  1
  O  O264  1  0.75486203  0.36710735  0.50189524  1
  O  O265  1  0.74376666  0.87703303  -0.00074129  1
  O  O266  1  0.75673555  0.86936054  0.50370561  1
  O  O267  1  0.13248163  0.49072884  0.24700382  1
  O  O268  1  0.12209637  0.49520284  0.73861591  1
  O  O269  1  0.12421501  0.98931839  0.24368064  1
  O  O270  1  0.13262394  0.99037595  0.74905626  1
  O  O271  1  0.62466125  0.49475069  0.23777644  1
  O  O272  1  0.62850435  0.49578871  0.73865389  1
  O  O273  1  0.63542146  1.00020567  0.24124359  1
  O  O274  1  0.62580679  0.99655165  0.73675700  1
  O  O275  1  0.37356084  -0.00451571  0.26217153  1
  O  O276  1  0.37066940  0.00222247  0.76195029  1
  O  O277  1  0.36535070  0.50803284  0.24968598  1
  O  O278  1  0.37901061  0.51633403  0.75704504  1
  O  O279  1  0.86951510  0.00615390  0.25459823  1
  O  O280  1  0.86794804  0.00629719  0.75543149  1
  O  O281  1  0.87223708  0.50386331  0.26523886  1
  O  O282  1  0.86972355  0.50729705  0.75448144  1
  O  O283  1  0.12687685  0.37475537  0.35888280  1
  O  O284  1  0.11310517  0.38807702  0.86615937  1
  O  O285  1  0.12207370  0.87542222  0.36745951  1
  O  O286  1  0.12949494  0.87792290  0.86195446  1
  O  O287  1  0.61463115  0.38032604  0.36077348  1
  O  O288  1  0.62338107  0.36562178  0.86655465  1
  O  O289  1  0.61616283  0.87046331  0.37631257  1
  O  O290  1  0.61907881  0.88623716  0.85547969  1
  O  O291  1  0.38569022  0.13124112  0.11750703  1
  O  O292  1  0.37424311  0.10217188  0.64977844  1
  O  O293  1  0.38397666  0.62113699  0.13399884  1
  O  O294  1  0.36749976  0.62732140  0.64551525  1
  O  O295  1  0.87497271  0.12219275  0.13819061  1
  O  O296  1  0.88297603  0.12621351  0.63607509  1
  O  O297  1  0.87909016  0.63769848  0.13039551  1
  O  O298  1  0.86488382  0.63312463  0.63429954  1
  O  O299  1  0.25780297  0.25811461  0.12712334  1
  O  O300  1  0.24898306  0.27664084  0.63383157  1
  O  O301  1  0.24604829  0.76148556  0.11326979  1
  O  O302  1  0.25217694  0.76090371  0.61883553  1
  O  O303  1  0.75257393  0.25936820  0.11329681  1
  O  O304  1  0.75256433  0.25728816  0.61649185  1
  O  O305  1  0.76416564  0.74853295  0.12853556  1
  O  O306  1  0.75721574  0.75580458  0.62078599  1
  O  O307  1  0.25445754  0.23839396  0.37273067  1
  O  O308  1  0.25505525  0.23332003  0.87827096  1
  O  O309  1  0.24533665  0.74970037  0.38765132  1
  O  O310  1  0.24880183  0.74561519  0.88684364  1
  O  O311  1  0.75677440  0.23697050  0.38498790  1
  O  O312  1  0.73460126  0.24843841  0.87525461  1
  O  O313  1  0.74592125  0.74207781  0.38029670  1
  O  O314  1  0.75831872  0.73732725  0.87545615  1
  O  O315  1  0.01982778  0.10885709  -0.00887961  1
  O  O316  1  0.00738972  0.11899039  0.51046266  1
  O  O317  1  0.00844174  0.61907514  -0.00770185  1
  O  O318  1  0.01379681  0.63335417  0.50344628  1
  O  O319  1  0.50996753  0.12919605  0.00973662  1
  O  O320  1  0.52671487  0.12359142  0.48884927  1
  O  O321  1  0.50420279  0.63073848  0.00802577  1
  O  O322  1  0.51392480  0.63286003  0.49843941  1
  O  O323  1  0.50595773  0.36714784  0.48226768  1
  O  O324  1  0.48466528  0.37547279  1.00376931  1
  O  O325  1  0.48937534  0.86621020  0.49020049  1
  O  O326  1  0.48585631  0.87410280  1.00621066  1
  O  O327  1  0.98876837  0.36840537  0.50863914  1
  O  O328  1  1.01087068  0.39242274  0.98843566  1
  O  O329  1  0.99642502  0.87864436  0.49865663  1
  O  O330  1  1.01243011  0.88745139  0.99476101  1
  O  O331  1  0.49798679  0.48608455  0.36797046  1
  O  O332  1  0.50764251  0.49326970  0.87939222  1
  O  O333  1  0.49363734  0.98863367  0.36878165  1
  O  O334  1  0.48813569  1.00795169  0.87725972  1
  O  O335  1  0.98820814  0.50969920  0.37584394  1
  O  O336  1  0.99102671  0.49671966  0.87831179  1
  O  O337  1  0.99662006  0.99419182  0.38395761  1
  O  O338  1  0.99024775  0.99585216  0.88086135  1
  O  O339  1  0.01325978  -0.00838957  0.11650123  1
  O  O340  1  0.00172278  0.00642296  0.62257561  1
  O  O341  1  -0.00192700  0.50519371  0.11096696  1
  O  O342  1  0.01647156  0.49380718  0.62449751  1
  O  O343  1  0.50799811  0.01056314  0.12501375  1
  O  O344  1  0.50583780  0.01674289  0.62064899  1
  O  O345  1  0.50653792  0.51291955  0.12403749  1
  O  O346  1  0.50883639  0.49821501  0.62490961  1
  O  O347  1  0.24540486  0.38178037  0.24278987  1
  O  O348  1  0.23745933  0.37550393  0.76207487  1
  O  O349  1  0.24280121  0.87127527  0.24341934  1
  O  O350  1  0.24575660  0.87632750  0.74367133  1
  O  O351  1  0.73392145  0.37759020  0.23375091  1
  O  O352  1  0.74429431  0.37986222  0.74326762  1
  O  O353  1  0.74873592  0.88914731  0.25931465  1
  O  O354  1  0.73766512  0.88035207  0.74244458  1
  O  O355  1  0.24083711  0.12363816  0.26605956  1
  O  O356  1  0.25547128  0.12137859  0.75708774  1
  O  O357  1  0.25477876  0.61839089  0.24519386  1
  O  O358  1  0.25926641  0.63289482  0.76469293  1
  O  O359  1  0.75769303  0.11688237  0.25566947  1
  O  O360  1  0.75322590  0.12254498  0.75402319  1
  O  O361  1  0.74917702  0.62504299  0.26358367  1
  O  O362  1  0.75534384  0.62108610  0.75597800  1
  O  O363  1  0.36151471  0.11614527  0.38061575  1
  O  O364  1  0.36942867  0.11736341  0.86886392  1
  O  O365  1  0.37153193  0.62436536  0.35863264  1
  O  O366  1  0.36290364  0.63108432  0.86841730  1
  O  O367  1  0.86762214  0.11722106  0.37120607  1
  O  O368  1  0.86615863  0.11235721  0.86861934  1
  O  O369  1  0.86612251  0.61553815  0.37814851  1
  O  O370  1  0.86524350  0.61553692  0.86453712  1
  O  O371  1  0.13402746  0.37738286  0.13354374  1
  O  O372  1  0.13273944  0.38396328  0.63277122  1
  O  O373  1  0.13417744  0.88110598  0.13388584  1
  O  O374  1  0.13558066  0.87663162  0.63435495  1
  O  O375  1  0.62561524  0.38562707  0.12896113  1
  O  O376  1  0.62956943  0.38209482  0.62702872  1
  O  O377  1  0.61547168  0.89145378  0.12693621  1
  O  O378  1  0.62602745  0.88545489  0.62729459  1
  O  O379  1  0.12618465  0.26680163  0.24789408  1
  O  O380  1  0.11417393  0.26065877  0.75005050  1
  O  O381  1  0.11831763  0.76001624  0.24961984  1
  O  O382  1  0.11238047  0.75589795  0.74122636  1
  O  O383  1  0.61555887  0.25972332  0.23854456  1
  O  O384  1  0.61712347  0.25305961  0.75516045  1
  O  O385  1  0.61399294  0.75142487  0.25707180  1
  O  O386  1  0.61108842  0.75908427  0.74222997  1
  O  O387  1  0.38644679  0.25594352  0.23607921  1
  O  O388  1  0.38634770  0.23936298  0.75513531  1
  O  O389  1  0.38441051  0.74260344  0.25377502  1
  O  O390  1  0.38599921  0.74715903  0.74970680  1
  O  O391  1  0.87673269  0.23500103  0.24501278  1
  O  O392  1  0.88624187  0.24420962  0.75309773  1
  O  O393  1  0.88495294  0.75053129  0.24321733  1
  O  O394  1  0.87888397  0.74287538  0.74236143  1
  O  O395  1  0.37899835  0.52610349  0.49697898  1
  O  O396  1  0.37354867  0.48489353  1.00859251  1
  O  O397  1  0.36962912  0.98730053  0.48847397  1
  O  O398  1  0.37732778  0.99158263  0.99361034  1
  O  O399  1  0.87022569  0.49211055  0.48763388  1
  O  O400  1  0.88358801  0.51141022  0.98758065  1
  O  O401  1  0.88118878  0.99431764  0.49731573  1
  O  O402  1  0.88674715  0.99958798  0.99233389  1
  O  O403  1  0.12250354  0.00424596  0.00852161  1
  O  O404  1  0.11896081  0.00993350  0.50382283  1
  O  O405  1  0.11654652  0.51241625  0.00042315  1
  O  O406  1  0.12601541  0.51316665  0.50838369  1
  O  O407  1  0.62190492  0.01117496  0.00635438  1
  O  O408  1  0.63802318  0.00750804  0.51091180  1
  O  O409  1  0.62080794  0.51324964  0.01089805  1
  O  O410  1  0.63041997  0.50745973  0.50889017  1
  O  O411  1  0.36737601  0.36766575  0.11921215  1
  O  O412  1  0.36691463  0.38725770  0.61743676  1
  O  O413  1  0.36406261  0.88392189  0.11644828  1
  O  O414  1  0.36664824  0.87737896  0.61594557  1
  O  O415  1  0.85719464  0.38041677  0.12894874  1
  O  O416  1  0.86746961  0.37787912  0.61671276  1
  O  O417  1  0.87672034  0.86551613  0.12802923  1
  O  O418  1  0.86739543  0.86721299  0.62224186  1
  O  O419  1  0.13633320  0.12903911  0.38353305  1
  O  O420  1  0.13672038  0.11421082  0.88869951  1
  O  O421  1  0.12950077  0.62537187  0.39209398  1
  O  O422  1  0.13932902  0.62174878  0.88099088  1
  O  O423  1  0.64239138  0.11449020  0.38167024  1
  O  O424  1  0.62611628  0.13319796  0.87888165  1
  O  O425  1  0.63028578  0.62866493  0.38141623  1
  O  O426  1  0.63524593  0.61991758  0.88295010  1
