# generated using pymatgen
data_V85Zn86O256
_symmetry_space_group_name_H-M   'P 1'
_cell_length_a   16.99845141
_cell_length_b   16.99558309
_cell_length_c   16.98175635
_cell_angle_alpha   89.90183137
_cell_angle_beta   89.84705804
_cell_angle_gamma   90.06528434
_symmetry_Int_Tables_number   1
_chemical_formula_structural   V85Zn86O256
_chemical_formula_sum   'V85 Zn86 O256'
_cell_volume   4905.97763172
_cell_formula_units_Z   1
loop_
 _symmetry_equiv_pos_site_id
 _symmetry_equiv_pos_as_xyz
  1  'x, y, z'
loop_
 _atom_site_type_symbol
 _atom_site_label
 _atom_site_symmetry_multiplicity
 _atom_site_fract_x
 _atom_site_fract_y
 _atom_site_fract_z
 _atom_site_occupancy
  V  V0  1  0.87583428  0.50165089  0.37590053  1
  V  V1  1  0.37366695  0.37213645  0.50703874  1
  V  V2  1  0.12412755  0.25438981  0.87176199  1
  V  V3  1  0.49975205  0.87397573  0.37546760  1
  V  V4  1  0.62613567  0.62427995  0.50166575  1
  V  V5  1  0.50285651  0.49452838  0.00388702  1
  V  V6  1  0.74221812  0.63621540  0.88065897  1
  V  V7  1  0.25026443  -0.00007348  0.75152891  1
  V  V8  1  0.37577552  -0.00018106  0.87607438  1
  V  V9  1  0.10948002  -0.00090584  0.12306366  1
  V  V10  1  0.87498127  0.62757735  0.75054548  1
  V  V11  1  0.87531620  0.49966060  0.87689041  1
  V  V12  1  0.49409342  0.25280788  0.74592026  1
  V  V13  1  0.24975135  0.12514438  0.88056198  1
  V  V14  1  0.86376644  0.00763494  0.86089439  1
  V  V15  1  0.37583374  0.62287525  0.75401254  1
  V  V16  1  0.50872777  0.87258702  0.87418491  1
  V  V17  1  0.23896773  0.49550443  0.74461663  1
  V  V18  1  0.37494108  0.87355590  0.50059907  1
  V  V19  1  0.12935110  0.12457636  0.49733524  1
  V  V20  1  0.50361220  0.00422316  0.50656015  1
  V  V21  1  0.62693679  0.38081329  0.24945368  1
  V  V22  1  0.12422011  0.62761027  0.00107071  1
  V  V23  1  0.50339034  0.25183318  0.25559263  1
  V  V24  1  0.85989563  0.88225042  0.00099253  1
  V  V25  1  0.74760475  0.01039302  0.25504869  1
  V  V26  1  0.63132357  0.23371926  0.87398027  1
  V  V27  1  0.63137743  0.88635500  0.73342892  1
  V  V28  1  0.24801501  0.87982903  0.13117033  1
  V  V29  1  0.37387355  0.49301588  0.88255898  1
  V  V30  1  0.37553084  0.87599576  0.00154048  1
  V  V31  1  0.75094390  0.49964849  0.75098739  1
  V  V32  1  0.12527291  0.75194682  0.87663463  1
  V  V33  1  0.49472182  0.74191525  0.25190615  1
  V  V34  1  -0.00034376  0.75154215  0.74985757  1
  V  V35  1  0.24996064  0.74913142  0.50043634  1
  V  V36  1  0.63161469  -0.00534137  0.12428088  1
  V  V37  1  0.62312298  0.37467261  0.75480396  1
  V  V38  1  0.00049589  -0.00266299  0.50115236  1
  V  V39  1  0.12602541  0.62248088  0.50496912  1
  V  V40  1  0.87523726  0.63138111  0.25083389  1
  V  V41  1  0.50052613  0.62275651  0.62674766  1
  V  V42  1  0.24935681  0.87391116  0.62632611  1
  V  V43  1  0.00274270  0.49933133  0.50590895  1
  V  V44  1  0.62502062  0.49713322  0.62493079  1
  V  V45  1  0.62867465  0.74923371  0.38047600  1
  V  V46  1  0.37698924  0.25304154  0.11448702  1
  V  V47  1  0.50714013  0.00195990  -0.00064231  1
  V  V48  1  0.10738906  0.12269058  0.00265952  1
  V  V49  1  0.75364537  0.37201660  0.61903892  1
  V  V50  1  -0.00258251  0.12539885  0.62823177  1
  V  V51  1  0.00148453  0.87518992  0.37207361  1
  V  V52  1  0.86703520  0.00463406  0.37993936  1
  V  V53  1  0.37383088  0.13099911  0.74473049  1
  V  V54  1  0.37470269  0.74231619  0.13078341  1
  V  V55  1  0.37494662  0.74849344  0.62574540  1
  V  V56  1  -0.00128415  0.88224424  0.88439386  1
  V  V57  1  -0.00225317  0.25117041  0.74776405  1
  V  V58  1  0.12494850  -0.00059152  0.62566733  1
  V  V59  1  0.00151975  0.62560773  0.62580362  1
  V  V60  1  0.63178724  0.87327502  0.24838710  1
  V  V61  1  0.86146181  0.75310841  0.62321149  1
  V  V62  1  0.37723631  0.12146393  0.24798090  1
  V  V63  1  0.50809766  0.12231367  0.12186716  1
  V  V64  1  0.85829543  0.75534159  0.11816621  1
  V  V65  1  0.75155300  0.62871011  0.38181163  1
  V  V66  1  0.12550133  0.49783473  0.13414258  1
  V  V67  1  0.00242757  0.37702643  0.87038696  1
  V  V68  1  0.86020884  0.86942837  0.50476736  1
  V  V69  1  0.25042389  0.12623301  0.37320696  1
  V  V70  1  0.49925711  0.48947639  0.49847513  1
  V  V71  1  0.37727179  0.49833052  0.37065919  1
  V  V72  1  -0.00052534  0.63157417  0.12302111  1
  V  V73  1  0.12500523  0.87508256  0.75224187  1
  V  V74  1  0.50604816  0.75067600  0.75218133  1
  V  V75  1  0.25265679  0.75100590  0.00100525  1
  V  V76  1  0.00956473  0.37749013  0.36593368  1
  V  V77  1  0.12447957  0.75417037  0.36921800  1
  V  V78  1  0.87484401  0.24869071  0.61938233  1
  V  V79  1  0.25247921  0.62497581  0.87695517  1
  V  V80  1  0.74727375  0.23704560  -0.00001585  1
  V  V81  1  0.25589285  0.62409766  0.36840992  1
  V  V82  1  0.37647247  -0.00176615  0.37317311  1
  V  V83  1  0.63672884  0.24768739  0.37748407  1
  V  V84  1  0.25580851  0.24846356  0.50867005  1
  Zn  Zn85  1  0.63454486  0.11972882  0.50012300  1
  Zn  Zn86  1  0.63171152  0.50376427  0.11923418  1
  Zn  Zn87  1  0.87151394  0.37263191  0.00013805  1
  Zn  Zn88  1  0.79520660  0.18811219  0.45007984  1
  Zn  Zn89  1  0.00278233  0.76020923  0.24607192  1
  Zn  Zn90  1  0.24828022  0.37159371  0.12931290  1
  Zn  Zn91  1  0.88531733  0.12744447  0.24004106  1
  Zn  Zn92  1  0.25480075  0.25901454  -0.00415264  1
  Zn  Zn93  1  0.88756814  0.24730361  0.12173561  1
  Zn  Zn94  1  0.24650550  0.48991459  0.25550203  1
  Zn  Zn95  1  0.75391397  0.37817596  0.11805756  1
  Zn  Zn96  1  0.24343962  -0.00340837  0.25042177  1
  Zn  Zn97  1  0.49814290  0.12651824  0.62516543  1
  Zn  Zn98  1  0.75340213  0.49973788  0.24589550  1
  Zn  Zn99  1  0.49318435  0.36894234  0.88259466  1
  Zn  Zn100  1  0.23482772  0.37699924  0.62689810  1
  Zn  Zn101  1  0.01072240  0.24203533  0.23489564  1
  Zn  Zn102  1  0.14180774  0.27014403  0.36187918  1
  Zn  Zn103  1  0.50123921  0.62076359  0.12787574  1
  Zn  Zn104  1  0.62758933  0.64216234  0.00528203  1
  Zn  Zn105  1  0.00058250  0.49791479  0.00099113  1
  Zn  Zn106  1  0.87469306  0.36941777  0.49453809  1
  Zn  Zn107  1  0.18654237  0.18575824  0.18599182  1
  Zn  Zn108  1  0.18343164  0.18738746  0.68936431  1
  Zn  Zn109  1  0.18946728  0.68655882  0.18803348  1
  Zn  Zn110  1  0.18858403  0.68504795  0.69037736  1
  Zn  Zn111  1  0.68938642  0.18821057  0.18589595  1
  Zn  Zn112  1  0.68177780  0.18832330  0.67044166  1
  Zn  Zn113  1  0.68375645  0.68318530  0.19141960  1
  Zn  Zn114  1  0.68506173  0.68630289  0.69397211  1
  Zn  Zn115  1  0.31874840  0.31731013  0.31087169  1
  Zn  Zn116  1  0.30835806  0.31545238  0.81225864  1
  Zn  Zn117  1  0.31112371  0.81221435  0.31264415  1
  Zn  Zn118  1  0.31719574  0.81171651  0.81411976  1
  Zn  Zn119  1  0.81764843  0.31359540  0.30191384  1
  Zn  Zn120  1  0.81293312  0.31067795  0.80988641  1
  Zn  Zn121  1  0.81362560  0.81600243  0.31385719  1
  Zn  Zn122  1  0.81107869  0.81884835  0.81101189  1
  Zn  Zn123  1  0.19112868  0.43956825  0.44327109  1
  Zn  Zn124  1  0.19022350  0.43779881  0.94620211  1
  Zn  Zn125  1  0.18825084  0.93771708  0.43652551  1
  Zn  Zn126  1  0.18621559  0.93920639  0.94272901  1
  Zn  Zn127  1  0.68596212  0.43493136  0.43288338  1
  Zn  Zn128  1  0.68879245  0.43617651  0.93935901  1
  Zn  Zn129  1  0.68482274  0.93662508  0.43863907  1
  Zn  Zn130  1  0.68889782  0.93881586  0.93222025  1
  Zn  Zn131  1  0.31452430  0.06260711  0.06310798  1
  Zn  Zn132  1  0.31518682  0.06018536  0.56195590  1
  Zn  Zn133  1  0.31223434  0.55967744  0.06136098  1
  Zn  Zn134  1  0.31445972  0.56170819  0.56210964  1
  Zn  Zn135  1  0.81408427  0.06531463  0.06073223  1
  Zn  Zn136  1  0.81721033  0.05418165  0.56966199  1
  Zn  Zn137  1  0.81003650  0.56417157  0.06044642  1
  Zn  Zn138  1  0.81473916  0.56307633  0.56458695  1
  Zn  Zn139  1  0.44044914  0.43332921  0.18922203  1
  Zn  Zn140  1  0.43194546  0.43512602  0.68870445  1
  Zn  Zn141  1  0.44079618  0.93189344  0.18711741  1
  Zn  Zn142  1  0.43810546  0.93755114  0.68934686  1
  Zn  Zn143  1  0.93605064  0.43619516  0.18311612  1
  Zn  Zn144  1  0.94077594  0.43537605  0.68823193  1
  Zn  Zn145  1  0.92834543  0.93913405  0.18891548  1
  Zn  Zn146  1  0.93668562  0.93352230  0.68789086  1
  Zn  Zn147  1  0.06411988  0.05727994  0.30713531  1
  Zn  Zn148  1  0.05812268  0.06268411  0.81411242  1
  Zn  Zn149  1  0.06100608  0.56874613  0.31545241  1
  Zn  Zn150  1  0.06200834  0.56577286  0.81372815  1
  Zn  Zn151  1  0.56453872  0.06525226  0.31604075  1
  Zn  Zn152  1  0.56091697  0.06091812  0.80722193  1
  Zn  Zn153  1  0.56074600  0.56127401  0.31648832  1
  Zn  Zn154  1  0.56063881  0.55970300  0.81660740  1
  Zn  Zn155  1  0.43654766  0.19078642  0.43414890  1
  Zn  Zn156  1  0.44378731  0.18471804  0.93226529  1
  Zn  Zn157  1  0.43964476  0.68309078  0.43898117  1
  Zn  Zn158  1  0.46576775  0.70060268  0.95496172  1
  Zn  Zn159  1  0.96719304  0.17004362  0.40415333  1
  Zn  Zn160  1  0.93114072  0.18711494  0.93506799  1
  Zn  Zn161  1  0.93934265  0.69128960  0.44159648  1
  Zn  Zn162  1  0.93375254  0.69150649  0.93764981  1
  Zn  Zn163  1  0.06241668  0.31389693  0.05622650  1
  Zn  Zn164  1  0.06843596  0.31144382  0.55276566  1
  Zn  Zn165  1  0.06015522  0.81593968  0.06218316  1
  Zn  Zn166  1  0.05921335  0.81082418  0.56043644  1
  Zn  Zn167  1  0.56744214  0.31333762  0.06215880  1
  Zn  Zn168  1  0.56672582  0.29831333  0.56966141  1
  Zn  Zn169  1  0.56496357  0.81291276  0.06542159  1
  Zn  Zn170  1  0.56308712  0.81296129  0.56324197  1
  O  O171  1  0.13019107  0.11494498  0.10845351  1
  O  O172  1  0.11842048  0.11942845  0.61754767  1
  O  O173  1  0.11599607  0.62461369  0.12083463  1
  O  O174  1  0.11836597  0.63512706  0.61277855  1
  O  O175  1  0.61316828  0.11262870  0.13221920  1
  O  O176  1  0.59946992  0.16993199  0.59809623  1
  O  O177  1  0.62040943  0.62131397  0.12263154  1
  O  O178  1  0.62112309  0.61751098  0.62168624  1
  O  O179  1  0.37084145  0.38746439  0.39120127  1
  O  O180  1  0.37461736  0.38799050  0.87200385  1
  O  O181  1  0.37950518  0.87792814  0.38071784  1
  O  O182  1  0.38182462  0.88254067  0.88041482  1
  O  O183  1  0.88048428  0.39014415  0.37537812  1
  O  O184  1  0.88248604  0.38581935  0.87037262  1
  O  O185  1  0.88046353  0.88053807  0.38539614  1
  O  O186  1  0.87943667  0.87961677  0.88592351  1
  O  O187  1  0.25905007  0.00557993  0.37190270  1
  O  O188  1  0.25405229  0.00681254  0.87134672  1
  O  O189  1  0.25891234  0.50812197  0.37679515  1
  O  O190  1  0.25584681  0.50521896  0.87098200  1
  O  O191  1  0.75746047  -0.00749860  0.36844354  1
  O  O192  1  0.76403444  0.00008692  0.87598683  1
  O  O193  1  0.75967785  0.50981432  0.37242126  1
  O  O194  1  0.75996356  0.50513934  0.86894179  1
  O  O195  1  0.23350435  0.50764348  0.12889060  1
  O  O196  1  0.25167785  0.50767872  0.64244354  1
  O  O197  1  0.24864254  0.99118530  0.12442800  1
  O  O198  1  0.24501268  0.99386414  0.63078183  1
  O  O199  1  0.74887104  0.49910810  0.12951006  1
  O  O200  1  0.74598004  0.49376907  0.63143520  1
  O  O201  1  0.73582874  1.00315528  0.13394771  1
  O  O202  1  0.74932842  1.03287442  0.67090370  1
  O  O203  1  -0.00202422  0.38446911  0.26613432  1
  O  O204  1  0.00027195  0.36648862  0.76056136  1
  O  O205  1  -0.00950028  0.87714741  0.26735849  1
  O  O206  1  0.00778214  0.86908626  0.75847927  1
  O  O207  1  0.51430398  0.36159076  0.24379611  1
  O  O208  1  0.50697777  0.37126319  0.75417384  1
  O  O209  1  0.50968547  0.86640711  0.25754783  1
  O  O210  1  0.50467418  0.86881204  0.75476538  1
  O  O211  1  0.49514469  0.12926109  0.24235101  1
  O  O212  1  0.48999895  0.13394247  0.74912280  1
  O  O213  1  0.50488701  0.63864745  0.25152260  1
  O  O214  1  0.49632123  0.63134949  0.74710823  1
  O  O215  1  0.98906337  0.13720177  0.29310903  1
  O  O216  1  1.00863881  0.13423425  0.73655645  1
  O  O217  1  0.98845479  0.63155739  0.24367464  1
  O  O218  1  0.99497617  0.63174544  0.74608386  1
  O  O219  1  0.38169919  0.24179283  0.01161564  1
  O  O220  1  0.36867283  0.25951358  0.49424992  1
  O  O221  1  0.37262560  0.75698515  0.01038215  1
  O  O222  1  0.37098718  0.75385675  0.50583176  1
  O  O223  1  0.85655907  0.25066191  -0.00780835  1
  O  O224  1  0.87534852  0.25129623  0.51237525  1
  O  O225  1  0.87358670  0.75592357  0.01370226  1
  O  O226  1  0.87856225  0.75749627  0.51045339  1
  O  O227  1  0.13844474  0.24067152  0.48549841  1
  O  O228  1  0.12720985  0.23443123  0.98897356  1
  O  O229  1  0.13025955  0.74289968  0.49134979  1
  O  O230  1  0.13207173  0.74730148  0.99615726  1
  O  O231  1  0.61986452  0.26795849  0.47418309  1
  O  O232  1  0.63006222  0.25313893  0.98077054  1
  O  O233  1  0.61597445  0.74249472  0.48703587  1
  O  O234  1  0.57535013  0.73990501  0.98576380  1
  O  O235  1  0.49729191  0.23853537  0.12943917  1
  O  O236  1  0.48672935  0.26160731  0.64507350  1
  O  O237  1  0.48892601  0.75166004  0.13781396  1
  O  O238  1  0.49361273  0.74353857  0.63182929  1
  O  O239  1  1.00323591  0.24879462  0.12163857  1
  O  O240  1  0.99577442  0.24393086  0.62814064  1
  O  O241  1  0.99521533  0.74368748  0.12803510  1
  O  O242  1  0.99436628  0.74380510  0.63180820  1
  O  O243  1  0.00059917  0.27722905  0.38513773  1
  O  O244  1  0.00383811  0.25566812  0.86678513  1
  O  O245  1  0.00781425  0.75781629  0.37519917  1
  O  O246  1  0.00488867  0.75764362  0.86934832  1
  O  O247  1  0.50824127  0.24425571  0.35999960  1
  O  O248  1  0.51281339  0.25206900  0.86802057  1
  O  O249  1  0.50659211  0.75282762  0.37020297  1
  O  O250  1  0.48326376  0.76298393  0.85865074  1
  O  O251  1  0.25193420  0.12886302  0.49192420  1
  O  O252  1  0.25212543  0.12725481  0.98605538  1
  O  O253  1  0.24302764  0.62970473  0.49484691  1
  O  O254  1  0.24432006  0.63245830  0.99611537  1
  O  O255  1  0.74411700  0.12234647  0.52304122  1
  O  O256  1  0.74614163  0.13756191  0.99749806  1
  O  O257  1  0.74383157  0.61852391  0.48896801  1
  O  O258  1  0.74613938  0.62315311  0.98482025  1
  O  O259  1  0.24228568  0.36865558  0.01666176  1
  O  O260  1  0.25557924  0.36379005  0.50047898  1
  O  O261  1  0.25653030  0.87019502  0.00767373  1
  O  O262  1  0.25504452  0.86911292  0.50613264  1
  O  O263  1  0.75137706  0.36405054  -0.00208956  1
  O  O264  1  0.75155230  0.38246297  0.51502341  1
  O  O265  1  0.76147941  0.87051772  -0.00558197  1
  O  O266  1  0.76094765  0.87799411  0.49971933  1
  O  O267  1  0.12223710  0.51141424  0.23706992  1
  O  O268  1  0.14069722  0.50661813  0.75794537  1
  O  O269  1  0.12890796  1.00990312  0.22789303  1
  O  O270  1  0.13068694  0.99525933  0.74571694  1
  O  O271  1  0.62131332  0.48724567  0.25267040  1
  O  O272  1  0.62807537  0.49214440  0.74397431  1
  O  O273  1  0.62818138  0.99191708  0.24690062  1
  O  O274  1  0.61300261  0.98538139  0.74452741  1
  O  O275  1  0.38039023  0.00893986  0.25341137  1
  O  O276  1  0.36986458  0.00765024  0.75660338  1
  O  O277  1  0.38210562  0.49404975  0.26762688  1
  O  O278  1  0.36988345  0.50734068  0.75987089  1
  O  O279  1  0.86399534  0.00224289  0.26198656  1
  O  O280  1  0.87447596  -0.00994413  0.76149259  1
  O  O281  1  0.87823478  0.51453706  0.26039976  1
  O  O282  1  0.87214746  0.50684483  0.75702730  1
  O  O283  1  0.11385774  0.38517793  0.37762624  1
  O  O284  1  0.11729261  0.36266779  0.88330267  1
  O  O285  1  0.11547997  0.86643500  0.38254134  1
  O  O286  1  0.11896371  0.87181799  0.87344316  1
  O  O287  1  0.62957409  0.36613856  0.35773315  1
  O  O288  1  0.62550294  0.37274756  0.85999534  1
  O  O289  1  0.62016365  0.86550403  0.36964429  1
  O  O290  1  0.61003725  0.87924290  0.86885147  1
  O  O291  1  0.38814307  0.12740945  0.13174396  1
  O  O292  1  0.37440112  0.12071111  0.64091386  1
  O  O293  1  0.37269137  0.64004361  0.12301563  1
  O  O294  1  0.38146711  0.62907460  0.63204372  1
  O  O295  1  0.86938804  0.13163860  0.12820141  1
  O  O296  1  0.89173210  0.13183114  0.61963204  1
  O  O297  1  0.87949431  0.63746330  0.12999274  1
  O  O298  1  0.88124068  0.63326140  0.63060138  1
  O  O299  1  0.27139448  0.23858051  0.12268695  1
  O  O300  1  0.24698330  0.24354438  0.61097113  1
  O  O301  1  0.25501039  0.75806035  0.12182132  1
  O  O302  1  0.25483778  0.75432935  0.62074100  1
  O  O303  1  0.73803712  0.25201931  0.10522562  1
  O  O304  1  0.76408655  0.26141845  0.63760242  1
  O  O305  1  0.76050015  0.74734659  0.12939091  1
  O  O306  1  0.76288139  0.74264535  0.63101129  1
  O  O307  1  0.25760625  0.23729082  0.38041281  1
  O  O308  1  0.24087236  0.24203205  0.87352772  1
  O  O309  1  0.24482401  0.74453980  0.38091583  1
  O  O310  1  0.24623709  0.74668618  0.88134582  1
  O  O311  1  0.74268290  0.25276342  0.37188835  1
  O  O312  1  0.73678428  0.25082423  0.87493395  1
  O  O313  1  0.73932776  0.74125005  0.36951084  1
  O  O314  1  0.75718109  0.73373746  0.86952589  1
  O  O315  1  0.01015177  0.12503787  -0.00442659  1
  O  O316  1  0.01037791  0.11732929  0.50316413  1
  O  O317  1  0.00460616  0.62920512  0.00878681  1
  O  O318  1  0.00799302  0.61983374  0.50412878  1
  O  O319  1  0.49736956  0.11090362  0.00761124  1
  O  O320  1  0.48894635  0.10816202  0.49646798  1
  O  O321  1  0.49693413  0.60399959  0.00509606  1
  O  O322  1  0.50655387  0.61515855  0.50836362  1
  O  O323  1  0.49312876  0.38515349  0.51168508  1
  O  O324  1  0.50392638  0.38724637  0.99876842  1
  O  O325  1  0.49431790  0.88315717  0.49533985  1
  O  O326  1  0.49355457  0.88568582  0.99304016  1
  O  O327  1  0.99634786  0.38941056  0.49197823  1
  O  O328  1  0.99461676  0.37714792  0.98170931  1
  O  O329  1  0.99397601  0.87966490  0.49153096  1
  O  O330  1  0.98872401  0.86743526  0.98883748  1
  O  O331  1  0.49186349  0.50694590  0.39050498  1
  O  O332  1  0.49082278  0.49743796  0.88501449  1
  O  O333  1  0.49446745  0.99348884  0.38121263  1
  O  O334  1  0.49587860  0.99421392  0.88233285  1
  O  O335  1  0.99390127  0.49875433  0.38355398  1
  O  O336  1  0.99289267  0.49412530  0.87220219  1
  O  O337  1  0.99036385  0.99197489  0.38259369  1
  O  O338  1  0.99217150  0.98649697  0.87014427  1
  O  O339  1  0.01086451  -0.00703185  0.12664383  1
  O  O340  1  0.00516635  0.00645705  0.62171306  1
  O  O341  1  0.00486697  0.51693975  0.12403100  1
  O  O342  1  -0.00988448  0.50999755  0.61406015  1
  O  O343  1  0.50772910  0.00327148  0.11862215  1
  O  O344  1  0.49345140  0.00106901  0.60955885  1
  O  O345  1  0.49745395  0.49844364  0.11409624  1
  O  O346  1  0.50530010  0.50384989  0.61992147  1
  O  O347  1  0.25461056  0.37736379  0.24143510  1
  O  O348  1  0.25371039  0.39189357  0.74800152  1
  O  O349  1  0.25233488  0.87643329  0.23662095  1
  O  O350  1  0.24557450  0.87968374  0.74679838  1
  O  O351  1  0.73777345  0.37741863  0.24520906  1
  O  O352  1  0.74332777  0.38110815  0.74212177  1
  O  O353  1  0.73632123  0.88240449  0.25468969  1
  O  O354  1  0.72817022  0.87140109  0.75696090  1
  O  O355  1  0.26364931  0.12181667  0.25624931  1
  O  O356  1  0.25393845  0.12096903  0.76046740  1
  O  O357  1  0.24671868  0.62187731  0.26598591  1
  O  O358  1  0.25643369  0.61889756  0.75769782  1
  O  O359  1  0.74457000  0.11138760  0.25292143  1
  O  O360  1  0.74076915  0.09336657  0.71646757  1
  O  O361  1  0.76033429  0.62470215  0.26222699  1
  O  O362  1  0.75581481  0.61794334  0.75811365  1
  O  O363  1  0.36963190  0.11915880  0.36576839  1
  O  O364  1  0.36804384  0.11894823  0.86793694  1
  O  O365  1  0.36479196  0.61466376  0.38570450  1
  O  O366  1  0.36850644  0.61627148  0.86989138  1
  O  O367  1  0.86682447  0.10833012  0.39412140  1
  O  O368  1  0.88522815  0.10509542  0.87392673  1
  O  O369  1  0.87067140  0.62467013  0.37041838  1
  O  O370  1  0.86913101  0.61828401  0.86983784  1
  O  O371  1  0.11327604  0.39873314  0.12192910  1
  O  O372  1  0.12427425  0.37340342  0.62259417  1
  O  O373  1  0.13345691  0.89095777  0.11279301  1
  O  O374  1  0.12958857  0.87874015  0.63096406  1
  O  O375  1  0.62733084  0.37745852  0.13800176  1
  O  O376  1  0.63343003  0.37587561  0.63479877  1
  O  O377  1  0.61730582  0.88278425  0.13738161  1
  O  O378  1  0.62515591  0.87287204  0.63324169  1
  O  O379  1  0.12264146  0.24132600  0.25628929  1
  O  O380  1  0.11513140  0.24389551  0.76335946  1
  O  O381  1  0.12334514  0.74478644  0.26533800  1
  O  O382  1  0.12149103  0.75558772  0.75718363  1
  O  O383  1  0.62228590  0.25602404  0.25664988  1
  O  O384  1  0.61740911  0.25575376  0.75726275  1
  O  O385  1  0.61774349  0.75618750  0.25971109  1
  O  O386  1  0.60955550  0.75774602  0.74504205  1
  O  O387  1  0.38604141  0.23818772  0.24295424  1
  O  O388  1  0.38157585  0.24000736  0.76525162  1
  O  O389  1  0.38436276  0.75651489  0.24422906  1
  O  O390  1  0.38030547  0.74328865  0.74309705  1
  O  O391  1  0.88610919  0.24691866  0.24602101  1
  O  O392  1  0.88995768  0.25266141  0.74015345  1
  O  O393  1  0.87536585  0.74651485  0.23968002  1
  O  O394  1  0.88120659  0.74802708  0.74324930  1
  O  O395  1  0.38221436  0.49394195  0.49577723  1
  O  O396  1  0.38235482  0.50130703  0.99165012  1
  O  O397  1  0.38138464  0.99162436  0.49330321  1
  O  O398  1  0.38486679  0.99557683  0.99592631  1
  O  O399  1  0.88475550  0.50579594  0.48926102  1
  O  O400  1  0.87906383  0.50284004  0.98587795  1
  O  O401  1  0.87994088  0.98765650  0.49895269  1
  O  O402  1  0.87029188  0.98461565  0.99797780  1
  O  O403  1  0.12607394  0.01340811  0.00678637  1
  O  O404  1  0.12205891  0.00338602  0.50726728  1
  O  O405  1  0.12124750  0.51265559  0.01021713  1
  O  O406  1  0.11611865  0.51378731  0.49511346  1
  O  O407  1  0.61574483  -0.01122096  0.00992934  1
  O  O408  1  0.60692366  0.00053583  0.49309083  1
  O  O409  1  0.61109612  0.50226869  -0.00308292  1
  O  O410  1  0.61754328  0.50225656  0.50415373  1
  O  O411  1  0.38287318  0.35282438  0.12879636  1
  O  O412  1  0.36198441  0.38399199  0.61130168  1
  O  O413  1  0.36800541  0.86818859  0.12063236  1
  O  O414  1  0.36845994  0.86917713  0.62150354  1
  O  O415  1  0.87283739  0.36900566  0.11873442  1
  O  O416  1  0.86982960  0.36801184  0.62324820  1
  O  O417  1  0.87709575  0.86458770  0.11482517  1
  O  O418  1  0.88097279  0.86463921  0.61632509  1
  O  O419  1  0.14334758  0.11177984  0.38075803  1
  O  O420  1  0.13045267  0.12781032  0.88407948  1
  O  O421  1  0.13225577  0.63365230  0.38560101  1
  O  O422  1  0.13023500  0.63337069  0.88179330  1
  O  O423  1  0.62372248  0.14125545  0.38000657  1
  O  O424  1  0.62438748  0.13527724  0.86685257  1
  O  O425  1  0.63314830  0.63045609  0.37956343  1
  O  O426  1  0.64066883  0.62114614  0.87038304  1
