# generated using pymatgen
data_V85Zn86O256
_symmetry_space_group_name_H-M   'P 1'
_cell_length_a   17.03231200
_cell_length_b   16.98728844
_cell_length_c   16.98319227
_cell_angle_alpha   90.13623873
_cell_angle_beta   89.75275024
_cell_angle_gamma   90.02504192
_symmetry_Int_Tables_number   1
_chemical_formula_structural   V85Zn86O256
_chemical_formula_sum   'V85 Zn86 O256'
_cell_volume   4913.73442498
_cell_formula_units_Z   1
loop_
 _symmetry_equiv_pos_site_id
 _symmetry_equiv_pos_as_xyz
  1  'x, y, z'
loop_
 _atom_site_type_symbol
 _atom_site_label
 _atom_site_symmetry_multiplicity
 _atom_site_fract_x
 _atom_site_fract_y
 _atom_site_fract_z
 _atom_site_occupancy
  V  V0  1  0.87137131  0.62433000  0.25491543  1
  V  V1  1  0.37873653  0.62661257  0.75117605  1
  V  V2  1  0.24832795  0.75351072  -0.00195558  1
  V  V3  1  0.25173888  0.50190513  0.74989191  1
  V  V4  1  0.11218714  0.62384846  0.49112986  1
  V  V5  1  0.38342185  0.37822327  0.49464616  1
  V  V6  1  0.12378706  0.25583953  0.37017877  1
  V  V7  1  0.74799581  0.37377483  0.61685643  1
  V  V8  1  -0.00095523  0.87585985  0.37975813  1
  V  V9  1  0.50643110  0.87758771  0.87232518  1
  V  V10  1  0.25186942  0.88530846  0.12971834  1
  V  V11  1  0.74769246  0.37673480  0.12759271  1
  V  V12  1  0.00305072  0.62220336  0.12672739  1
  V  V13  1  0.74856282  0.50088888  0.75010364  1
  V  V14  1  0.36068300  0.00473096  0.37493244  1
  V  V15  1  0.24641305  0.73869176  0.49226668  1
  V  V16  1  -0.00437461  0.37057078  0.87383616  1
  V  V17  1  0.00048136  0.24934290  0.74500677  1
  V  V18  1  0.88033320  0.50292784  0.37875916  1
  V  V19  1  0.75058694  0.50100452  0.26016854  1
  V  V20  1  0.49866329  0.75308434  0.25003347  1
  V  V21  1  0.37656149  0.50235376  0.88219330  1
  V  V22  1  -0.00063833  0.49873216  0.00051641  1
  V  V23  1  0.24841740  0.87237595  0.62939906  1
  V  V24  1  -0.00300169  -0.00317837  0.49379937  1
  V  V25  1  -0.00162675  0.12581680  0.62074550  1
  V  V26  1  0.25135178  0.00266407  0.74730143  1
  V  V27  1  0.62298029  0.14136043  0.50007059  1
  V  V28  1  0.87964581  0.38016120  0.49826128  1
  V  V29  1  0.49865407  0.87752345  0.37527511  1
  V  V30  1  0.39517600  0.50360733  0.37894171  1
  V  V31  1  0.24956783  0.37764003  0.62691252  1
  V  V32  1  0.87201628  0.37576684  0.00087366  1
  V  V33  1  0.75066024  0.62963517  0.87537004  1
  V  V34  1  0.50119921  0.37908287  0.88181583  1
  V  V35  1  0.88047833  0.88001278  -0.00437705  1
  V  V36  1  0.13526329  0.48461512  0.12504606  1
  V  V37  1  0.37751867  0.74873267  0.62482438  1
  V  V38  1  0.62092789  0.50000123  0.61644265  1
  V  V39  1  0.50805442  0.75456172  0.74884940  1
  V  V40  1  0.37697724  0.88306976  -0.00079595  1
  V  V41  1  0.11294169  0.50772110  0.62250015  1
  V  V42  1  0.12557853  0.00288462  0.12993562  1
  V  V43  1  0.24539840  0.49268243  0.26452487  1
  V  V44  1  0.00972224  0.74805232  0.25631180  1
  V  V45  1  0.49711862  0.62765625  0.12587257  1
  V  V46  1  0.36011635  0.12312996  0.25389985  1
  V  V47  1  0.50972214  0.24406910  0.26685400  1
  V  V48  1  0.12666398  0.24830052  0.87775425  1
  V  V49  1  0.87875405  0.75262804  0.62279846  1
  V  V50  1  0.62476762  0.37268231  0.75112595  1
  V  V51  1  0.62426140  0.50132782  0.12729721  1
  V  V52  1  0.88546411  0.62631336  0.74152444  1
  V  V53  1  0.87364381  0.75020062  0.12547211  1
  V  V54  1  0.12943256  0.87586120  0.25450686  1
  V  V55  1  0.48330237  0.25140033  0.75582073  1
  V  V56  1  0.37339312  0.87492942  0.49900067  1
  V  V57  1  0.63215321  0.00656932  0.12997532  1
  V  V58  1  0.24859453  0.12585391  0.87212526  1
  V  V59  1  0.49780975  0.00404561  0.50304285  1
  V  V60  1  0.24896744  0.25027229  0.49445786  1
  V  V61  1  0.25004408  0.63098439  0.87584874  1
  V  V62  1  0.74065069  -0.00968029  0.74582711  1
  V  V63  1  0.00216470  0.37671619  0.36827317  1
  V  V64  1  0.62975142  0.75393894  0.87441601  1
  V  V65  1  0.74879315  0.24993304  0.00080199  1
  V  V66  1  0.87513719  0.24940297  0.13044081  1
  V  V67  1  0.37545735  0.75379806  0.12517859  1
  V  V68  1  0.87438191  0.50206803  0.87456157  1
  V  V69  1  0.87163915  0.10741505  0.25695515  1
  V  V70  1  0.62750896  0.74547770  0.37553481  1
  V  V71  1  0.75153402  0.74308204  0.49555244  1
  V  V72  1  0.12848613  0.12531651  0.49180217  1
  V  V73  1  0.12534252  -0.00308759  0.62610887  1
  V  V74  1  0.49907335  0.49974876  0.00414919  1
  V  V75  1  0.75318151  0.12489259  0.87394821  1
  V  V76  1  0.48820170  0.12805908  0.63405904  1
  V  V77  1  0.63283005  0.87987917  0.25026422  1
  V  V78  1  0.50501117  0.62034987  0.61971333  1
  V  V79  1  0.86825067  0.25248578  0.61613057  1
  V  V80  1  0.12581053  0.63063876  -0.00211837  1
  V  V81  1  0.37744784  0.00748941  0.86832816  1
  V  V82  1  0.12726423  0.12503439  0.00215540  1
  V  V83  1  0.86498703  0.12965881  0.74159937  1
  V  V84  1  0.61858595  0.37353595  0.26645010  1
  Zn  Zn85  1  0.62694604  0.62797957  0.00164998  1
  Zn  Zn86  1  0.61424189  -0.00825521  0.63368484  1
  Zn  Zn87  1  0.89622458  -0.02864621  0.83826350  1
  Zn  Zn88  1  0.83398185  0.93033814  0.44326353  1
  Zn  Zn89  1  0.00608352  -0.00820430  -0.00624181  1
  Zn  Zn90  1  0.00349642  0.24879707  0.24695683  1
  Zn  Zn91  1  0.73963935  0.87286439  0.61785290  1
  Zn  Zn92  1  0.50559744  0.00308507  0.00200845  1
  Zn  Zn93  1  0.74979106  0.75307749  0.00242173  1
  Zn  Zn94  1  0.38867848  0.27016215  0.13875036  1
  Zn  Zn95  1  -0.00338919  0.12315724  0.12431601  1
  Zn  Zn96  1  0.62732296  0.12276734  0.00055031  1
  Zn  Zn97  1  0.36625556  0.24985870  0.63251658  1
  Zn  Zn98  1  0.75292281  0.12429647  0.37938304  1
  Zn  Zn99  1  0.10471422  0.78381726  0.83123870  1
  Zn  Zn100  1  0.49906421  0.12889910  0.12178576  1
  Zn  Zn101  1  0.30087749  0.33330606  0.03855966  1
  Zn  Zn102  1  0.75459492  0.88012009  0.12890371  1
  Zn  Zn103  1  0.12331411  0.37697544  0.74774009  1
  Zn  Zn104  1  0.62493230  0.25026896  0.87808040  1
  Zn  Zn105  1  0.36462730  0.63116744  0.26259116  1
  Zn  Zn106  1  0.62520315  0.60899248  0.48284815  1
  Zn  Zn107  1  0.19120341  0.19877330  0.18522018  1
  Zn  Zn108  1  0.18615405  0.18494290  0.68554571  1
  Zn  Zn109  1  0.19214052  0.68208810  0.18600724  1
  Zn  Zn110  1  0.19247334  0.68170040  0.68710758  1
  Zn  Zn111  1  0.69386563  0.18752332  0.19748374  1
  Zn  Zn112  1  0.67929311  0.18657602  0.68116615  1
  Zn  Zn113  1  0.68708641  0.68805689  0.19125844  1
  Zn  Zn114  1  0.69150527  0.68802675  0.68646420  1
  Zn  Zn115  1  0.31546054  0.31550712  0.31112010  1
  Zn  Zn116  1  0.30185280  0.32672890  0.83837235  1
  Zn  Zn117  1  0.31203720  0.81485415  0.31422293  1
  Zn  Zn118  1  0.31427654  0.81379317  0.81291823  1
  Zn  Zn119  1  0.81097391  0.31002756  0.31414041  1
  Zn  Zn120  1  0.81065689  0.31220492  0.81089451  1
  Zn  Zn121  1  0.81376044  0.80793728  0.31204760  1
  Zn  Zn122  1  0.93330467  0.80537467  0.80548277  1
  Zn  Zn123  1  0.18596165  0.43713047  0.44349846  1
  Zn  Zn124  1  0.18183961  0.44114868  0.93529910  1
  Zn  Zn125  1  0.18232538  0.92807100  0.44292567  1
  Zn  Zn126  1  0.19238853  0.94023827  0.94177174  1
  Zn  Zn127  1  0.68695364  0.30655900  0.43776627  1
  Zn  Zn128  1  0.68588071  0.44122731  0.94018144  1
  Zn  Zn129  1  0.67596625  0.93891496  0.44444329  1
  Zn  Zn130  1  0.69779030  0.93867643  0.94031134  1
  Zn  Zn131  1  0.31147221  0.15588558  0.06178467  1
  Zn  Zn132  1  0.31135770  0.06489630  0.56083780  1
  Zn  Zn133  1  0.31107772  0.56460613  0.06599950  1
  Zn  Zn134  1  0.31494117  0.56095765  0.56293386  1
  Zn  Zn135  1  0.81171687  0.06328622  0.06660927  1
  Zn  Zn136  1  0.79657428  0.05740224  0.54909663  1
  Zn  Zn137  1  0.81131781  0.56400931  0.06536906  1
  Zn  Zn138  1  0.80637940  0.56509415  0.55990602  1
  Zn  Zn139  1  0.43163842  0.43742356  0.19062807  1
  Zn  Zn140  1  0.43589839  0.43718560  0.68963196  1
  Zn  Zn141  1  0.44182180  0.94589280  0.18893942  1
  Zn  Zn142  1  0.43536799  0.93534908  0.68774540  1
  Zn  Zn143  1  0.93948567  0.43674365  0.18753646  1
  Zn  Zn144  1  0.93431196  0.43821847  0.68839596  1
  Zn  Zn145  1  0.94488518  0.93390160  0.18573867  1
  Zn  Zn146  1  0.92661968  0.93884009  0.66499062  1
  Zn  Zn147  1  0.05778165  0.06429835  0.30924995  1
  Zn  Zn148  1  0.06075490  -0.04171859  0.81502793  1
  Zn  Zn149  1  0.06502843  0.56028071  0.31081472  1
  Zn  Zn150  1  0.06342927  0.56393938  0.81295555  1
  Zn  Zn151  1  0.56360178  0.06143430  0.31942431  1
  Zn  Zn152  1  0.56373323  0.06914574  0.81492639  1
  Zn  Zn153  1  0.55984487  0.56325743  0.30625119  1
  Zn  Zn154  1  0.56472664  0.56490810  0.80998557  1
  Zn  Zn155  1  0.43519618  0.18867178  0.43780475  1
  Zn  Zn156  1  0.44372316  0.18956791  0.94120913  1
  Zn  Zn157  1  0.44008567  0.68829993  0.43961058  1
  Zn  Zn158  1  0.43917708  0.69094827  0.93999736  1
  Zn  Zn159  1  0.93860595  0.18795331  0.43430230  1
  Zn  Zn160  1  0.97214336  0.13720361  0.89835392  1
  Zn  Zn161  1  0.93996083  0.69041505  0.43840882  1
  Zn  Zn162  1  0.94152573  0.68896405  0.93830576  1
  Zn  Zn163  1  0.05872034  0.30863880  0.05796617  1
  Zn  Zn164  1  0.06178144  0.31720221  0.55860960  1
  Zn  Zn165  1  0.06166145  0.81226278  0.06675874  1
  Zn  Zn166  1  0.08286673  0.78415749  0.61786333  1
  Zn  Zn167  1  0.56026835  0.31259950  0.07196649  1
  Zn  Zn168  1  0.55378538  0.31403952  0.57316390  1
  Zn  Zn169  1  0.56492675  0.81731724  0.06180276  1
  Zn  Zn170  1  0.56547672  0.81303180  0.56106557  1
  O  O171  1  0.13132270  0.11912037  0.11915732  1
  O  O172  1  0.11914641  0.11758088  0.61405597  1
  O  O173  1  0.12142893  0.61469724  0.11438405  1
  O  O174  1  0.12842495  0.61059918  0.61912935  1
  O  O175  1  0.63034540  0.11318776  0.13085095  1
  O  O176  1  0.60239654  0.12685095  0.61826335  1
  O  O177  1  0.61429297  0.62150578  0.12818409  1
  O  O178  1  0.61785066  0.61427135  0.63262923  1
  O  O179  1  0.37303352  0.38537877  0.38824777  1
  O  O180  1  0.39448895  0.39237148  0.86705740  1
  O  O181  1  0.38043314  0.88379337  0.37957107  1
  O  O182  1  0.38422821  0.88190271  0.88022978  1
  O  O183  1  0.88111589  0.38252259  0.38147066  1
  O  O184  1  0.87690530  0.38111550  0.87933182  1
  O  O185  1  0.89130849  0.87243602  0.36626175  1
  O  O186  1  0.87273106  0.87104746  0.89341347  1
  O  O187  1  0.26262564  -0.00713799  0.38757068  1
  O  O188  1  0.25703374  0.00641322  0.86478189  1
  O  O189  1  0.24334925  0.49914690  0.36523278  1
  O  O190  1  0.25924762  0.51142049  0.86919067  1
  O  O191  1  0.75991278  0.01706487  0.43181964  1
  O  O192  1  0.75469368  0.01193287  0.86327960  1
  O  O193  1  0.76506537  0.49849289  0.36078334  1
  O  O194  1  0.75439730  0.50874502  0.87128177  1
  O  O195  1  0.23649181  0.49378804  0.11678322  1
  O  O196  1  0.24659558  0.49334942  0.63087150  1
  O  O197  1  0.24111273  0.98669956  0.12534270  1
  O  O198  1  0.24638065  0.99373013  0.62784336  1
  O  O199  1  0.74521972  0.49677796  0.13554544  1
  O  O200  1  0.74177633  0.49128045  0.63051925  1
  O  O201  1  0.73627520  0.99816517  0.12769470  1
  O  O202  1  0.74330310  0.99958480  0.63572382  1
  O  O203  1  -0.00538618  0.37010086  0.26352037  1
  O  O204  1  -0.00390810  0.36290799  0.75368649  1
  O  O205  1  0.01099975  0.86620566  0.25555264  1
  O  O206  1  -0.02710642  0.90306930  0.76222551  1
  O  O207  1  0.51415212  0.36883915  0.25077527  1
  O  O208  1  0.50785379  0.37073221  0.75758338  1
  O  O209  1  0.50737144  0.87085245  0.25600471  1
  O  O210  1  0.49365406  0.86465197  0.76019195  1
  O  O211  1  0.50908010  0.13920070  0.25437324  1
  O  O212  1  0.50233816  0.13973719  0.74669959  1
  O  O213  1  0.49419233  0.63289075  0.23899798  1
  O  O214  1  0.49688177  0.63608120  0.74461366  1
  O  O215  1  0.98780406  0.12995816  0.24446055  1
  O  O216  1  0.98224676  0.13800150  0.73878696  1
  O  O217  1  0.99544887  0.63029324  0.24638051  1
  O  O218  1  0.98394166  0.61494347  0.74958111  1
  O  O219  1  0.37738838  0.23934149  0.01470394  1
  O  O220  1  0.36442869  0.26302571  0.49764398  1
  O  O221  1  0.37092685  0.76341048  0.00360547  1
  O  O222  1  0.36768635  0.75416077  0.50537510  1
  O  O223  1  0.86024771  0.25841581  0.01321320  1
  O  O224  1  0.87985973  0.25915174  0.51084979  1
  O  O225  1  0.87704364  0.75582864  0.01232228  1
  O  O226  1  0.85830690  0.73905779  0.50433317  1
  O  O227  1  0.12976970  0.24421703  0.49454943  1
  O  O228  1  0.12168638  0.24323904  0.98562401  1
  O  O229  1  0.13915349  0.73399196  0.51505236  1
  O  O230  1  0.13064680  0.73818968  1.00901257  1
  O  O231  1  0.60904782  0.24634623  0.50017707  1
  O  O232  1  0.64058684  0.25088304  1.00474435  1
  O  O233  1  0.63164773  0.74999733  0.48782045  1
  O  O234  1  0.62701529  0.74889002  0.98929420  1
  O  O235  1  0.50345326  0.24639733  0.14454356  1
  O  O236  1  0.48866945  0.24684455  0.63964697  1
  O  O237  1  0.49577159  0.74663590  0.12881520  1
  O  O238  1  0.49767228  0.74384097  0.63275176  1
  O  O239  1  0.98790595  0.24927065  0.12500958  1
  O  O240  1  0.99219752  0.24855723  0.62775511  1
  O  O241  1  0.99202858  0.74302411  0.13617106  1
  O  O242  1  0.97589723  0.75543757  0.60675819  1
  O  O243  1  0.00810121  0.25991292  0.37541392  1
  O  O244  1  0.00755795  0.24693266  0.86303085  1
  O  O245  1  -0.00190617  0.75741788  0.36301259  1
  O  O246  1  0.00426662  0.74384501  0.86588902  1
  O  O247  1  0.50128501  0.25196707  0.36598824  1
  O  O248  1  0.50492545  0.26148556  0.87076283  1
  O  O249  1  0.50554265  0.75831208  0.37113958  1
  O  O250  1  0.50802027  0.75711549  0.86856699  1
  O  O251  1  0.24002028  0.13850962  0.50665937  1
  O  O252  1  0.23860853  0.11912196  0.98310503  1
  O  O253  1  0.25275092  0.63670409  0.50343508  1
  O  O254  1  0.24379388  0.63310812  0.99646097  1
  O  O255  1  0.72080168  0.14019127  0.52397825  1
  O  O256  1  0.75393879  0.13275387  0.99085630  1
  O  O257  1  0.73841557  0.63681530  0.49877033  1
  O  O258  1  0.75091654  0.62761034  0.98845632  1
  O  O259  1  0.25826668  0.36349062  -0.05694696  1
  O  O260  1  0.25458730  0.36879772  0.51018810  1
  O  O261  1  0.25929644  0.87223404  0.00920393  1
  O  O262  1  0.25459670  0.86422460  0.51084642  1
  O  O263  1  0.75302121  0.37113886  0.00604626  1
  O  O264  1  0.75794774  0.37103281  0.51215642  1
  O  O265  1  0.76455735  0.87055113  0.00794323  1
  O  O266  1  0.75040764  0.85999852  0.49450009  1
  O  O267  1  0.13510568  0.50193135  0.23546737  1
  O  O268  1  0.13175707  0.50089959  0.73866730  1
  O  O269  1  0.11997109  0.98955356  0.24141430  1
  O  O270  1  0.13532390  0.99998235  0.73272012  1
  O  O271  1  0.63138842  0.49186025  0.24851300  1
  O  O272  1  0.62910940  0.48899747  0.74548795  1
  O  O273  1  0.61907936  0.99130445  0.24276082  1
  O  O274  1  0.63699489  1.00958216  0.75013369  1
  O  O275  1  0.38099684  0.01310883  0.26247724  1
  O  O276  1  0.36591495  -0.00443340  0.75942177  1
  O  O277  1  0.36901403  0.49874658  0.27035022  1
  O  O278  1  0.37241291  0.50767650  0.76049700  1
  O  O279  1  0.88009069  0.00885033  0.24368867  1
  O  O280  1  0.85761393  0.01778624  0.73713893  1
  O  O281  1  0.87029456  0.50641718  0.25471683  1
  O  O282  1  0.86691293  0.50517286  0.75417211  1
  O  O283  1  0.11173857  0.36814176  0.38750234  1
  O  O284  1  0.11192344  0.36521203  0.86860733  1
  O  O285  1  0.11780365  0.87771026  0.36226452  1
  O  O286  1  0.12537555  0.88565297  0.87254893  1
  O  O287  1  0.62928652  0.37774064  0.36429187  1
  O  O288  1  0.61843021  0.37842080  0.86612792  1
  O  O289  1  0.61769765  0.87023601  0.36890470  1
  O  O290  1  0.61468664  0.86923661  0.88231223  1
  O  O291  1  0.38210597  0.12015334  0.14957919  1
  O  O292  1  0.38305547  0.13103074  0.62195139  1
  O  O293  1  0.38556754  0.63437001  0.12208285  1
  O  O294  1  0.38555798  0.62767718  0.63071326  1
  O  O295  1  0.87368666  0.13331276  0.13487442  1
  O  O296  1  0.87450480  0.13676700  0.62488171  1
  O  O297  1  0.88290461  0.62896757  0.13441886  1
  O  O298  1  0.86292475  0.63472638  0.63197016  1
  O  O299  1  0.26441251  0.24936480  0.11940434  1
  O  O300  1  0.24819403  0.25971553  0.61832468  1
  O  O301  1  0.25737088  0.75978068  0.11832753  1
  O  O302  1  0.25988166  0.75635928  0.61910444  1
  O  O303  1  0.75515937  0.25636290  0.12160807  1
  O  O304  1  0.75800126  0.26304352  0.63367180  1
  O  O305  1  0.76356460  0.74714938  0.12673269  1
  O  O306  1  0.74929193  0.74999156  0.60901818  1
  O  O307  1  0.23931607  0.26333698  0.38760381  1
  O  O308  1  0.23535188  0.23272755  0.85232700  1
  O  O309  1  0.25234950  0.75539895  0.39362803  1
  O  O310  1  0.24942804  0.74601122  0.88085256  1
  O  O311  1  0.75688998  0.24099235  0.38174333  1
  O  O312  1  0.74928102  0.24653239  0.88455134  1
  O  O313  1  0.74080644  0.75088358  0.38309135  1
  O  O314  1  0.73878232  0.74022741  0.87459212  1
  O  O315  1  0.01794146  0.12326820  0.00518561  1
  O  O316  1  0.00784025  0.11848217  0.50283045  1
  O  O317  1  0.00746847  0.61833475  0.00596598  1
  O  O318  1  0.01387521  0.63130736  0.50153143  1
  O  O319  1  0.51107028  0.12058900  0.00246048  1
  O  O320  1  0.50027840  0.12200710  0.50957551  1
  O  O321  1  0.50231982  0.62161628  0.01102396  1
  O  O322  1  0.50796676  0.63211888  0.51613578  1
  O  O323  1  0.48060855  0.37365782  0.50909877  1
  O  O324  1  0.51153239  0.38224968  0.98847791  1
  O  O325  1  0.49221482  0.88374323  0.49671180  1
  O  O326  1  0.49258312  0.87623218  0.98929610  1
  O  O327  1  0.98539540  0.37506909  0.49193121  1
  O  O328  1  0.99112603  0.37898914  0.99245141  1
  O  O329  1  1.00913925  0.88448249  0.48472052  1
  O  O330  1  0.98567553  0.87360104  1.00868168  1
  O  O331  1  0.49331407  0.49760769  0.37425806  1
  O  O332  1  0.49642072  0.49921542  0.88156391  1
  O  O333  1  0.49221170  0.99600985  0.38706391  1
  O  O334  1  0.49392472  0.99356972  0.87207543  1
  O  O335  1  0.98852357  0.49198971  0.36795332  1
  O  O336  1  0.99387265  0.49266342  0.88010981  1
  O  O337  1  1.00447766  0.99254374  0.38405480  1
  O  O338  1  0.98907865  1.02253197  0.88214969  1
  O  O339  1  0.01569045  0.00102371  0.12062120  1
  O  O340  1  0.01086639  0.00477263  0.61641655  1
  O  O341  1  0.00923132  0.50282187  0.12086052  1
  O  O342  1  0.01505202  0.49245088  0.62769841  1
  O  O343  1  0.51559239  0.00423198  0.12345327  1
  O  O344  1  0.49228155  0.00954463  0.62085824  1
  O  O345  1  0.50336580  0.51016085  0.12445293  1
  O  O346  1  0.50756663  0.51036848  0.63604189  1
  O  O347  1  0.25702007  0.39323807  0.24921018  1
  O  O348  1  0.24816692  0.38223020  0.74227117  1
  O  O349  1  0.24010313  0.86647730  0.24121065  1
  O  O350  1  0.25755383  0.88432224  0.73661666  1
  O  O351  1  0.74045418  0.38240280  0.24679483  1
  O  O352  1  0.74261976  0.38057530  0.74293650  1
  O  O353  1  0.73644066  0.86929915  0.25188004  1
  O  O354  1  0.75139459  0.89444447  0.75499183  1
  O  O355  1  0.26286411  0.13097821  0.25378587  1
  O  O356  1  0.24603258  0.11054969  0.75378690  1
  O  O357  1  0.25765886  0.60287030  0.23484465  1
  O  O358  1  0.25986348  0.62135876  0.75561267  1
  O  O359  1  0.76654833  0.12299303  0.25607088  1
  O  O360  1  0.75283023  0.13119862  0.75372491  1
  O  O361  1  0.76288098  0.61663157  0.24543467  1
  O  O362  1  0.75541060  0.61974912  0.75944293  1
  O  O363  1  0.37899931  0.11733141  0.36633121  1
  O  O364  1  0.36623386  0.11323606  0.88128624  1
  O  O365  1  0.38212256  0.60932018  0.37982079  1
  O  O366  1  0.37254857  0.62148450  0.87107223  1
  O  O367  1  0.88092515  0.12399665  0.36028819  1
  O  O368  1  0.86336132  0.13517425  0.85508885  1
  O  O369  1  0.88449119  0.61726727  0.36341017  1
  O  O370  1  0.86712082  0.62144992  0.86687793  1
  O  O371  1  0.12067050  0.38638991  0.11603885  1
  O  O372  1  0.13418512  0.38628992  0.62244853  1
  O  O373  1  0.13233117  0.88191673  0.13202926  1
  O  O374  1  0.13790719  0.88745955  0.61306809  1
  O  O375  1  0.63077888  0.38435939  0.13427794  1
  O  O376  1  0.62988512  0.37995067  0.63233514  1
  O  O377  1  0.62681404  0.88310775  0.13488404  1
  O  O378  1  0.62609214  0.87865092  0.62530883  1
  O  O379  1  0.12506925  0.24441176  0.26666414  1
  O  O380  1  0.11229257  0.24915414  0.75157406  1
  O  O381  1  0.11629983  0.75652441  0.23933450  1
  O  O382  1  0.11960754  0.75638237  0.72282368  1
  O  O383  1  0.62107871  0.26331864  0.25214768  1
  O  O384  1  0.61828682  0.26436672  0.74997209  1
  O  O385  1  0.61891354  0.75835493  0.25688815  1
  O  O386  1  0.61558631  0.74587348  0.75969500  1
  O  O387  1  0.38839410  0.23924456  0.25890006  1
  O  O388  1  0.38269175  0.26310133  0.75896831  1
  O  O389  1  0.38042529  0.75046198  0.24481680  1
  O  O390  1  0.38555353  0.74578889  0.74533436  1
  O  O391  1  0.87421224  0.24944717  0.23722540  1
  O  O392  1  0.87954603  0.24956000  0.73652152  1
  O  O393  1  0.88363075  0.74038373  0.24499243  1
  O  O394  1  0.87268257  0.73996181  0.73190926  1
  O  O395  1  0.36847750  0.48946266  0.48889455  1
  O  O396  1  0.38109951  0.50966776  0.98775053  1
  O  O397  1  0.38169596  0.99762278  0.49554478  1
  O  O398  1  0.37691963  0.98721845  0.98702586  1
  O  O399  1  0.86610985  0.49296559  0.48917195  1
  O  O400  1  0.87951770  0.49604941  0.99589477  1
  O  O401  1  0.89502479  0.99847215  0.51826239  1
  O  O402  1  0.87579419  0.98348257  1.01140929  1
  O  O403  1  0.12733128  0.00787569  0.01133277  1
  O  O404  1  0.12065942  0.00836003  0.50541152  1
  O  O405  1  0.11952436  0.50658917  0.00777316  1
  O  O406  1  0.13105804  0.51220175  0.51292484  1
  O  O407  1  0.62839262  -0.00154379  0.01546829  1
  O  O408  1  0.60473846  0.01056718  0.50734300  1
  O  O409  1  0.61828323  0.50519841  0.00978395  1
  O  O410  1  0.62526304  0.49743069  0.51725582  1
  O  O411  1  0.37754201  0.38133449  0.11281747  1
  O  O412  1  0.36368021  0.37812009  0.61613600  1
  O  O413  1  0.37137920  0.87521111  0.11967755  1
  O  O414  1  0.36804237  0.86951818  0.61840294  1
  O  O415  1  0.86810318  0.37099932  0.12134087  1
  O  O416  1  0.86714735  0.37333670  0.61729680  1
  O  O417  1  0.87483115  0.86260937  0.12573517  1
  O  O418  1  0.85895777  0.85687274  0.62453803  1
  O  O419  1  0.11805373  0.13465957  0.38693422  1
  O  O420  1  0.13181925  0.13178244  0.88365708  1
  O  O421  1  0.12325530  0.61707737  0.39160728  1
  O  O422  1  0.13284998  0.61732934  0.88875011  1
  O  O423  1  0.62610036  0.12022629  0.39763908  1
  O  O424  1  0.64052134  0.13092523  0.87748420  1
  O  O425  1  0.61548348  0.63995708  0.36996942  1
  O  O426  1  0.63321706  0.63307613  0.87563820  1
