# generated using pymatgen
data_V85Zn86O256
_symmetry_space_group_name_H-M   'P 1'
_cell_length_a   16.95204616
_cell_length_b   16.99998215
_cell_length_c   16.96751363
_cell_angle_alpha   90.07368693
_cell_angle_beta   90.07967991
_cell_angle_gamma   89.92541769
_symmetry_Int_Tables_number   1
_chemical_formula_structural   V85Zn86O256
_chemical_formula_sum   'V85 Zn86 O256'
_cell_volume   4889.76122255
_cell_formula_units_Z   1
loop_
 _symmetry_equiv_pos_site_id
 _symmetry_equiv_pos_as_xyz
  1  'x, y, z'
loop_
 _atom_site_type_symbol
 _atom_site_label
 _atom_site_symmetry_multiplicity
 _atom_site_fract_x
 _atom_site_fract_y
 _atom_site_fract_z
 _atom_site_occupancy
  V  V0  1  0.62321869  0.37197781  0.75683274  1
  V  V1  1  0.12091795  0.38267335  0.75151556  1
  V  V2  1  0.26021741  0.62031084  0.86788016  1
  V  V3  1  0.74806428  0.87234244  0.62419015  1
  V  V4  1  0.49726682  0.00268896  -0.00247868  1
  V  V5  1  0.49576081  0.87908541  0.36501368  1
  V  V6  1  0.00582574  0.24453606  0.25584306  1
  V  V7  1  0.87631577  0.37099428  0.50772675  1
  V  V8  1  0.12873733  0.24917322  0.37664972  1
  V  V9  1  0.87728372  0.75147101  0.12202494  1
  V  V10  1  0.36924056  0.12624191  0.76469851  1
  V  V11  1  0.62834218  0.74339065  0.87596769  1
  V  V12  1  0.62155051  0.74642990  0.36473988  1
  V  V13  1  0.87459104  0.50734576  0.38017627  1
  V  V14  1  0.13349123  0.74160825  0.37487831  1
  V  V15  1  0.37562324  0.37013269  0.50656056  1
  V  V16  1  -0.00368024  0.12809460  0.62752767  1
  V  V17  1  0.50012030  0.62466967  0.12416989  1
  V  V18  1  0.87580263  0.24885698  0.12464168  1
  V  V19  1  0.24470935  0.38334581  0.62417241  1
  V  V20  1  0.37066018  0.50754496  0.37891166  1
  V  V21  1  0.25663661  0.00015570  0.25381014  1
  V  V22  1  -0.00131917  0.25042793  0.75694913  1
  V  V23  1  0.49891356  0.75048761  0.74961622  1
  V  V24  1  0.12339317  0.61507155  0.00053503  1
  V  V25  1  0.62236033  0.87532026  0.74998603  1
  V  V26  1  0.74298946  0.24830176  -0.00065267  1
  V  V27  1  0.63324208  0.62657750  0.49518322  1
  V  V28  1  0.50112227  0.25324318  0.24961903  1
  V  V29  1  0.88880459  0.37663863  -0.00691802  1
  V  V30  1  0.75036538  0.50376693  0.25352798  1
  V  V31  1  0.87275296  0.13077532  0.74844893  1
  V  V32  1  0.25447126  0.12294442  0.37675057  1
  V  V33  1  0.24576017  0.74796260  -0.00200098  1
  V  V34  1  0.12577929  0.24202012  0.87524163  1
  V  V35  1  0.75168116  -0.00456534  0.24922529  1
  V  V36  1  0.62270168  0.37662294  0.25120121  1
  V  V37  1  0.49616241  0.49660370  -0.01433027  1
  V  V38  1  0.25321389  0.24042483  -0.00298834  1
  V  V39  1  0.75049249  0.37548839  0.12464118  1
  V  V40  1  0.87354260  0.62499052  0.25657757  1
  V  V41  1  0.25389704  0.00026661  0.76861930  1
  V  V42  1  0.00642527  0.50052700  0.51184855  1
  V  V43  1  0.50339887  0.62923403  0.62652682  1
  V  V44  1  0.25611016  0.74076910  0.49654155  1
  V  V45  1  0.74120170  0.12657722  0.87923269  1
  V  V46  1  0.74711724  0.00055939  0.75228973  1
  V  V47  1  0.75119620  0.75279106  0.49557939  1
  V  V48  1  0.25789307  0.24886179  0.50847062  1
  V  V49  1  0.00203211  0.61669151  0.12453267  1
  V  V50  1  0.49989183  0.12726654  0.12034309  1
  V  V51  1  0.61630347  0.00402327  0.62116308  1
  V  V52  1  0.00359046  0.87369367  0.37533332  1
  V  V53  1  0.50366990  0.37604110  0.37517316  1
  V  V54  1  0.63585670  0.50252501  0.62465172  1
  V  V55  1  0.88425020  0.50844733  0.87802193  1
  V  V56  1  -0.00224748  -0.00484249  0.00152976  1
  V  V57  1  0.37446456  0.62715146  0.25215775  1
  V  V58  1  0.00019575  0.00262330  0.49891989  1
  V  V59  1  0.24898605  0.50287852  0.25167071  1
  V  V60  1  0.12886116  0.87523547  0.24807365  1
  V  V61  1  0.13084136  0.61882866  0.50666563  1
  V  V62  1  0.87397879  -0.00387150  0.88029500  1
  V  V63  1  -0.00086715  0.12327441  0.12652594  1
  V  V64  1  0.25252727  0.88111383  0.62165973  1
  V  V65  1  0.49570539  0.87801580  0.87514612  1
  V  V66  1  0.37949888  0.74941728  0.12690700  1
  V  V67  1  0.75445789  0.87478197  0.11748525  1
  V  V68  1  0.87229580  -0.00601752  0.36975051  1
  V  V69  1  -0.00172614  0.86994107  0.87249936  1
  V  V70  1  0.48870497  0.13067034  0.62638666  1
  V  V71  1  0.62348075  0.50035299  0.12393265  1
  V  V72  1  0.37310631  0.87661273  -0.00299358  1
  V  V73  1  0.82113529  0.17152153  0.30080940  1
  V  V74  1  0.37710209  0.12433048  0.25804721  1
  V  V75  1  0.37352115  0.38241610  -0.01474549  1
  V  V76  1  0.50222500  0.50104334  0.49985614  1
  V  V77  1  0.12302954  0.12642469  0.50108742  1
  V  V78  1  0.75554285  0.36091685  0.62428002  1
  V  V79  1  0.12798567  0.37521514  0.25135545  1
  V  V80  1  0.62560593  0.00196319  0.11766036  1
  V  V81  1  0.38055072  0.88709219  0.49436431  1
  V  V82  1  0.74976312  0.74220159  -0.00093053  1
  V  V83  1  0.37974671  0.75179204  0.62614779  1
  V  V84  1  0.12118109  0.87080366  0.74958024  1
  Zn  Zn85  1  0.12659103  0.00111057  0.12437896  1
  Zn  Zn86  1  0.27940927  0.49227717  0.76517632  1
  Zn  Zn87  1  0.62682091  0.61795124  -0.00682970  1
  Zn  Zn88  1  0.68649234  0.17490608  0.45877185  1
  Zn  Zn89  1  0.61464878  0.25099140  0.88115800  1
  Zn  Zn90  1  0.52746532  0.03261768  0.46825505  1
  Zn  Zn91  1  0.89025826  0.75582994  0.64162596  1
  Zn  Zn92  1  0.00174226  0.74761574  0.25288086  1
  Zn  Zn93  1  0.37294661  0.25484380  0.12424051  1
  Zn  Zn94  1  0.74987827  0.51100825  0.76787801  1
  Zn  Zn95  1  0.00544258  0.63423411  0.63944862  1
  Zn  Zn96  1  0.13041419  0.11904780  -0.00355997  1
  Zn  Zn97  1  0.87720685  0.87443780  0.50311834  1
  Zn  Zn98  1  0.25078950  0.87650231  0.12418864  1
  Zn  Zn99  1  0.12258703  0.49540224  0.12218525  1
  Zn  Zn100  1  0.12446396  0.00148409  0.62663697  1
  Zn  Zn101  1  0.48296956  0.26065189  0.75611845  1
  Zn  Zn102  1  0.25282794  0.37587690  0.12292387  1
  Zn  Zn103  1  0.00114595  0.37386998  0.38103030  1
  Zn  Zn104  1  0.61811406  0.86821083  0.24326224  1
  Zn  Zn105  1  0.11572483  0.74051814  0.86425728  1
  Zn  Zn106  1  0.87683808  0.63587863  0.75505981  1
  Zn  Zn107  1  0.18878655  0.18571208  0.18252568  1
  Zn  Zn108  1  0.18723547  0.18665681  0.68805606  1
  Zn  Zn109  1  0.19067553  0.68688903  0.18602860  1
  Zn  Zn110  1  0.19141005  0.68853429  0.68501749  1
  Zn  Zn111  1  0.67914629  0.19094132  0.18033259  1
  Zn  Zn112  1  0.68245031  0.18562540  0.68669566  1
  Zn  Zn113  1  0.69025234  0.68381977  0.18347834  1
  Zn  Zn114  1  0.69455077  0.68734536  0.69016831  1
  Zn  Zn115  1  0.31703402  0.31204571  0.31722629  1
  Zn  Zn116  1  0.30439167  0.30909265  0.81235303  1
  Zn  Zn117  1  0.31396123  0.81141101  0.31182457  1
  Zn  Zn118  1  0.30886700  0.80894444  0.81220181  1
  Zn  Zn119  1  0.80962046  0.33371884  0.32185531  1
  Zn  Zn120  1  0.80794914  0.31717011  0.81414930  1
  Zn  Zn121  1  0.80888946  0.81046365  0.30991305  1
  Zn  Zn122  1  0.81024201  0.81125747  0.81329382  1
  Zn  Zn123  1  0.18987521  0.43654127  0.43689566  1
  Zn  Zn124  1  0.18733432  0.43340145  0.93216358  1
  Zn  Zn125  1  0.19013316  0.93794315  0.43761869  1
  Zn  Zn126  1  0.18040884  0.93297933  0.93947677  1
  Zn  Zn127  1  0.69140194  0.43466949  0.44109785  1
  Zn  Zn128  1  0.69397511  0.43919163  0.94140202  1
  Zn  Zn129  1  0.68417162  0.93375343  0.43400595  1
  Zn  Zn130  1  0.68569569  0.93401902  0.93683517  1
  Zn  Zn131  1  0.31594499  0.06077611  0.06926737  1
  Zn  Zn132  1  0.31717656  0.06635582  0.56386575  1
  Zn  Zn133  1  0.31014187  0.56093097  0.06224517  1
  Zn  Zn134  1  0.32816397  0.54902144  0.59309723  1
  Zn  Zn135  1  0.81531104  0.06604280  0.06292616  1
  Zn  Zn136  1  0.80578778  0.05345150  0.56541221  1
  Zn  Zn137  1  0.81580607  0.56021096  0.06252500  1
  Zn  Zn138  1  0.82034445  0.56876859  0.56781703  1
  Zn  Zn139  1  0.43300440  0.43928091  0.18047825  1
  Zn  Zn140  1  0.44178479  0.44081273  0.68905017  1
  Zn  Zn141  1  0.43696727  0.93761234  0.18540214  1
  Zn  Zn142  1  0.43451116  0.94176030  0.68814321  1
  Zn  Zn143  1  0.93804121  0.43425287  0.18913047  1
  Zn  Zn144  1  0.93859189  0.44187377  0.69385000  1
  Zn  Zn145  1  0.93855214  0.93549283  0.18824912  1
  Zn  Zn146  1  0.93456637  0.94155067  0.68955505  1
  Zn  Zn147  1  0.06614754  0.06172341  0.31342414  1
  Zn  Zn148  1  0.06473196  0.05914825  0.81300380  1
  Zn  Zn149  1  0.05838143  0.56203647  0.31779224  1
  Zn  Zn150  1  0.05540661  0.56173107  0.81937768  1
  Zn  Zn151  1  0.56974230  0.06548170  0.30483065  1
  Zn  Zn152  1  0.55757310  0.06344274  0.80980837  1
  Zn  Zn153  1  0.55906907  0.56305961  0.31048869  1
  Zn  Zn154  1  0.56330426  0.56128230  0.80611601  1
  Zn  Zn155  1  0.52504218  0.19679291  0.44244699  1
  Zn  Zn156  1  0.43578654  0.18920430  0.93315255  1
  Zn  Zn157  1  0.44234759  0.69238321  0.43912368  1
  Zn  Zn158  1  0.43916189  0.68738743  0.93852231  1
  Zn  Zn159  1  0.88966919  0.16446589  0.47335465  1
  Zn  Zn160  1  0.93554509  0.18531910  0.93883394  1
  Zn  Zn161  1  0.95716539  0.70458010  0.47271298  1
  Zn  Zn162  1  0.93871333  0.68647782  0.94158322  1
  Zn  Zn163  1  0.06777913  0.30758044  0.06665381  1
  Zn  Zn164  1  0.06127751  0.31081279  0.56719624  1
  Zn  Zn165  1  0.05980266  0.80934865  0.06129173  1
  Zn  Zn166  1  0.07132709  0.81469160  0.56151402  1
  Zn  Zn167  1  0.55763304  0.31816080  0.06084557  1
  Zn  Zn168  1  0.56615578  0.31059667  0.57216545  1
  Zn  Zn169  1  0.56438901  0.81281088  0.06038736  1
  Zn  Zn170  1  0.56314876  0.81771890  0.55448579  1
  O  O171  1  0.11258412  0.12355386  0.11995717  1
  O  O172  1  0.11491451  0.12235344  0.61928506  1
  O  O173  1  0.11876425  0.62328688  0.12069051  1
  O  O174  1  0.12548364  0.63158430  0.61038707  1
  O  O175  1  0.61190851  0.11448748  0.12672357  1
  O  O176  1  0.60831792  0.11443425  0.63572945  1
  O  O177  1  0.61404201  0.61951013  0.12469385  1
  O  O178  1  0.62125740  0.62191757  0.61531202  1
  O  O179  1  0.38345470  0.38756330  0.38309319  1
  O  O180  1  0.36746587  0.37479051  0.88539969  1
  O  O181  1  0.38907113  0.86581615  0.37931430  1
  O  O182  1  0.38469883  0.86505060  0.88526774  1
  O  O183  1  0.88008163  0.38812462  0.38817038  1
  O  O184  1  0.87777312  0.37121292  0.89076667  1
  O  O185  1  0.88604562  0.87983145  0.37105348  1
  O  O186  1  0.88201541  0.89049283  0.86817666  1
  O  O187  1  0.24672298  0.00720063  0.36305671  1
  O  O188  1  0.24675232  -0.00483660  0.86696055  1
  O  O189  1  0.26299099  0.49730085  0.36805473  1
  O  O190  1  0.24902939  0.51422653  0.87391270  1
  O  O191  1  0.75788913  -0.01048340  0.36214928  1
  O  O192  1  0.75439138  0.00474665  0.87393859  1
  O  O193  1  0.76347628  0.49341252  0.36965937  1
  O  O194  1  0.77039566  0.49143686  0.88040687  1
  O  O195  1  0.24727721  0.49844717  0.14022248  1
  O  O196  1  0.23564108  0.48267494  0.61261570  1
  O  O197  1  0.24629842  0.99743260  0.13704979  1
  O  O198  1  0.25094057  0.98695371  0.62577143  1
  O  O199  1  0.74435814  0.49482316  0.13109155  1
  O  O200  1  0.73950686  0.49949578  0.62057305  1
  O  O201  1  0.74638574  0.99476132  0.12655210  1
  O  O202  1  0.73925057  0.99152136  0.63272724  1
  O  O203  1  0.01006491  0.36344890  0.25080439  1
  O  O204  1  0.01197298  0.36165513  0.74110341  1
  O  O205  1  0.01047339  0.87314485  0.25969004  1
  O  O206  1  0.01063297  0.88714381  0.75867923  1
  O  O207  1  0.50118384  0.37275385  0.25459194  1
  O  O208  1  0.51752325  0.37419289  0.73653391  1
  O  O209  1  0.49816959  0.87287384  0.25892128  1
  O  O210  1  0.50129404  0.87201453  0.75846977  1
  O  O211  1  0.49572519  0.13349126  0.24219104  1
  O  O212  1  0.48110652  0.11815009  0.74554836  1
  O  O213  1  0.48676607  0.61703347  0.23568052  1
  O  O214  1  0.50868870  0.63359822  0.73322962  1
  O  O215  1  1.00894246  0.13378402  0.24159203  1
  O  O216  1  0.99284487  0.12835545  0.74661211  1
  O  O217  1  0.99273711  0.62825741  0.24382278  1
  O  O218  1  0.99668753  0.62712211  0.75230421  1
  O  O219  1  0.36408251  0.25881998  -0.00259370  1
  O  O220  1  0.36492450  0.26379894  0.49222239  1
  O  O221  1  0.36719347  0.75699499  0.00669228  1
  O  O222  1  0.37208959  0.76167220  0.50504546  1
  O  O223  1  0.86707770  0.25761654  0.00503326  1
  O  O224  1  0.88978282  0.27334226  0.49958745  1
  O  O225  1  0.86584346  0.74395130  0.01456081  1
  O  O226  1  0.85628415  0.75632052  0.48684973  1
  O  O227  1  0.13287328  0.24476062  0.49569700  1
  O  O228  1  0.13705853  0.25067083  0.99337398  1
  O  O229  1  0.13811726  0.74277777  0.49207088  1
  O  O230  1  0.13598287  0.74181856  1.00274511  1
  O  O231  1  0.61322728  0.25370232  0.48982706  1
  O  O232  1  0.63838791  0.25976848  1.00056736  1
  O  O233  1  0.63133918  0.74435644  0.49065404  1
  O  O234  1  0.63091976  0.74695861  0.99277738  1
  O  O235  1  0.49952732  0.24218657  0.12941853  1
  O  O236  1  0.50268609  0.23365169  0.63782176  1
  O  O237  1  0.48928723  0.73985093  0.11479853  1
  O  O238  1  0.49904921  0.74880207  0.62742989  1
  O  O239  1  0.99649500  0.24251787  0.13614650  1
  O  O240  1  1.00308534  0.23523363  0.63837241  1
  O  O241  1  0.99126160  0.74303824  0.12883352  1
  O  O242  1  0.98984584  0.74419466  0.58443656  1
  O  O243  1  0.00987581  0.25024163  0.36235967  1
  O  O244  1  0.00711914  0.24413640  0.86509299  1
  O  O245  1  0.01301230  0.76029447  0.37900333  1
  O  O246  1  -0.00082813  0.76692793  0.88623302  1
  O  O247  1  0.48929353  0.26704188  0.36038692  1
  O  O248  1  0.50449482  0.24405487  0.86652424  1
  O  O249  1  0.51431609  0.75991940  0.37731220  1
  O  O250  1  0.50656287  0.75856492  0.87140198  1
  O  O251  1  0.24701571  0.13142893  0.49772567  1
  O  O252  1  0.25402379  0.13711490  1.00579169  1
  O  O253  1  0.25003319  0.63790076  0.50902592  1
  O  O254  1  0.24435223  0.63100230  0.99319207  1
  O  O255  1  0.78137793  0.13565788  0.49727687  1
  O  O256  1  0.75641820  0.13605602  0.99163892  1
  O  O257  1  0.73913485  0.63478919  0.50370803  1
  O  O258  1  0.74521693  0.63779418  1.01027320  1
  O  O259  1  0.25946051  0.36902637  0.00018094  1
  O  O260  1  0.25480961  0.36675502  0.50410607  1
  O  O261  1  0.25643246  0.86675429  -0.00029050  1
  O  O262  1  0.25647320  0.86729851  0.50543729  1
  O  O263  1  0.76007732  0.36476580  0.00811200  1
  O  O264  1  0.75902120  0.37773758  0.51477118  1
  O  O265  1  0.74584399  0.86631237  0.01216352  1
  O  O266  1  0.74772222  0.87020874  0.50881435  1
  O  O267  1  0.13355410  0.49227084  0.25739778  1
  O  O268  1  0.11898961  0.48116888  0.75793393  1
  O  O269  1  0.13421851  0.99011217  0.24975503  1
  O  O270  1  0.13809015  0.99225200  0.74819071  1
  O  O271  1  0.62945955  0.49701786  0.24480504  1
  O  O272  1  0.62779388  0.49203571  0.74002180  1
  O  O273  1  0.63674742  0.99921313  0.23643596  1
  O  O274  1  0.62808187  0.99356303  0.74401174  1
  O  O275  1  0.36599256  0.00908684  0.24252336  1
  O  O276  1  0.35918929  0.00163588  0.75223582  1
  O  O277  1  0.36841559  0.50611683  0.25810127  1
  O  O278  1  0.36606462  0.51888693  0.70301204  1
  O  O279  1  0.86462658  -0.00429138  0.25596299  1
  O  O280  1  0.86750072  0.01005309  0.76036677  1
  O  O281  1  0.87239349  0.50496761  0.25861393  1
  O  O282  1  0.87506728  0.49640501  0.76963174  1
  O  O283  1  0.12527268  0.36756259  0.36622178  1
  O  O284  1  0.13241268  0.35988164  0.85895248  1
  O  O285  1  0.12170193  0.86846638  0.36738353  1
  O  O286  1  0.11535175  0.87160333  0.86593159  1
  O  O287  1  0.61106385  0.38660751  0.36898340  1
  O  O288  1  0.63222377  0.37993193  0.85821653  1
  O  O289  1  0.61355438  0.86535391  0.36959505  1
  O  O290  1  0.61406661  0.86691153  0.87104801  1
  O  O291  1  0.38703116  0.12787563  0.13502473  1
  O  O292  1  0.38339295  0.11765998  0.64032928  1
  O  O293  1  0.38072653  0.63024737  0.12958356  1
  O  O294  1  0.39253115  0.64457802  0.60781338  1
  O  O295  1  0.88820994  0.13229104  0.12431847  1
  O  O296  1  0.88263302  0.11519398  0.63985411  1
  O  O297  1  0.88363731  0.63031718  0.13285445  1
  O  O298  1  0.88437766  0.63546821  0.62825051  1
  O  O299  1  0.24962774  0.25328151  0.11041600  1
  O  O300  1  0.24684106  0.25549062  0.61303327  1
  O  O301  1  0.26092855  0.74970516  0.11441069  1
  O  O302  1  0.26089672  0.76133314  0.61812221  1
  O  O303  1  0.75480231  0.25330109  0.11969923  1
  O  O304  1  0.74963222  0.26243089  0.62895611  1
  O  O305  1  0.75511767  0.75714834  0.11939813  1
  O  O306  1  0.74299310  0.76322180  0.61379744  1
  O  O307  1  0.24721572  0.24327863  0.38432275  1
  O  O308  1  0.24192738  0.24871785  0.88922059  1
  O  O309  1  0.24464406  0.75561516  0.38524212  1
  O  O310  1  0.24524500  0.74207633  0.88428458  1
  O  O311  1  0.76334067  0.23191789  0.35775083  1
  O  O312  1  0.74609975  0.24281102  0.88276426  1
  O  O313  1  0.73181953  0.76183883  0.38240075  1
  O  O314  1  0.73890721  0.76249914  0.88905751  1
  O  O315  1  0.00109026  0.11530231  0.00822684  1
  O  O316  1  -0.00327805  0.12206804  0.51011765  1
  O  O317  1  0.01264676  0.63179710  0.01296988  1
  O  O318  1  0.01600804  0.61154963  0.49644135  1
  O  O319  1  0.48762403  0.11306271  0.00862731  1
  O  O320  1  0.48110807  0.12275178  0.52163306  1
  O  O321  1  0.49861287  0.61585775  0.00926111  1
  O  O322  1  0.51321207  0.62308268  0.50678068  1
  O  O323  1  0.49361945  0.38062996  0.49564083  1
  O  O324  1  0.48430946  0.38227195  0.99987344  1
  O  O325  1  0.49393156  0.87734997  0.48527999  1
  O  O326  1  0.49249820  0.88071113  0.99413644  1
  O  O327  1  0.99849195  0.38440857  0.50302449  1
  O  O328  1  0.98695078  0.36533466  1.00953860  1
  O  O329  1  1.00316840  0.88375731  0.48725561  1
  O  O330  1  1.00549714  0.88725889  0.99185681  1
  O  O331  1  0.49109078  0.49449571  0.37952119  1
  O  O332  1  0.50245578  0.50874249  0.88670432  1
  O  O333  1  0.50447954  0.98292365  0.36747378  1
  O  O334  1  0.50671987  0.98809049  0.88527049  1
  O  O335  1  0.99002930  0.49583629  0.38433659  1
  O  O336  1  0.98511243  0.49413025  0.88269188  1
  O  O337  1  0.99331445  0.99298561  0.37557620  1
  O  O338  1  0.99319984  0.99518294  0.88245994  1
  O  O339  1  -0.00180027  0.00520106  0.11899046  1
  O  O340  1  0.00080892  0.00917304  0.61928116  1
  O  O341  1  0.00206716  0.51244629  0.13265119  1
  O  O342  1  -0.00073688  0.50121558  0.61375105  1
  O  O343  1  0.50678395  0.00553768  0.11836421  1
  O  O344  1  0.50651977  0.00792390  0.62914249  1
  O  O345  1  0.50383654  0.50734310  0.11538933  1
  O  O346  1  0.51541219  0.51027966  0.61751389  1
  O  O347  1  0.24371607  0.38197951  0.25272886  1
  O  O348  1  0.24232655  0.37838560  0.74236553  1
  O  O349  1  0.24595362  0.88295133  0.25043887  1
  O  O350  1  0.24602868  0.88465174  0.74420070  1
  O  O351  1  0.74319156  0.38252909  0.24454310  1
  O  O352  1  0.74327785  0.38101685  0.73720863  1
  O  O353  1  0.74573738  0.88187181  0.23669738  1
  O  O354  1  0.74182545  0.88072387  0.74290702  1
  O  O355  1  0.25702410  0.12004501  0.25387668  1
  O  O356  1  0.25590528  0.10855103  0.74459012  1
  O  O357  1  0.26274210  0.61579386  0.24690063  1
  O  O358  1  0.24283115  0.62823236  0.76636353  1
  O  O359  1  0.75341893  0.11754794  0.24284914  1
  O  O360  1  0.75567227  0.12144995  0.75653903  1
  O  O361  1  0.76410877  0.61750020  0.24276515  1
  O  O362  1  0.75970674  0.62188867  0.74901360  1
  O  O363  1  0.37182679  0.12704030  0.35945179  1
  O  O364  1  0.37397467  0.11757215  0.86358532  1
  O  O365  1  0.38691535  0.61739400  0.36679087  1
  O  O366  1  0.35960137  0.63185896  0.87812199  1
  O  O367  1  0.87941962  0.11375868  0.36302714  1
  O  O368  1  0.86540022  0.11640037  0.86783140  1
  O  O369  1  0.88276965  0.61677524  0.36425052  1
  O  O370  1  0.87785423  0.61139760  0.88401483  1
  O  O371  1  0.12789312  0.37676496  0.13941990  1
  O  O372  1  0.13334904  0.36252604  0.64208209  1
  O  O373  1  0.12573940  0.87180217  0.13886573  1
  O  O374  1  0.13579174  0.87828867  0.63042028  1
  O  O375  1  0.62896874  0.38178356  0.13128215  1
  O  O376  1  0.63858682  0.38367396  0.62968650  1
  O  O377  1  0.63165465  0.88327302  0.12609942  1
  O  O378  1  0.62874930  0.88146397  0.63077262  1
  O  O379  1  0.12358191  0.25576060  0.25457662  1
  O  O380  1  0.11856720  0.24921403  0.75859681  1
  O  O381  1  0.12978722  0.75729296  0.25879699  1
  O  O382  1  0.13206866  0.76679312  0.74789850  1
  O  O383  1  0.61024232  0.25855313  0.24468050  1
  O  O384  1  0.62997490  0.26735379  0.75095119  1
  O  O385  1  0.63060587  0.74658772  0.26134572  1
  O  O386  1  0.61999112  0.75684075  0.75721346  1
  O  O387  1  0.38382192  0.24424834  0.24575476  1
  O  O388  1  0.36494905  0.23133894  0.75387160  1
  O  O389  1  0.36706300  0.73987206  0.23782564  1
  O  O390  1  0.38129066  0.75902072  0.73445628  1
  O  O391  1  0.88001892  0.24523100  0.25055500  1
  O  O392  1  0.88234185  0.23888441  0.76034190  1
  O  O393  1  0.87395734  0.74083946  0.24206268  1
  O  O394  1  0.87903492  0.75293794  0.75297768  1
  O  O395  1  0.38107717  0.49534847  0.49576962  1
  O  O396  1  0.37880164  0.48910197  1.00124705  1
  O  O397  1  0.37069547  0.98682440  0.49906532  1
  O  O398  1  0.38370496  0.98611192  1.00851684  1
  O  O399  1  0.88405195  0.49678256  0.49639138  1
  O  O400  1  0.87353868  0.48330799  0.99799616  1
  O  O401  1  0.88049069  0.99611607  0.48512675  1
  O  O402  1  0.88349936  1.00533331  0.99023518  1
  O  O403  1  0.11490454  0.00161169  0.00361709  1
  O  O404  1  0.11834280  0.00891647  0.49865529  1
  O  O405  1  0.13449851  0.51074379  0.00347045  1
  O  O406  1  0.12038737  0.50938116  0.48967608  1
  O  O407  1  0.61346989  -0.00622957  0.00937982  1
  O  O408  1  0.62666628  -0.00680858  0.51607550  1
  O  O409  1  0.61596843  0.49839083  0.00557416  1
  O  O410  1  0.62330889  0.50860795  0.50335432  1
  O  O411  1  0.37161794  0.37199834  0.11212022  1
  O  O412  1  0.36611119  0.37850771  0.61149420  1
  O  O413  1  0.37587075  0.86525036  0.11572567  1
  O  O414  1  0.37248049  0.86982430  0.61532669  1
  O  O415  1  0.86962111  0.36781151  0.12134628  1
  O  O416  1  0.86135295  0.38380390  0.62363542  1
  O  O417  1  0.86694671  0.86307882  0.13223904  1
  O  O418  1  0.86067843  0.87841211  0.62347593  1
  O  O419  1  0.13306597  0.13010447  0.38183698  1
  O  O420  1  0.12257632  0.13576817  0.87788342  1
  O  O421  1  0.12459638  0.63716761  0.38128389  1
  O  O422  1  0.13005610  0.62674223  0.88672202  1
  O  O423  1  0.60016566  0.11410954  0.40091012  1
  O  O424  1  0.63895714  0.12348184  0.86770132  1
  O  O425  1  0.61664494  0.63687492  0.38143067  1
  O  O426  1  0.61887167  0.64015364  0.87348955  1
