# generated using pymatgen
data_V85Zn86O256
_symmetry_space_group_name_H-M   'P 1'
_cell_length_a   16.94354367
_cell_length_b   16.96276275
_cell_length_c   16.95356615
_cell_angle_alpha   90.01845158
_cell_angle_beta   89.99674059
_cell_angle_gamma   89.92059140
_symmetry_Int_Tables_number   1
_chemical_formula_structural   V85Zn86O256
_chemical_formula_sum   'V85 Zn86 O256'
_cell_volume   4872.60783440
_cell_formula_units_Z   1
loop_
 _symmetry_equiv_pos_site_id
 _symmetry_equiv_pos_as_xyz
  1  'x, y, z'
loop_
 _atom_site_type_symbol
 _atom_site_label
 _atom_site_symmetry_multiplicity
 _atom_site_fract_x
 _atom_site_fract_y
 _atom_site_fract_z
 _atom_site_occupancy
  V  V0  1  0.87338982  0.87770880  -0.00006007  1
  V  V1  1  0.62767770  0.11803275  0.50612581  1
  V  V2  1  0.50358376  -0.01254894  0.50485848  1
  V  V3  1  0.87263537  0.75163120  0.12569028  1
  V  V4  1  0.62552161  0.37187153  0.25176500  1
  V  V5  1  0.25459504  0.25083281  0.51064358  1
  V  V6  1  0.12392509  0.87937345  0.74385293  1
  V  V7  1  0.12959129  0.62570049  0.50439599  1
  V  V8  1  0.50427368  0.12156046  0.12523436  1
  V  V9  1  0.50173868  0.50236984  -0.00211440  1
  V  V10  1  -0.00468748  0.25089956  0.24880274  1
  V  V11  1  0.12341605  0.63025786  -0.00213720  1
  V  V12  1  0.49262842  0.49736610  0.49993568  1
  V  V13  1  0.00729306  0.25396901  0.74975345  1
  V  V14  1  0.74932805  0.89286701  0.12443072  1
  V  V15  1  -0.00258771  0.75160609  0.25051007  1
  V  V16  1  0.87848576  0.12497020  0.75173473  1
  V  V17  1  0.12703298  0.12816348  0.00208545  1
  V  V18  1  0.87471151  0.50086950  0.87548290  1
  V  V19  1  0.74824420  0.49930953  0.75023175  1
  V  V20  1  0.62926121  0.23970867  0.37642267  1
  V  V21  1  0.13048004  0.12228330  0.49834775  1
  V  V22  1  -0.00551543  0.13088062  0.12669059  1
  V  V23  1  0.75560421  0.37025601  0.12607254  1
  V  V24  1  0.50594091  0.35947851  0.87340058  1
  V  V25  1  0.00199133  0.00209128  0.00098069  1
  V  V26  1  0.61545318  0.75357329  0.87052839  1
  V  V27  1  0.87167092  0.50144282  0.37728532  1
  V  V28  1  0.86534589  0.00375028  0.37342746  1
  V  V29  1  0.37408364  0.36835079  0.51354668  1
  V  V30  1  0.12938262  0.24484389  0.37508458  1
  V  V31  1  0.75295688  0.24285493  0.49619348  1
  V  V32  1  0.87405629  0.37446775  0.50101858  1
  V  V33  1  0.12669780  0.00136790  0.12592499  1
  V  V34  1  -0.00537558  0.87666717  0.38005033  1
  V  V35  1  0.63273987  0.88164602  0.24435380  1
  V  V36  1  0.38776171  0.74901434  0.13073371  1
  V  V37  1  0.62549611  0.35704809  0.75483400  1
  V  V38  1  0.00696033  0.37779439  0.87283051  1
  V  V39  1  0.49135544  0.13671990  0.62441312  1
  V  V40  1  0.25103772  0.87588469  0.12550758  1
  V  V41  1  0.37333078  -0.00394400  0.37760576  1
  V  V42  1  0.00163974  0.50329306  0.00403827  1
  V  V43  1  0.24536073  0.75409214  -0.00515950  1
  V  V44  1  0.00086540  0.50014314  0.50375439  1
  V  V45  1  0.49855690  0.62348203  0.63015153  1
  V  V46  1  0.00292171  0.37492736  0.37388369  1
  V  V47  1  0.75043811  0.62505849  0.87565071  1
  V  V48  1  0.12455093  0.74974961  0.37612217  1
  V  V49  1  0.38627416  0.61899471  0.24771478  1
  V  V50  1  0.37040185  0.12002893  0.25143257  1
  V  V51  1  0.00950428  0.11957348  0.62658626  1
  V  V52  1  0.24798952  0.00474477  0.74572207  1
  V  V53  1  0.74957893  0.50400888  0.25475526  1
  V  V54  1  0.61851639  0.50088059  0.12609646  1
  V  V55  1  0.62316499  0.62531033  0.00662365  1
  V  V56  1  0.00573358  0.87395655  0.87440594  1
  V  V57  1  0.37961843  -0.00505310  0.86997082  1
  V  V58  1  0.75048171  0.75308818  -0.00037391  1
  V  V59  1  0.12428433  0.87541005  0.24982377  1
  V  V60  1  0.50093303  0.86524140  0.36444298  1
  V  V61  1  0.12799321  0.48653985  0.63005830  1
  V  V62  1  0.87192833  0.75644928  0.62179397  1
  V  V63  1  0.75279871  0.75132992  0.48982302  1
  V  V64  1  0.37476520  0.75165451  0.61883000  1
  V  V65  1  0.25091684  0.25617313  0.01000026  1
  V  V66  1  0.62233605  0.13271143  -0.00546356  1
  V  V67  1  0.50359036  -0.00535121  -0.00012620  1
  V  V68  1  0.24877026  0.63131538  0.87073394  1
  V  V69  1  0.63028275  0.62040719  0.49318643  1
  V  V70  1  0.74610796  0.25261514  -0.00631933  1
  V  V71  1  0.86395470  0.12326516  0.25146572  1
  V  V72  1  0.49818774  0.37280536  0.37579426  1
  V  V73  1  0.12904628  0.25341452  0.87636506  1
  V  V74  1  0.87770342  0.36988847  0.00561068  1
  V  V75  1  0.87196303  0.00457146  0.87485091  1
  V  V76  1  0.00219769  -0.00123811  0.50153056  1
  V  V77  1  0.87066522  0.62672584  0.25475175  1
  V  V78  1  0.00102887  0.75116757  0.75099810  1
  V  V79  1  0.37527402  0.37585680  0.00430039  1
  V  V80  1  0.24596526  0.48658094  0.75089160  1
  V  V81  1  0.50203275  0.24564579  0.25171619  1
  V  V82  1  0.25273403  0.87635282  0.61988153  1
  V  V83  1  0.75039632  0.37299318  0.62632386  1
  V  V84  1  0.24994500  0.62036633  0.36486023  1
  Zn  Zn85  1  0.87469753  0.62779856  0.74865469  1
  Zn  Zn86  1  0.37749825  0.50140855  0.87255307  1
  Zn  Zn87  1  0.61823287  0.89240855  0.73750404  1
  Zn  Zn88  1  0.00214035  0.62706712  0.12751668  1
  Zn  Zn89  1  0.14588932  0.38195241  0.24820397  1
  Zn  Zn90  1  0.13801760  0.50051985  0.13496583  1
  Zn  Zn91  1  0.37408860  0.62552507  0.75119605  1
  Zn  Zn92  1  0.25487188  0.75516760  0.49649227  1
  Zn  Zn93  1  0.37872772  0.14480103  0.74921999  1
  Zn  Zn94  1  0.37988765  0.87082289  -0.00471406  1
  Zn  Zn95  1  0.74377331  0.88045787  0.62114117  1
  Zn  Zn96  1  0.00064994  0.62551574  0.62849670  1
  Zn  Zn97  1  0.74031419  0.00409121  0.73328406  1
  Zn  Zn98  1  0.73688899  0.13468182  0.86414863  1
  Zn  Zn99  1  0.33022144  0.45827817  0.33097247  1
  Zn  Zn100  1  0.87890853  0.24897909  0.62383872  1
  Zn  Zn101  1  0.25393100  0.12692720  0.87483742  1
  Zn  Zn102  1  0.62483705  0.73806196  0.36317131  1
  Zn  Zn103  1  0.49402001  0.76633802  0.75349376  1
  Zn  Zn104  1  0.62248899  0.49720738  0.62665354  1
  Zn  Zn105  1  0.24737288  0.00383503  0.25657541  1
  Zn  Zn106  1  0.37468957  0.25143378  0.12885403  1
  Zn  Zn107  1  0.18486759  0.19068212  0.18963026  1
  Zn  Zn108  1  0.19146679  0.19098113  0.68881373  1
  Zn  Zn109  1  0.18780913  0.68869923  0.18403280  1
  Zn  Zn110  1  0.18465998  0.69177151  0.68745294  1
  Zn  Zn111  1  0.68505548  0.18643424  0.17968997  1
  Zn  Zn112  1  0.68951071  0.18255271  0.67908284  1
  Zn  Zn113  1  0.68563400  0.69382730  0.18723899  1
  Zn  Zn114  1  0.68572039  0.68926375  0.68242402  1
  Zn  Zn115  1  0.31495564  0.29422288  0.32101894  1
  Zn  Zn116  1  0.31806024  0.31359486  0.81821496  1
  Zn  Zn117  1  0.31342763  0.80885520  0.31159012  1
  Zn  Zn118  1  0.31482966  0.81420157  0.80598348  1
  Zn  Zn119  1  0.81443549  0.31214444  0.31331064  1
  Zn  Zn120  1  0.81876253  0.31426411  0.81374351  1
  Zn  Zn121  1  0.80962235  0.81671758  0.31195608  1
  Zn  Zn122  1  0.80806534  0.81705882  0.80864967  1
  Zn  Zn123  1  0.18634902  0.43532507  0.44329911  1
  Zn  Zn124  1  0.19147280  0.44427074  0.94492394  1
  Zn  Zn125  1  0.18449764  0.93756628  0.43735243  1
  Zn  Zn126  1  0.18985866  0.93981524  0.93458221  1
  Zn  Zn127  1  0.68434207  0.43397766  0.43958003  1
  Zn  Zn128  1  0.68686295  0.43572921  0.93623491  1
  Zn  Zn129  1  0.68325054  0.93090388  0.43712121  1
  Zn  Zn130  1  0.66812420  0.95683132  0.90110507  1
  Zn  Zn131  1  0.31572785  0.06454291  0.06091339  1
  Zn  Zn132  1  0.31461404  0.05945686  0.56017954  1
  Zn  Zn133  1  0.31681422  0.57062395  0.05995817  1
  Zn  Zn134  1  0.31164547  0.55979830  0.56471161  1
  Zn  Zn135  1  0.81322539  0.06977104  0.05783775  1
  Zn  Zn136  1  0.82060953  0.06145891  0.56122721  1
  Zn  Zn137  1  0.81160374  0.56190084  0.06608017  1
  Zn  Zn138  1  0.81367488  0.56669449  0.56711320  1
  Zn  Zn139  1  0.30100268  0.42903513  0.16842765  1
  Zn  Zn140  1  0.43602490  0.43414908  0.69333819  1
  Zn  Zn141  1  0.43961659  0.93627885  0.18723159  1
  Zn  Zn142  1  0.43745753  0.93511963  0.68756184  1
  Zn  Zn143  1  0.94315251  0.44055219  0.19001183  1
  Zn  Zn144  1  0.93751612  0.43811818  0.68675208  1
  Zn  Zn145  1  0.93606601  0.94073675  0.18936179  1
  Zn  Zn146  1  0.93139790  0.93781448  0.68457632  1
  Zn  Zn147  1  0.05924540  0.06241603  0.31224771  1
  Zn  Zn148  1  0.06521837  0.06312148  0.81520005  1
  Zn  Zn149  1  0.06166209  0.56372206  0.31449888  1
  Zn  Zn150  1  0.06658677  0.56576566  0.81429783  1
  Zn  Zn151  1  0.56173530  0.05647271  0.31565525  1
  Zn  Zn152  1  0.55750139  0.07039310  0.80985971  1
  Zn  Zn153  1  0.55857221  0.55612599  0.31274125  1
  Zn  Zn154  1  0.56708337  0.56068657  0.81533149  1
  Zn  Zn155  1  0.43871596  0.18014848  0.43967199  1
  Zn  Zn156  1  0.43173804  0.18336934  0.93650732  1
  Zn  Zn157  1  0.43546117  0.68189109  0.43658611  1
  Zn  Zn158  1  0.43383566  0.68594143  0.94208535  1
  Zn  Zn159  1  0.93885056  0.18349653  0.43532973  1
  Zn  Zn160  1  0.93945227  0.19139149  0.93862896  1
  Zn  Zn161  1  0.93816294  0.68560346  0.43872390  1
  Zn  Zn162  1  0.93592148  0.68967679  0.93514891  1
  Zn  Zn163  1  0.06731839  0.31818453  0.06842725  1
  Zn  Zn164  1  0.06381742  0.30904875  0.56114518  1
  Zn  Zn165  1  0.06123625  0.81346165  0.06311960  1
  Zn  Zn166  1  0.06338124  0.81278386  0.56522965  1
  Zn  Zn167  1  0.56101705  0.31388809  0.06632160  1
  Zn  Zn168  1  0.56646683  0.31258534  0.56409523  1
  Zn  Zn169  1  0.56923644  0.81572332  0.06193341  1
  Zn  Zn170  1  0.56631615  0.80487342  0.56145778  1
  O  O171  1  0.11632040  0.12105112  0.12216281  1
  O  O172  1  0.11603955  0.12908806  0.61693323  1
  O  O173  1  0.12271259  0.62433475  0.11074683  1
  O  O174  1  0.12378512  0.61966409  0.61629658  1
  O  O175  1  0.61297116  0.12605767  0.11356445  1
  O  O176  1  0.61482914  0.12400142  0.61235609  1
  O  O177  1  0.63440514  0.61543662  0.11556763  1
  O  O178  1  0.61428974  0.62186364  0.61425007  1
  O  O179  1  0.38633772  0.36947978  0.38469700  1
  O  O180  1  0.39137828  0.38018756  0.88440145  1
  O  O181  1  0.38912659  0.88374321  0.36335928  1
  O  O182  1  0.37062073  0.88973370  0.87677898  1
  O  O183  1  0.88270070  0.38069601  0.38175184  1
  O  O184  1  0.88639159  0.38070381  0.88553338  1
  O  O185  1  0.88709203  0.88759615  0.36791097  1
  O  O186  1  0.88258884  0.88698892  0.87958120  1
  O  O187  1  0.26816420  -0.01086195  0.37573254  1
  O  O188  1  0.25931785  0.00324086  0.86658281  1
  O  O189  1  0.24796522  0.51446935  0.38519703  1
  O  O190  1  0.24840729  0.51120661  0.86506222  1
  O  O191  1  0.76789513  -0.00846745  0.38500077  1
  O  O192  1  0.76903822  0.01460335  0.88588175  1
  O  O193  1  0.75373550  0.48903255  0.36194272  1
  O  O194  1  0.75462745  0.50320973  0.86941137  1
  O  O195  1  0.24631417  0.49569247  0.09909182  1
  O  O196  1  0.24310624  0.50373762  0.64140975  1
  O  O197  1  0.24661475  0.99016194  0.12383946  1
  O  O198  1  0.26076743  0.99017449  0.63599387  1
  O  O199  1  0.74280972  0.49017294  0.13411342  1
  O  O200  1  0.75043367  0.49223774  0.63540220  1
  O  O201  1  0.75400187  0.99160300  0.11705677  1
  O  O202  1  0.75892435  0.99507351  0.62209756  1
  O  O203  1  -0.00898773  0.36511954  0.26293999  1
  O  O204  1  -0.00590836  0.36656001  0.76207835  1
  O  O205  1  0.00469515  0.87139431  0.25836207  1
  O  O206  1  0.00501224  0.87408849  0.75485849  1
  O  O207  1  0.50870942  0.36336881  0.26408217  1
  O  O208  1  0.50958300  0.37986304  0.76582429  1
  O  O209  1  0.51076595  0.87557670  0.25764901  1
  O  O210  1  0.50673024  0.87821799  0.75285993  1
  O  O211  1  0.49700635  0.12479398  0.24291022  1
  O  O212  1  0.49930291  0.11844921  0.72800083  1
  O  O213  1  0.48590315  0.62206206  0.25419391  1
  O  O214  1  0.50086630  0.61695347  0.73708681  1
  O  O215  1  0.99457407  0.13240990  0.24379644  1
  O  O216  1  0.99921559  0.13158723  0.74449510  1
  O  O217  1  0.98858986  0.63371538  0.24961312  1
  O  O218  1  1.00053312  0.63926211  0.75390858  1
  O  O219  1  0.36667222  0.25698278  -0.00014849  1
  O  O220  1  0.36076960  0.24960152  0.49240085  1
  O  O221  1  0.36563048  0.75125788  0.01194912  1
  O  O222  1  0.37286551  0.74354671  0.51336127  1
  O  O223  1  0.87001568  0.26360873  -0.00081924  1
  O  O224  1  0.86815263  0.25348804  0.49722230  1
  O  O225  1  0.87080181  0.75737537  0.00480577  1
  O  O226  1  0.86147336  0.73887527  0.50563197  1
  O  O227  1  0.13281829  0.24280284  0.49445716  1
  O  O228  1  0.13106470  0.24853871  0.99504975  1
  O  O229  1  0.12436815  0.74034566  0.49549729  1
  O  O230  1  0.13431673  0.74469024  1.00456524  1
  O  O231  1  0.63349272  0.24098903  0.49418966  1
  O  O232  1  0.63497301  0.24682225  1.00595462  1
  O  O233  1  0.63591380  0.73682782  0.49390344  1
  O  O234  1  0.62922188  0.74019759  0.99634485  1
  O  O235  1  0.49938634  0.24031573  0.13351441  1
  O  O236  1  0.49938175  0.23543038  0.61325886  1
  O  O237  1  0.48569730  0.75800312  0.11770135  1
  O  O238  1  0.49246886  0.73828729  0.62436704  1
  O  O239  1  1.00570241  0.24135844  0.13596294  1
  O  O240  1  1.00236621  0.24281705  0.63475119  1
  O  O241  1  0.99077351  0.75245292  0.13234403  1
  O  O242  1  0.99245753  0.75033748  0.63313547  1
  O  O243  1  0.00729903  0.25678153  0.37112400  1
  O  O244  1  0.00923639  0.25848687  0.87096670  1
  O  O245  1  0.00245893  0.75919839  0.37196568  1
  O  O246  1  -0.01027423  0.76563894  0.86533480  1
  O  O247  1  0.50894095  0.25299666  0.37437250  1
  O  O248  1  0.49897828  0.26146810  0.88035449  1
  O  O249  1  0.49781425  0.76405742  0.38185308  1
  O  O250  1  0.51175311  0.74025881  0.87624203  1
  O  O251  1  0.23979933  0.13286226  0.50604262  1
  O  O252  1  0.24501459  0.13702317  0.99990294  1
  O  O253  1  0.24045450  0.62642901  0.49412413  1
  O  O254  1  0.24346072  0.63598655  0.99160702  1
  O  O255  1  0.74392840  0.13480574  0.50512543  1
  O  O256  1  0.74073315  0.13803126  1.00234095  1
  O  O257  1  0.73784582  0.62783439  0.50367709  1
  O  O258  1  0.74383361  0.62982845  0.99640148  1
  O  O259  1  0.26357802  0.36653518  -0.01211881  1
  O  O260  1  0.25916237  0.36054123  0.49416740  1
  O  O261  1  0.24938952  0.87012370  0.00816898  1
  O  O262  1  0.23962562  0.87468421  0.51522607  1
  O  O263  1  0.75765097  0.37247098  0.00578033  1
  O  O264  1  0.75391690  0.36606732  0.50573036  1
  O  O265  1  0.75741301  0.87031660  0.00749552  1
  O  O266  1  0.74338088  0.85386155  0.49974260  1
  O  O267  1  0.10967980  0.49276229  0.24640257  1
  O  O268  1  0.13576719  0.50560345  0.74408523  1
  O  O269  1  0.12770220  0.99556941  0.24518265  1
  O  O270  1  0.13519079  0.99263646  0.75514981  1
  O  O271  1  0.63127106  0.49413513  0.24502885  1
  O  O272  1  0.63819335  0.48965143  0.75178960  1
  O  O273  1  0.62478255  0.98204073  0.25694120  1
  O  O274  1  0.63957980  0.99597780  0.79232922  1
  O  O275  1  0.37540940  0.00440346  0.25797865  1
  O  O276  1  0.36769125  0.00034201  0.76062686  1
  O  O277  1  0.36846746  0.51764311  0.23941124  1
  O  O278  1  0.35913481  0.50269677  0.75128062  1
  O  O279  1  0.88048952  0.00886683  0.26369532  1
  O  O280  1  0.88086796  0.01166371  0.76001833  1
  O  O281  1  0.86817902  0.50710005  0.25473377  1
  O  O282  1  0.86429980  0.49817872  0.75692293  1
  O  O283  1  0.11461094  0.36605192  0.37779136  1
  O  O284  1  0.11440675  0.36821048  0.88515692  1
  O  O285  1  0.11663083  0.87011417  0.36924844  1
  O  O286  1  0.11225014  0.88157529  0.86675513  1
  O  O287  1  0.61804555  0.36159228  0.37332185  1
  O  O288  1  0.61464705  0.37445010  0.87113555  1
  O  O289  1  0.61519182  0.86994520  0.36440989  1
  O  O290  1  0.62722276  0.85171978  0.88669881  1
  O  O291  1  0.38610956  0.12636587  0.13322950  1
  O  O292  1  0.38855138  0.12178039  0.62078034  1
  O  O293  1  0.37178684  0.63996644  0.13433955  1
  O  O294  1  0.38234947  0.63048978  0.62626923  1
  O  O295  1  0.88921171  0.11839105  0.13238326  1
  O  O296  1  0.89032626  0.12873247  0.63519602  1
  O  O297  1  0.87530531  0.63164157  0.13645442  1
  O  O298  1  0.88111581  0.63563836  0.62995899  1
  O  O299  1  0.25090026  0.25124214  0.11447320  1
  O  O300  1  0.24373181  0.25283189  0.60922616  1
  O  O301  1  0.25448207  0.76066664  0.11592189  1
  O  O302  1  0.25652079  0.75849163  0.62476573  1
  O  O303  1  0.74808717  0.26521189  0.11632890  1
  O  O304  1  0.75461065  0.25474764  0.61301862  1
  O  O305  1  0.75632995  0.75844865  0.11743931  1
  O  O306  1  0.75888712  0.74690477  0.61509114  1
  O  O307  1  0.23492402  0.24579016  0.38542456  1
  O  O308  1  0.23893896  0.25048957  0.88351210  1
  O  O309  1  0.24324160  0.74315926  0.37790684  1
  O  O310  1  0.25811605  0.74751196  0.88657947  1
  O  O311  1  0.74046396  0.25558640  0.38452367  1
  O  O312  1  0.75702836  0.25036704  0.88859575  1
  O  O313  1  0.75279492  0.74797119  0.38608624  1
  O  O314  1  0.74380551  0.74328285  0.88126034  1
  O  O315  1  0.00512655  0.12424780  0.00917371  1
  O  O316  1  0.00886819  0.12130651  0.50842106  1
  O  O317  1  0.00590123  0.62084019  -0.00258654  1
  O  O318  1  0.01270691  0.61736209  0.49807543  1
  O  O319  1  0.50367988  0.12222020  0.00738253  1
  O  O320  1  0.50759763  0.11326643  0.50675289  1
  O  O321  1  0.51192656  0.61515658  -0.00188296  1
  O  O322  1  0.50288354  0.61334874  0.50621679  1
  O  O323  1  0.49537528  0.37678233  0.49493077  1
  O  O324  1  0.49871860  0.38045980  0.99079038  1
  O  O325  1  0.50908797  0.88380088  0.48742885  1
  O  O326  1  0.50054785  0.89159979  1.00439848  1
  O  O327  1  0.99506027  0.37797463  0.49250047  1
  O  O328  1  0.99463333  0.38267407  0.99459766  1
  O  O329  1  1.00879305  0.88461132  0.49034194  1
  O  O330  1  0.99549700  0.88074689  0.99301487  1
  O  O331  1  0.50341420  0.48331845  0.38535498  1
  O  O332  1  0.50295130  0.49446128  0.88725196  1
  O  O333  1  0.49268939  0.98677066  0.38117493  1
  O  O334  1  0.48613297  1.00810717  0.88601529  1
  O  O335  1  0.99339213  0.49130542  0.38348393  1
  O  O336  1  0.99667463  0.49443696  0.88108315  1
  O  O337  1  0.99667538  0.99224312  0.38133615  1
  O  O338  1  0.99401346  0.99445840  0.88108070  1
  O  O339  1  0.00707257  0.00787417  0.12087170  1
  O  O340  1  -0.00586713  0.00849945  0.61452379  1
  O  O341  1  -0.00492247  0.50538717  0.10986040  1
  O  O342  1  0.00863386  0.50259475  0.62256417  1
  O  O343  1  0.49184680  0.00879217  0.10985393  1
  O  O344  1  0.49366498  -0.00107897  0.60554844  1
  O  O345  1  0.51725834  0.49243500  0.11246172  1
  O  O346  1  0.49947520  0.50428365  0.61675793  1
  O  O347  1  0.26408222  0.38016575  0.26429955  1
  O  O348  1  0.24580511  0.38943513  0.76289910  1
  O  O349  1  0.24348358  0.87447832  0.23965886  1
  O  O350  1  0.24119914  0.88222162  0.74374324  1
  O  O351  1  0.74773249  0.38024046  0.24337966  1
  O  O352  1  0.74585190  0.37896525  0.74857399  1
  O  O353  1  0.74272240  0.87699266  0.24041789  1
  O  O354  1  0.74232541  0.88307396  0.74640032  1
  O  O355  1  0.26452363  0.12331120  0.24330021  1
  O  O356  1  0.25087649  0.11448800  0.74942308  1
  O  O357  1  0.25181583  0.63034438  0.25988076  1
  O  O358  1  0.24674023  0.62810519  0.76219842  1
  O  O359  1  0.76538718  0.13256660  0.23849911  1
  O  O360  1  0.76498168  0.12716537  0.74926778  1
  O  O361  1  0.75680447  0.61335396  0.24428559  1
  O  O362  1  0.74798542  0.61363622  0.75546845  1
  O  O363  1  0.38616112  0.10710624  0.36412282  1
  O  O364  1  0.37220098  0.11381225  0.86856729  1
  O  O365  1  0.36592464  0.63147857  0.35841352  1
  O  O366  1  0.36322050  0.62187972  0.87518523  1
  O  O367  1  0.87884825  0.11287894  0.36625031  1
  O  O368  1  0.88468744  0.12039987  0.86559401  1
  O  O369  1  0.87914464  0.61777528  0.36289125  1
  O  O370  1  0.86787383  0.61880357  0.87295552  1
  O  O371  1  0.12799574  0.38133996  0.13348328  1
  O  O372  1  0.12301730  0.38720579  0.62042557  1
  O  O373  1  0.13129442  0.88106429  0.12948623  1
  O  O374  1  0.13291488  0.87504873  0.63629165  1
  O  O375  1  0.63447508  0.38170514  0.13163846  1
  O  O376  1  0.63144393  0.37538083  0.63627586  1
  O  O377  1  0.63397426  0.87469078  0.13528040  1
  O  O378  1  0.62935694  0.86655696  0.62708201  1
  O  O379  1  0.11478102  0.25102890  0.26060076  1
  O  O380  1  0.11616294  0.24574446  0.76134118  1
  O  O381  1  0.11736280  0.75506877  0.25524894  1
  O  O382  1  0.11151279  0.76382847  0.74692925  1
  O  O383  1  0.62319662  0.25043305  0.25813857  1
  O  O384  1  0.63383421  0.25795872  0.74908269  1
  O  O385  1  0.63064537  0.76581493  0.25288759  1
  O  O386  1  0.62335100  0.74196010  0.76674898  1
  O  O387  1  0.38461772  0.23594851  0.25218932  1
  O  O388  1  0.36752061  0.25428426  0.74282336  1
  O  O389  1  0.37349248  0.74317249  0.23634579  1
  O  O390  1  0.37814751  0.74499542  0.73841307  1
  O  O391  1  0.88803241  0.23990481  0.26026284  1
  O  O392  1  0.89005140  0.24172942  0.75310849  1
  O  O393  1  0.87587788  0.74426776  0.24709960  1
  O  O394  1  0.88324078  0.75169259  0.74241405  1
  O  O395  1  0.38419041  0.48845984  0.50281664  1
  O  O396  1  0.38820820  0.49543036  0.99941433  1
  O  O397  1  0.38795337  1.00252904  0.48496067  1
  O  O398  1  0.38241715  0.99992766  0.98878888  1
  O  O399  1  0.87907366  0.49527975  0.49729050  1
  O  O400  1  0.88129665  0.49349073  0.99465976  1
  O  O401  1  0.89231312  1.01088690  0.48376896  1
  O  O402  1  0.88437461  0.99896168  0.99426340  1
  O  O403  1  0.12118794  0.00745194  0.00476514  1
  O  O404  1  0.11479615  0.01153537  0.49241341  1
  O  O405  1  0.11231172  0.51122765  -0.00373571  1
  O  O406  1  0.12179823  0.50627598  0.51021712  1
  O  O407  1  0.60784894  0.01085502  -0.01052251  1
  O  O408  1  0.61264459  0.00762885  0.48840938  1
  O  O409  1  0.62376024  0.50595365  0.00622850  1
  O  O410  1  0.61441713  0.50215607  0.50296033  1
  O  O411  1  0.38193505  0.36989386  0.10827873  1
  O  O412  1  0.38297956  0.37102466  0.61238581  1
  O  O413  1  0.36686746  0.86586654  0.12546155  1
  O  O414  1  0.36385094  0.86442133  0.62978901  1
  O  O415  1  0.86754590  0.38459572  0.11625240  1
  O  O416  1  0.87032953  0.37079178  0.61889263  1
  O  O417  1  0.86894555  0.87275719  0.12129523  1
  O  O418  1  0.87409817  0.86032499  0.62303478  1
  O  O419  1  0.11446338  0.13417334  0.38609334  1
  O  O420  1  0.12456032  0.13732299  0.88391509  1
  O  O421  1  0.13074707  0.63021916  0.38289216  1
  O  O422  1  0.13470667  0.62643363  0.88759597  1
  O  O423  1  0.61801560  0.13396125  0.38499125  1
  O  O424  1  0.62100617  0.13228208  0.88959480  1
  O  O425  1  0.61394468  0.62291214  0.38749499  1
  O  O426  1  0.63202810  0.63000595  0.88743157  1
