# generated using pymatgen
data_V85Zn86O256
_symmetry_space_group_name_H-M   'P 1'
_cell_length_a   16.96479455
_cell_length_b   16.94768324
_cell_length_c   16.96091942
_cell_angle_alpha   90.00848224
_cell_angle_beta   89.97701385
_cell_angle_gamma   89.90470429
_symmetry_Int_Tables_number   1
_chemical_formula_structural   V85Zn86O256
_chemical_formula_sum   'V85 Zn86 O256'
_cell_volume   4876.49398625
_cell_formula_units_Z   1
loop_
 _symmetry_equiv_pos_site_id
 _symmetry_equiv_pos_as_xyz
  1  'x, y, z'
loop_
 _atom_site_type_symbol
 _atom_site_label
 _atom_site_symmetry_multiplicity
 _atom_site_fract_x
 _atom_site_fract_y
 _atom_site_fract_z
 _atom_site_occupancy
  V  V0  1  0.37127502  0.75895626  0.62911138  1
  V  V1  1  0.61485809  0.86564712  0.26817052  1
  V  V2  1  0.37429206  0.62629905  0.75177367  1
  V  V3  1  0.13137866  -0.00267052  0.12870269  1
  V  V4  1  0.74916557  0.50377027  0.75513773  1
  V  V5  1  0.87556935  0.87012646  0.50333718  1
  V  V6  1  0.87603912  0.37180310  0.50327308  1
  V  V7  1  0.87839864  0.49508460  0.37627184  1
  V  V8  1  0.63296706  0.74213603  0.86888345  1
  V  V9  1  0.37765422  0.24966776  0.62879873  1
  V  V10  1  0.62599461  0.12490112  0.50209374  1
  V  V11  1  0.62455935  0.50825147  0.12382945  1
  V  V12  1  0.62329222  0.37233213  0.75021075  1
  V  V13  1  -0.00044958  -0.00086883  0.49897718  1
  V  V14  1  0.25733219  0.62406177  0.37509999  1
  V  V15  1  0.37231530  0.64562938  0.24060231  1
  V  V16  1  0.75059648  0.37566015  0.12338756  1
  V  V17  1  0.75325092  0.37042770  0.62645692  1
  V  V18  1  0.37041274  0.50471343  0.87591943  1
  V  V19  1  0.74703162  0.73563835  -0.00171587  1
  V  V20  1  -0.00145827  0.76140511  0.75443146  1
  V  V21  1  0.50134885  0.13099870  0.63148289  1
  V  V22  1  0.37629495  -0.00298545  0.87392570  1
  V  V23  1  0.75218893  0.25104936  0.50128905  1
  V  V24  1  -0.00128178  -0.00722332  -0.00605748  1
  V  V25  1  0.25075743  0.37450451  0.62391405  1
  V  V26  1  0.37966099  0.87977078  0.48885702  1
  V  V27  1  -0.00191664  0.13291982  0.62379540  1
  V  V28  1  0.12641450  0.49854809  0.12766426  1
  V  V29  1  0.87416498  0.62576505  0.75216526  1
  V  V30  1  0.12544289  0.49825915  0.62661208  1
  V  V31  1  0.24585077  -0.01341873  0.74715983  1
  V  V32  1  0.00667811  0.25646005  0.26013541  1
  V  V33  1  0.12510741  0.12562331  -0.00101933  1
  V  V34  1  -0.00361728  0.62733254  0.62787980  1
  V  V35  1  0.74776589  -0.00436837  0.75245403  1
  V  V36  1  -0.00296231  0.49628327  0.00132114  1
  V  V37  1  0.24884315  0.10780921  0.36981522  1
  V  V38  1  0.12929239  -0.00932470  0.62812516  1
  V  V39  1  0.50365926  0.50599436  0.00048963  1
  V  V40  1  0.24857287  0.50453641  0.75278939  1
  V  V41  1  -0.00392432  0.37267070  0.87784832  1
  V  V42  1  0.62457494  0.12251943  0.00358725  1
  V  V43  1  0.74894022  0.50019014  0.24989952  1
  V  V44  1  0.87819524  0.62666546  0.24928822  1
  V  V45  1  0.74844851  0.87125340  0.62821987  1
  V  V46  1  0.49338778  0.50239285  0.49965494  1
  V  V47  1  -0.00316137  0.25042883  0.74758060  1
  V  V48  1  0.87285067  0.50017496  0.87894912  1
  V  V49  1  0.49485402  0.38577193  0.37497265  1
  V  V50  1  0.50220064  0.75898377  0.75191394  1
  V  V51  1  0.87386677  0.12420291  0.24996038  1
  V  V52  1  0.75077811  -0.00740458  0.24632051  1
  V  V53  1  0.62886242  -0.01070713  0.12385757  1
  V  V54  1  0.37241483  0.37351992  0.00372599  1
  V  V55  1  0.49942296  0.37289115  0.87137601  1
  V  V56  1  0.74992614  0.12499366  0.37504350  1
  V  V57  1  0.75123929  0.74858442  0.50311279  1
  V  V58  1  0.25812932  0.49913699  0.25175960  1
  V  V59  1  0.12255130  0.74965883  0.37427403  1
  V  V60  1  0.87327103  0.12656342  0.74629540  1
  V  V61  1  0.62372870  0.24884404  0.87417758  1
  V  V62  1  0.37573898  0.87118412  0.00528767  1
  V  V63  1  0.74728110  0.62834174  0.37705788  1
  V  V64  1  0.12938227  0.62194072  -0.01205425  1
  V  V65  1  0.62192111  -0.00427480  0.62745239  1
  V  V66  1  0.62428965  0.62687682  0.50212604  1
  V  V67  1  0.75362335  0.25429810  -0.00005861  1
  V  V68  1  0.12874148  0.87858833  0.25016231  1
  V  V69  1  0.62542598  0.25117402  0.37453874  1
  V  V70  1  0.25097082  0.74811853  0.00275590  1
  V  V71  1  0.87039256  0.87475339  -0.00582686  1
  V  V72  1  0.00024248  0.12496327  0.12505674  1
  V  V73  1  0.87164112  0.75701950  0.12421416  1
  V  V74  1  0.49516252  0.63565065  0.12490277  1
  V  V75  1  0.24823251  0.75530110  0.50708232  1
  V  V76  1  0.37207340  0.10881787  0.25109704  1
  V  V77  1  0.12448206  0.76902262  0.87312883  1
  V  V78  1  0.49428087  0.25093289  0.24916709  1
  V  V79  1  0.24930401  0.12639184  0.87109265  1
  V  V80  1  0.00163883  0.49595631  0.49887306  1
  V  V81  1  0.25335067  0.25068564  0.49137605  1
  V  V82  1  0.62481625  0.37608799  0.24898653  1
  V  V83  1  0.87609000  0.25483537  0.12152133  1
  V  V84  1  0.12621729  0.13041191  0.49625925  1
  Zn  Zn85  1  0.37816306  0.12751666  0.75149361  1
  Zn  Zn86  1  0.12680252  0.37490778  0.26575160  1
  Zn  Zn87  1  -0.00223959  0.87316973  0.37406874  1
  Zn  Zn88  1  0.12605221  0.62610809  0.50138546  1
  Zn  Zn89  1  0.75231763  0.12147843  0.87609895  1
  Zn  Zn90  1  0.12440929  0.37204450  0.75042564  1
  Zn  Zn91  1  0.12564139  0.25138566  0.87420821  1
  Zn  Zn92  1  0.50367322  -0.01074063  0.48747914  1
  Zn  Zn93  1  0.87391444  -0.00282945  0.37345183  1
  Zn  Zn94  1  0.50139401  0.62456417  0.62708542  1
  Zn  Zn95  1  0.25027543  0.25037504  0.00142230  1
  Zn  Zn96  1  -0.00061306  0.75246891  0.24674090  1
  Zn  Zn97  1  0.37551746  0.37725708  0.49794443  1
  Zn  Zn98  1  0.25753141  0.87237842  0.13207534  1
  Zn  Zn99  1  0.24822090  0.37111196  0.12939330  1
  Zn  Zn100  1  0.88058218  -0.00526129  0.87031365  1
  Zn  Zn101  1  0.51097330  0.87898076  0.87418729  1
  Zn  Zn102  1  0.50064479  -0.00238263  0.00114753  1
  Zn  Zn103  1  0.49755892  0.12372314  0.12534276  1
  Zn  Zn104  1  -0.00003706  0.62590178  0.12201519  1
  Zn  Zn105  1  0.62296003  0.49940929  0.62666573  1
  Zn  Zn106  1  0.37139245  0.24768849  0.12528269  1
  Zn  Zn107  1  0.18964574  0.18680732  0.18612210  1
  Zn  Zn108  1  0.18490315  0.18569848  0.68421719  1
  Zn  Zn109  1  0.18429365  0.68651635  0.18447237  1
  Zn  Zn110  1  0.18403689  0.68879369  0.69221416  1
  Zn  Zn111  1  0.68699615  0.18570514  0.18752321  1
  Zn  Zn112  1  0.68855401  0.18666814  0.68765482  1
  Zn  Zn113  1  0.68837333  0.68986070  0.18644387  1
  Zn  Zn114  1  0.68748810  0.68783336  0.68615347  1
  Zn  Zn115  1  0.31256295  0.31291301  0.31302931  1
  Zn  Zn116  1  0.31113248  0.31401277  0.81211816  1
  Zn  Zn117  1  0.30957055  0.81560803  0.31588232  1
  Zn  Zn118  1  0.31075504  0.81056427  0.82010713  1
  Zn  Zn119  1  0.81501732  0.31195396  0.31154617  1
  Zn  Zn120  1  0.81332210  0.31294643  0.81377984  1
  Zn  Zn121  1  0.80906179  0.81242718  0.31559760  1
  Zn  Zn122  1  0.81424083  0.81233476  0.81495601  1
  Zn  Zn123  1  0.19276680  0.44148665  0.43775270  1
  Zn  Zn124  1  0.18506391  0.43537331  0.93676091  1
  Zn  Zn125  1  0.18647579  0.93457871  0.44172999  1
  Zn  Zn126  1  0.19179057  0.93957301  0.94067456  1
  Zn  Zn127  1  0.68457319  0.44114764  0.43682119  1
  Zn  Zn128  1  0.68692885  0.43878831  0.93885014  1
  Zn  Zn129  1  0.68891402  0.93837725  0.43813435  1
  Zn  Zn130  1  0.69018727  0.92764215  0.93729587  1
  Zn  Zn131  1  0.31289714  0.06073471  0.06216948  1
  Zn  Zn132  1  0.31276778  0.06310964  0.56404328  1
  Zn  Zn133  1  0.31028658  0.56344634  0.06275017  1
  Zn  Zn134  1  0.31354212  0.56854111  0.56545717  1
  Zn  Zn135  1  0.81224585  0.06312555  0.06345814  1
  Zn  Zn136  1  0.81242179  0.05977268  0.56411959  1
  Zn  Zn137  1  0.81353854  0.56393204  0.06310948  1
  Zn  Zn138  1  0.81229300  0.55890647  0.56776460  1
  Zn  Zn139  1  0.43882798  0.44210949  0.18778406  1
  Zn  Zn140  1  0.43700655  0.43761301  0.68450650  1
  Zn  Zn141  1  0.44641301  0.93306145  0.18491745  1
  Zn  Zn142  1  0.43487503  0.94160072  0.68547782  1
  Zn  Zn143  1  0.93806771  0.43618781  0.18740208  1
  Zn  Zn144  1  0.93719124  0.43678142  0.68780336  1
  Zn  Zn145  1  0.94189017  0.93609715  0.18519407  1
  Zn  Zn146  1  0.93501799  0.94216368  0.68191066  1
  Zn  Zn147  1  0.06244170  0.06489260  0.31176280  1
  Zn  Zn148  1  0.06426697  0.06034140  0.81076106  1
  Zn  Zn149  1  0.06627571  0.56196840  0.31492447  1
  Zn  Zn150  1  0.05942438  0.56306068  0.81309184  1
  Zn  Zn151  1  0.56335043  0.05443795  0.31123610  1
  Zn  Zn152  1  0.56420051  0.06241568  0.81210819  1
  Zn  Zn153  1  0.53725740  0.60180889  0.33429920  1
  Zn  Zn154  1  0.56137794  0.56587200  0.81556712  1
  Zn  Zn155  1  0.45403653  0.15557984  0.42099229  1
  Zn  Zn156  1  0.43822381  0.18652209  0.93675442  1
  Zn  Zn157  1  0.43803170  0.70081953  0.43803638  1
  Zn  Zn158  1  0.44034206  0.69016570  0.93612801  1
  Zn  Zn159  1  0.93340911  0.18454926  0.43687790  1
  Zn  Zn160  1  0.93696407  0.18237273  0.93431254  1
  Zn  Zn161  1  0.93549805  0.68503496  0.44005881  1
  Zn  Zn162  1  0.94015066  0.68644799  0.93602642  1
  Zn  Zn163  1  0.06236380  0.31324065  0.06589749  1
  Zn  Zn164  1  0.06397745  0.31371954  0.44170871  1
  Zn  Zn165  1  0.06022976  0.81131845  0.06312572  1
  Zn  Zn166  1  0.06101647  0.80989088  0.56584040  1
  Zn  Zn167  1  0.56180756  0.31412407  0.06229798  1
  Zn  Zn168  1  0.56124952  0.31223431  0.56178413  1
  Zn  Zn169  1  0.56775195  0.81461156  0.05591114  1
  Zn  Zn170  1  0.56157841  0.80949289  0.56189819  1
  O  O171  1  0.12133507  0.11696082  0.11770867  1
  O  O172  1  0.11706343  0.11748274  0.61377249  1
  O  O173  1  0.12112745  0.61371645  0.11561752  1
  O  O174  1  0.11636966  0.61463585  0.62698380  1
  O  O175  1  0.62478574  0.11876282  0.11574744  1
  O  O176  1  0.62189404  0.11824851  0.62261352  1
  O  O177  1  0.61604154  0.61320705  0.13474071  1
  O  O178  1  0.62465117  0.62144373  0.61558272  1
  O  O179  1  0.39149268  0.37186426  0.37727349  1
  O  O180  1  0.38279797  0.38268748  0.87950752  1
  O  O181  1  0.37526406  0.87010720  0.38924303  1
  O  O182  1  0.37466695  0.88600550  0.88329938  1
  O  O183  1  0.86848899  0.38769960  0.38461696  1
  O  O184  1  0.88583834  0.38542771  0.87085083  1
  O  O185  1  0.87669603  0.87677646  0.38855093  1
  O  O186  1  0.87587012  0.87700732  0.88731714  1
  O  O187  1  0.25067773  0.00937908  0.37831405  1
  O  O188  1  0.25585663  0.00701985  0.86820279  1
  O  O189  1  0.24534761  0.51496097  0.36571328  1
  O  O190  1  0.26058776  0.49293904  0.86570974  1
  O  O191  1  0.75076880  0.00824924  0.36609939  1
  O  O192  1  0.74869168  -0.00150580  0.86215010  1
  O  O193  1  0.76055740  0.50674518  0.37127160  1
  O  O194  1  0.75957846  0.49068831  0.86616747  1
  O  O195  1  0.24151792  0.49833888  0.13260324  1
  O  O196  1  0.24538589  0.49811480  0.63194360  1
  O  O197  1  0.23448643  0.99617095  0.11878004  1
  O  O198  1  0.24054308  1.00980560  0.63590153  1
  O  O199  1  0.74376973  0.49696836  0.12722865  1
  O  O200  1  0.74720677  0.48842566  0.63693313  1
  O  O201  1  0.74172041  1.00793380  0.13690508  1
  O  O202  1  0.74210411  0.99262634  0.63157845  1
  O  O203  1  -0.00111426  0.35924796  0.24859770  1
  O  O204  1  -0.00106498  0.36669183  0.75637787  1
  O  O205  1  0.01011095  0.87182371  0.25491710  1
  O  O206  1  -0.00976859  0.85939636  0.74270514  1
  O  O207  1  0.50392258  0.37153346  0.25620247  1
  O  O208  1  0.50976144  0.38376290  0.76158149  1
  O  O209  1  0.51588453  0.87578780  0.25085233  1
  O  O210  1  0.49286840  0.86258460  0.75155471  1
  O  O211  1  0.48530421  0.13367353  0.25135879  1
  O  O212  1  0.50066446  0.12370415  0.73724909  1
  O  O213  1  0.47741916  0.61829589  0.23735178  1
  O  O214  1  0.48907060  0.63288977  0.74998356  1
  O  O215  1  0.99465207  0.13448335  0.24539330  1
  O  O216  1  0.99330974  0.12898559  0.74402788  1
  O  O217  1  0.98620527  0.62566811  0.25258442  1
  O  O218  1  0.99215912  0.62726092  0.74419787  1
  O  O219  1  0.37722965  0.26115804  0.00094732  1
  O  O220  1  0.36396628  0.25031017  0.51312539  1
  O  O221  1  0.36295668  0.75887369  -0.01291367  1
  O  O222  1  0.36886382  0.75695119  0.50953467  1
  O  O223  1  0.86561639  0.24142619  0.00927335  1
  O  O224  1  0.86946210  0.26383223  0.49276190  1
  O  O225  1  0.87036644  0.75380436  0.00274906  1
  O  O226  1  0.86582607  0.75729520  0.50054155  1
  O  O227  1  0.13214684  0.23654929  0.50020954  1
  O  O228  1  0.12251468  0.23562759  1.00009046  1
  O  O229  1  0.13167474  0.74857736  0.49494511  1
  O  O230  1  0.12527939  0.74373206  0.98801535  1
  O  O231  1  0.63320897  0.24648457  0.49508784  1
  O  O232  1  0.63206199  0.24367260  0.99431490  1
  O  O233  1  0.63726563  0.73841615  0.50553785  1
  O  O234  1  0.64274845  0.74794853  0.99520580  1
  O  O235  1  0.49997221  0.24879600  0.13734097  1
  O  O236  1  0.49030756  0.24625992  0.62436051  1
  O  O237  1  0.50906639  0.73316236  0.11249051  1
  O  O238  1  0.49148679  0.74757871  0.63522137  1
  O  O239  1  0.99154052  0.24558998  0.13081321  1
  O  O240  1  1.00061837  0.23555451  0.63422206  1
  O  O241  1  0.98751112  0.74376600  0.12523031  1
  O  O242  1  1.01050623  0.73758278  0.64168768  1
  O  O243  1  -0.00030867  0.24741584  0.36491777  1
  O  O244  1  -0.00128471  0.25725181  0.86859307  1
  O  O245  1  0.01229244  0.74764663  0.37786791  1
  O  O246  1  0.01120059  0.74750330  0.86486012  1
  O  O247  1  0.50635588  0.25517743  0.36555104  1
  O  O248  1  0.51132343  0.26157948  0.88117327  1
  O  O249  1  0.51688200  0.70938996  0.36517621  1
  O  O250  1  0.50905774  0.75143102  0.86723065  1
  O  O251  1  0.24566698  0.12884506  0.48889699  1
  O  O252  1  0.24122093  0.12247238  0.98971361  1
  O  O253  1  0.25169629  0.63457266  0.49154498  1
  O  O254  1  0.24016512  0.63285532  1.00243996  1
  O  O255  1  0.74735058  0.13079756  0.49732763  1
  O  O256  1  0.74139637  0.13522145  0.99858029  1
  O  O257  1  0.74791106  0.62921998  0.49839929  1
  O  O258  1  0.75951578  0.63624595  0.99278757  1
  O  O259  1  0.26145446  0.37485828  -0.00097717  1
  O  O260  1  0.25321851  0.36926424  0.50631745  1
  O  O261  1  0.25834928  0.86737678  0.00136059  1
  O  O262  1  0.25990500  0.86176983  0.49674385  1
  O  O263  1  0.74363932  0.36203649  0.00632979  1
  O  O264  1  0.75525095  0.37356519  0.50775779  1
  O  O265  1  0.76353877  0.86145609  -0.00039106  1
  O  O266  1  0.75564874  0.86734191  0.50583178  1
  O  O267  1  0.13334221  0.50325346  0.24161585  1
  O  O268  1  0.13368303  0.50323013  0.74484693  1
  O  O269  1  0.11657559  0.99233236  0.24010093  1
  O  O270  1  0.13204739  1.00476318  0.73977479  1
  O  O271  1  0.63253220  0.49322784  0.23882690  1
  O  O272  1  0.63332697  0.49129632  0.75555305  1
  O  O273  1  0.63149082  0.99222973  0.24341285  1
  O  O274  1  0.63577846  1.00413243  0.73937755  1
  O  O275  1  0.38009247  0.01092710  0.24760694  1
  O  O276  1  0.36579713  0.00362928  0.75785894  1
  O  O277  1  0.36070671  0.50624463  0.24445559  1
  O  O278  1  0.36965758  0.50627425  0.75586782  1
  O  O279  1  0.86861706  0.00482188  0.24812276  1
  O  O280  1  0.86668071  0.00722676  0.74977204  1
  O  O281  1  0.87087788  0.50578862  0.25665289  1
  O  O282  1  0.86839091  0.50457564  0.75790993  1
  O  O283  1  0.11869942  0.38527693  0.37756255  1
  O  O284  1  0.11167636  0.37340835  0.87108380  1
  O  O285  1  0.12408364  0.86649757  0.36974333  1
  O  O286  1  0.12092763  0.86749897  0.88060583  1
  O  O287  1  0.61776537  0.37095653  0.36879996  1
  O  O288  1  0.61855803  0.36922982  0.87031200  1
  O  O289  1  0.62299343  0.87891524  0.36842467  1
  O  O290  1  0.62342891  0.85437498  0.88192534  1
  O  O291  1  0.37279185  0.12540394  0.13867851  1
  O  O292  1  0.38420140  0.13131809  0.62559257  1
  O  O293  1  0.37766303  0.62665736  0.13264323  1
  O  O294  1  0.37731543  0.63640188  0.63676923  1
  O  O295  1  0.87944090  0.13509054  0.13030455  1
  O  O296  1  0.88461447  0.11738905  0.63530472  1
  O  O297  1  0.87533640  0.63080762  0.13642055  1
  O  O298  1  0.88579381  0.61689322  0.63759296  1
  O  O299  1  0.25279361  0.25443976  0.12004473  1
  O  O300  1  0.25273787  0.25466851  0.61632310  1
  O  O301  1  0.23868455  0.75443894  0.10796841  1
  O  O302  1  0.25612521  0.74138427  0.61707495  1
  O  O303  1  0.75651951  0.25406517  0.11958847  1
  O  O304  1  0.74650184  0.26299383  0.62001051  1
  O  O305  1  0.76051054  0.74111931  0.10949044  1
  O  O306  1  0.74748915  0.76008231  0.61773472  1
  O  O307  1  0.25204363  0.24808429  0.38800729  1
  O  O308  1  0.24772643  0.24056752  0.87798197  1
  O  O309  1  0.24028327  0.74404715  0.38408139  1
  O  O310  1  0.23196155  0.75285271  0.88333891  1
  O  O311  1  0.74550197  0.24648110  0.37984421  1
  O  O312  1  0.74173286  0.25125941  0.88377716  1
  O  O313  1  0.75595138  0.73778184  0.38825510  1
  O  O314  1  0.74164171  0.74861445  0.88024487  1
  O  O315  1  0.00696506  0.11787105  0.00504949  1
  O  O316  1  0.00507508  0.12006976  0.50449457  1
  O  O317  1  0.00855553  0.61174966  -0.00122701  1
  O  O318  1  -0.00190153  0.61591983  0.51189145  1
  O  O319  1  0.51326454  0.12384366  0.00071835  1
  O  O320  1  0.51175674  0.13187281  0.51965943  1
  O  O321  1  0.48859048  0.61107630  0.00739505  1
  O  O322  1  0.50895646  0.61820925  0.50237605  1
  O  O323  1  0.50245419  0.38484372  0.49179457  1
  O  O324  1  0.49366792  0.38471752  0.99147405  1
  O  O325  1  0.48566170  0.87273090  0.50348983  1
  O  O326  1  0.48932841  0.87569164  0.99586392  1
  O  O327  1  0.98990365  0.38680129  0.50217503  1
  O  O328  1  1.00498150  0.38558245  0.99170922  1
  O  O329  1  0.99218030  0.88170836  0.50302444  1
  O  O330  1  0.98957772  0.88510118  1.00679549  1
  O  O331  1  0.50744358  0.49494421  0.38372474  1
  O  O332  1  0.49311011  0.49298660  0.88226134  1
  O  O333  1  0.49067947  1.04521498  0.39246408  1
  O  O334  1  0.48970085  0.99944935  0.87469393  1
  O  O335  1  0.98906740  0.51142547  0.38727117  1
  O  O336  1  0.99331278  0.49168582  0.88078758  1
  O  O337  1  1.00085013  1.00021442  0.38966386  1
  O  O338  1  1.00027731  1.00621784  0.88947300  1
  O  O339  1  0.00792627  0.00663114  0.11574614  1
  O  O340  1  0.00748978  0.00918295  0.61614408  1
  O  O341  1  0.00540109  0.49978979  0.11704035  1
  O  O342  1  0.00650253  0.50575180  0.62011354  1
  O  O343  1  0.51424090  0.00537760  0.12098504  1
  O  O344  1  0.50994085  0.00657070  0.62322341  1
  O  O345  1  0.50693150  0.50642898  0.11762108  1
  O  O346  1  0.50402763  0.50168738  0.61682143  1
  O  O347  1  0.24693202  0.38487578  0.25108498  1
  O  O348  1  0.24857122  0.38739573  0.74359478  1
  O  O349  1  0.23461691  0.87107510  0.24901500  1
  O  O350  1  0.25191948  0.88741493  0.75575654  1
  O  O351  1  0.74579565  0.37999937  0.24406841  1
  O  O352  1  0.74465680  0.38144657  0.74502156  1
  O  O353  1  0.74364975  0.88865190  0.25737805  1
  O  O354  1  0.76049644  0.88267917  0.73872902  1
  O  O355  1  0.25662108  0.12445041  0.26014054  1
  O  O356  1  0.24831667  0.11970823  0.76205412  1
  O  O357  1  0.25830064  0.62215176  0.25168094  1
  O  O358  1  0.26083317  0.61498305  0.74686181  1
  O  O359  1  0.75430031  0.11861913  0.25551011  1
  O  O360  1  0.75805810  0.11624227  0.74821541  1
  O  O361  1  0.75840043  0.62122180  0.25805648  1
  O  O362  1  0.75964261  0.61349026  0.74222182  1
  O  O363  1  0.35741871  0.13079886  0.36157938  1
  O  O364  1  0.36738101  0.11681051  0.87551065  1
  O  O365  1  0.36232777  0.63640858  0.35863933  1
  O  O366  1  0.38089662  0.61254366  0.86679057  1
  O  O367  1  0.86756825  0.12161020  0.36799407  1
  O  O368  1  0.87205069  0.11900023  0.86181960  1
  O  O369  1  0.86673645  0.61681414  0.36992642  1
  O  O370  1  0.88301439  0.61105189  0.86389950  1
  O  O371  1  0.12487692  0.38902193  0.12750052  1
  O  O372  1  0.13311277  0.39217303  0.62937105  1
  O  O373  1  0.12258635  0.88172292  0.13307086  1
  O  O374  1  0.12256751  0.89141009  0.61701353  1
  O  O375  1  0.62993454  0.38378730  0.12931051  1
  O  O376  1  0.63199848  0.37471796  0.63619478  1
  O  O377  1  0.62514975  0.88663101  0.12694439  1
  O  O378  1  0.63554363  0.88431647  0.61778190  1
  O  O379  1  0.10858171  0.24897892  0.24419202  1
  O  O380  1  0.11038938  0.24874307  0.75175983  1
  O  O381  1  0.12269410  0.75556358  0.25828707  1
  O  O382  1  0.11546828  0.74762050  0.76449396  1
  O  O383  1  0.61710734  0.25526166  0.25347930  1
  O  O384  1  0.63408280  0.26113512  0.76218630  1
  O  O385  1  0.63906501  0.76939270  0.24745185  1
  O  O386  1  0.61844872  0.74531584  0.75949200  1
  O  O387  1  0.38388716  0.24765639  0.24809867  1
  O  O388  1  0.36548403  0.24745862  0.73487796  1
  O  O389  1  0.36521473  0.74425765  0.24178822  1
  O  O390  1  0.37818086  0.74404004  0.74940689  1
  O  O391  1  0.88351845  0.24475161  0.24257896  1
  O  O392  1  0.88421899  0.23998576  0.75442172  1
  O  O393  1  0.87172919  0.74348446  0.24329231  1
  O  O394  1  0.88898656  0.73828195  0.76133346  1
  O  O395  1  0.38846048  0.50217903  0.50543624  1
  O  O396  1  0.38012044  0.49373691  0.99233900  1
  O  O397  1  0.37159969  0.98090079  0.50934453  1
  O  O398  1  0.37469834  0.99309613  0.98967535  1
  O  O399  1  0.88064151  0.49361216  0.49513949  1
  O  O400  1  0.88529119  0.50613003  0.99170455  1
  O  O401  1  0.88422810  0.99290869  0.49962862  1
  O  O402  1  0.88015204  0.99264792  1.00134732  1
  O  O403  1  0.11799723  0.00666457  0.00639211  1
  O  O404  1  0.11920756  0.00899018  0.50566729  1
  O  O405  1  0.11968414  0.50485470  0.00564447  1
  O  O406  1  0.11740767  0.50449791  0.50937229  1
  O  O407  1  0.63115786  0.00699468  0.00520319  1
  O  O408  1  0.62704368  0.00655936  0.51179557  1
  O  O409  1  0.61485393  0.49461571  0.00989877  1
  O  O410  1  0.61867785  0.50959850  0.50371641  1
  O  O411  1  0.37643620  0.37773449  0.11212098  1
  O  O412  1  0.36812415  0.36806565  0.62339010  1
  O  O413  1  0.37378836  0.88340229  0.11093257  1
  O  O414  1  0.37429429  0.86183829  0.62254499  1
  O  O415  1  0.86830062  0.36280838  0.12904378  1
  O  O416  1  0.86515440  0.38221418  0.61481463  1
  O  O417  1  0.87779069  0.86267171  0.11838639  1
  O  O418  1  0.86266931  0.88216739  0.61197857  1
  O  O419  1  0.13808053  0.12032985  0.38189015  1
  O  O420  1  0.13214866  0.12375528  0.88392713  1
  O  O421  1  0.13539719  0.63452885  0.37587373  1
  O  O422  1  0.12303411  0.62475297  0.88556859  1
  O  O423  1  0.63340719  0.13315496  0.38078237  1
  O  O424  1  0.62718468  0.13388325  0.88205476  1
  O  O425  1  0.64322027  0.61319904  0.38659783  1
  O  O426  1  0.61929548  0.64123263  0.87856149  1
