# generated using pymatgen
data_V85Zn86O256
_symmetry_space_group_name_H-M   'P 1'
_cell_length_a   16.98204695
_cell_length_b   16.97039345
_cell_length_c   16.99663254
_cell_angle_alpha   89.96481717
_cell_angle_beta   89.69866815
_cell_angle_gamma   89.97550964
_symmetry_Int_Tables_number   1
_chemical_formula_structural   V85Zn86O256
_chemical_formula_sum   'V85 Zn86 O256'
_cell_volume   4898.22472789
_cell_formula_units_Z   1
loop_
 _symmetry_equiv_pos_site_id
 _symmetry_equiv_pos_as_xyz
  1  'x, y, z'
loop_
 _atom_site_type_symbol
 _atom_site_label
 _atom_site_symmetry_multiplicity
 _atom_site_fract_x
 _atom_site_fract_y
 _atom_site_fract_z
 _atom_site_occupancy
  V  V0  1  -0.00047938  0.25851906  0.75409841  1
  V  V1  1  0.74917176  0.73803110  0.49058484  1
  V  V2  1  0.61238580  0.50324689  0.62417557  1
  V  V3  1  0.62347011  0.62934655  -0.00183844  1
  V  V4  1  0.12105020  0.25852793  0.87580057  1
  V  V5  1  -0.00194622  0.87734997  0.37237750  1
  V  V6  1  0.62121156  0.49886131  0.12587069  1
  V  V7  1  0.37220746  0.50269825  0.37804325  1
  V  V8  1  0.74917519  0.37438768  0.12322599  1
  V  V9  1  0.00663276  0.62556000  0.12041149  1
  V  V10  1  0.74705741  0.12561337  0.87400819  1
  V  V11  1  0.49970565  -0.00239386  -0.00051195  1
  V  V12  1  0.00481470  0.00968560  0.49925676  1
  V  V13  1  0.38157210  0.49297111  0.87694157  1
  V  V14  1  0.88627821  0.62835572  0.74696412  1
  V  V15  1  0.37722112  -0.00431016  0.36852280  1
  V  V16  1  0.49448255  0.62903327  0.12708735  1
  V  V17  1  0.49709881  0.25026836  0.75177644  1
  V  V18  1  0.62233702  0.12437512  0.00097018  1
  V  V19  1  0.75269640  0.50490757  0.25324958  1
  V  V20  1  0.62433715  0.86344107  0.75706589  1
  V  V21  1  0.12959140  0.74035999  0.37442547  1
  V  V22  1  0.74895825  0.50089643  0.74916279  1
  V  V23  1  0.37496727  0.38017972  0.50120610  1
  V  V24  1  0.87442371  0.74888090  0.12378675  1
  V  V25  1  0.88043838  0.37533342  -0.00410055  1
  V  V26  1  0.25688165  0.00559105  0.24516485  1
  V  V27  1  0.87109908  0.12540626  0.25093231  1
  V  V28  1  -0.00253707  0.75011770  0.24683905  1
  V  V29  1  0.37275816  0.63474203  0.25448243  1
  V  V30  1  0.62332798  -0.00430039  0.13031674  1
  V  V31  1  0.24561571  0.74592139  0.00059786  1
  V  V32  1  0.11861258  0.50707988  0.62515766  1
  V  V33  1  0.00092652  0.25909342  0.25558231  1
  V  V34  1  0.25344603  0.87024848  0.12542564  1
  V  V35  1  0.12368791  0.87686098  0.24682459  1
  V  V36  1  0.38040628  0.63333727  0.74788660  1
  V  V37  1  0.37435467  0.24117802  0.12958851  1
  V  V38  1  0.87330355  0.12515778  0.74803565  1
  V  V39  1  0.61905484  0.25304211  0.87729833  1
  V  V40  1  0.24960374  0.12748210  0.87881459  1
  V  V41  1  0.87257371  0.87530075  -0.00026080  1
  V  V42  1  0.74479056  0.87549872  0.13185717  1
  V  V43  1  0.24631976  0.62427352  0.88018591  1
  V  V44  1  0.23318281  0.00128082  0.75077788  1
  V  V45  1  0.74656269  0.63075606  0.87493079  1
  V  V46  1  0.87385058  -0.00026590  0.87356383  1
  V  V47  1  0.00487758  0.50956447  0.49950054  1
  V  V48  1  0.24582638  0.23583026  0.50219647  1
  V  V49  1  0.87911813  0.37245442  0.49284300  1
  V  V50  1  0.88383339  0.74416855  0.62668618  1
  V  V51  1  0.49676020  0.00506961  0.50725150  1
  V  V52  1  0.62439549  0.36785408  0.25659675  1
  V  V53  1  0.87496246  0.25065350  0.12468987  1
  V  V54  1  0.12431982  0.24952454  0.37986508  1
  V  V55  1  0.49840911  0.37432078  0.37804817  1
  V  V56  1  0.37895576  0.12275546  0.74559823  1
  V  V57  1  0.87992898  0.49722166  0.87413749  1
  V  V58  1  0.51464785  0.87143262  0.38359504  1
  V  V59  1  -0.00029166  0.86964851  0.87137283  1
  V  V60  1  -0.00124266  0.00078662  0.00011927  1
  V  V61  1  0.50275028  0.64608826  0.62663928  1
  V  V62  1  0.00703576  0.50270930  -0.00056976  1
  V  V63  1  0.87886334  0.50468911  0.37388054  1
  V  V64  1  0.51895394  0.75386490  0.25478034  1
  V  V65  1  0.74745192  0.75034546  -0.00121637  1
  V  V66  1  0.87203258  0.25528649  0.62639486  1
  V  V67  1  0.62272170  0.00518414  0.62779290  1
  V  V68  1  0.61613044  0.37901830  0.75857505  1
  V  V69  1  0.37684918  -0.00154871  0.87350587  1
  V  V70  1  -0.00106672  0.12486954  0.12480583  1
  V  V71  1  0.25034077  0.25197182  0.00231454  1
  V  V72  1  0.25034957  0.37543792  0.12791554  1
  V  V73  1  0.12407563  0.00002197  0.12284690  1
  V  V74  1  0.24980063  0.50410152  0.25367138  1
  V  V75  1  0.24934559  0.49786268  0.74379089  1
  V  V76  1  0.00997435  0.12701672  0.62106568  1
  V  V77  1  0.87025659  0.00382346  0.37475553  1
  V  V78  1  0.74971490  0.00251123  0.74894415  1
  V  V79  1  0.37358721  0.86716905  -0.00230178  1
  V  V80  1  0.50323145  0.85835896  0.87346949  1
  V  V81  1  0.37597551  0.24494923  0.62439559  1
  V  V82  1  0.49392084  0.24177815  0.25584991  1
  V  V83  1  0.12203544  0.74634684  0.87436525  1
  V  V84  1  0.87085425  0.87614836  0.50147883  1
  Zn  Zn85  1  0.24565526  0.37296949  0.62386024  1
  Zn  Zn86  1  0.87187285  0.62764023  0.25256435  1
  Zn  Zn87  1  0.74867619  0.25022456  -0.00179976  1
  Zn  Zn88  1  0.75202253  0.87326780  0.62841122  1
  Zn  Zn89  1  0.50523176  0.49447956  -0.00848643  1
  Zn  Zn90  1  0.49556392  0.11760589  0.13146018  1
  Zn  Zn91  1  0.12199919  0.37813596  0.75003038  1
  Zn  Zn92  1  0.12180068  0.38005550  0.25885676  1
  Zn  Zn93  1  0.61524076  0.64147889  0.47440434  1
  Zn  Zn94  1  0.12224712  0.12678898  0.00072624  1
  Zn  Zn95  1  0.16053914  -0.04826029  0.59078002  1
  Zn  Zn96  1  0.16394089  0.65729757  0.52357682  1
  Zn  Zn97  1  0.12844420  0.50286723  0.12340056  1
  Zn  Zn98  1  0.73243282  0.26382873  0.48623525  1
  Zn  Zn99  1  0.12147323  0.86213528  0.74463354  1
  Zn  Zn100  1  0.38446699  0.37016603  -0.00185692  1
  Zn  Zn101  1  0.74737589  0.38008549  0.62146577  1
  Zn  Zn102  1  0.25081640  0.12110319  0.37320203  1
  Zn  Zn103  1  0.74059714  -0.00022850  0.25443043  1
  Zn  Zn104  1  0.74192247  0.14075068  0.37627013  1
  Zn  Zn105  1  0.30692785  0.82297126  0.56868039  1
  Zn  Zn106  1  0.62503148  0.13453774  0.49692005  1
  Zn  Zn107  1  0.18278255  0.18824327  0.18957195  1
  Zn  Zn108  1  0.18850400  0.18748773  0.69034356  1
  Zn  Zn109  1  0.18728573  0.68838050  0.19017557  1
  Zn  Zn110  1  0.19150982  0.68716159  0.69181750  1
  Zn  Zn111  1  0.68356852  0.18604130  0.18800779  1
  Zn  Zn112  1  0.66750156  0.20644246  0.65853195  1
  Zn  Zn113  1  0.68809156  0.68608122  0.18511620  1
  Zn  Zn114  1  0.69780067  0.68718300  0.67944473  1
  Zn  Zn115  1  0.30867026  0.31228419  0.31598029  1
  Zn  Zn116  1  0.30963327  0.31364294  0.81191933  1
  Zn  Zn117  1  0.33519804  0.78938266  0.37854145  1
  Zn  Zn118  1  0.33093869  0.83458396  0.77149584  1
  Zn  Zn119  1  0.81366554  0.31718599  0.31410632  1
  Zn  Zn120  1  0.80748619  0.31307425  0.81010443  1
  Zn  Zn121  1  0.81124890  0.81318286  0.31267231  1
  Zn  Zn122  1  0.81432964  0.81222125  0.81011128  1
  Zn  Zn123  1  0.19102696  0.43649235  0.44252607  1
  Zn  Zn124  1  0.19392263  0.43602019  0.93836285  1
  Zn  Zn125  1  0.19140237  0.92816015  0.42671615  1
  Zn  Zn126  1  0.18499101  0.93520196  0.93497135  1
  Zn  Zn127  1  0.66854262  0.47717684  0.42000919  1
  Zn  Zn128  1  0.68999187  0.44021582  0.93762559  1
  Zn  Zn129  1  0.68593885  0.94284339  0.43996731  1
  Zn  Zn130  1  0.68553621  0.93669759  0.93860202  1
  Zn  Zn131  1  0.31349479  0.05954572  0.06046871  1
  Zn  Zn132  1  0.30090341  0.03296098  0.55046519  1
  Zn  Zn133  1  0.31508699  0.56231020  0.06519848  1
  Zn  Zn134  1  0.31651281  0.65422853  0.54908679  1
  Zn  Zn135  1  0.80905891  0.06256570  0.06176391  1
  Zn  Zn136  1  0.81031349  0.07038543  0.56216959  1
  Zn  Zn137  1  0.81462969  0.56302687  0.06288184  1
  Zn  Zn138  1  0.81431340  0.56144510  0.56261849  1
  Zn  Zn139  1  0.43466250  0.43409328  0.19058638  1
  Zn  Zn140  1  0.43284653  0.43667826  0.68809215  1
  Zn  Zn141  1  0.43713058  0.92781288  0.18783281  1
  Zn  Zn142  1  0.43895770  0.93078082  0.68464326  1
  Zn  Zn143  1  0.93696955  0.43973228  0.18342224  1
  Zn  Zn144  1  0.93811228  0.44002454  0.68384448  1
  Zn  Zn145  1  0.93399747  0.93765241  0.18642396  1
  Zn  Zn146  1  0.96521440  0.92298083  0.66936567  1
  Zn  Zn147  1  0.06407352  0.06775667  0.31290424  1
  Zn  Zn148  1  0.05484858  0.07283902  0.81746109  1
  Zn  Zn149  1  0.05770577  0.56062655  0.31027082  1
  Zn  Zn150  1  0.06481042  0.56264545  0.81435328  1
  Zn  Zn151  1  0.56259906  0.06141348  0.31857358  1
  Zn  Zn152  1  0.56182041  0.06015861  0.81346257  1
  Zn  Zn153  1  0.55432277  0.56021072  0.30885185  1
  Zn  Zn154  1  0.56206948  0.56970870  0.81074655  1
  Zn  Zn155  1  0.43329225  0.18141386  0.43761126  1
  Zn  Zn156  1  0.43720042  0.18628438  0.93995687  1
  Zn  Zn157  1  0.44449038  0.68615943  0.44111755  1
  Zn  Zn158  1  0.43289475  0.68082467  0.93752524  1
  Zn  Zn159  1  0.93652329  0.18966808  0.43620738  1
  Zn  Zn160  1  0.93542323  0.18760977  0.93704935  1
  Zn  Zn161  1  0.93869513  0.68853723  0.43674083  1
  Zn  Zn162  1  0.93478517  0.68481368  0.93717177  1
  Zn  Zn163  1  0.06421126  0.31388119  0.06527427  1
  Zn  Zn164  1  0.06227374  0.31870562  0.56230436  1
  Zn  Zn165  1  0.06310097  0.81283038  0.05845652  1
  Zn  Zn166  1  0.05753014  0.81000329  0.55760803  1
  Zn  Zn167  1  0.55725193  0.31132503  0.06502701  1
  Zn  Zn168  1  0.55695528  0.31980793  0.56796392  1
  Zn  Zn169  1  0.55929073  0.81134453  0.06471001  1
  Zn  Zn170  1  0.57156128  0.81920705  0.56496644  1
  O  O171  1  0.11688967  0.11855349  0.12267028  1
  O  O172  1  0.10943686  0.13126688  0.62929021  1
  O  O173  1  0.11126252  0.62532030  0.12649417  1
  O  O174  1  0.12506883  0.61066094  0.62797042  1
  O  O175  1  0.62197971  0.11565479  0.11784619  1
  O  O176  1  0.61978696  0.10584682  0.63560439  1
  O  O177  1  0.61775414  0.61652522  0.11875835  1
  O  O178  1  0.61292326  0.61571765  0.63899474  1
  O  O179  1  0.37974934  0.37788812  0.38207815  1
  O  O180  1  0.36955605  0.38976061  0.87460444  1
  O  O181  1  0.39320999  0.88701965  0.37389432  1
  O  O182  1  0.38387890  0.87933262  0.87621470  1
  O  O183  1  0.87879878  0.38262054  0.38771591  1
  O  O184  1  0.86418652  0.38552600  0.88481533  1
  O  O185  1  0.87944650  0.88420976  0.38023532  1
  O  O186  1  0.87910153  0.87848579  0.88166796  1
  O  O187  1  0.25860188  -0.00427080  0.36085350  1
  O  O188  1  0.25400412  0.01096264  0.87144900  1
  O  O189  1  0.26087020  0.48905701  0.36245765  1
  O  O190  1  0.25603750  0.50753305  0.86926280  1
  O  O191  1  0.76376999  -0.00360879  0.37154556  1
  O  O192  1  0.75336559  0.00522038  0.86927219  1
  O  O193  1  0.76560023  0.48701632  0.36009582  1
  O  O194  1  0.75849584  0.50949603  0.86912371  1
  O  O195  1  0.25130711  0.49265594  0.13217085  1
  O  O196  1  0.24102933  0.49912047  0.64039479  1
  O  O197  1  0.24525805  0.99133583  0.12560599  1
  O  O198  1  0.24129012  1.01574721  0.64797352  1
  O  O199  1  0.74350222  0.49140766  0.12935984  1
  O  O200  1  0.74112068  0.50540209  0.63997853  1
  O  O201  1  0.74117038  0.99152850  0.12475150  1
  O  O202  1  0.74405313  0.99840610  0.63498457  1
  O  O203  1  -0.00015288  0.36274331  0.24158041  1
  O  O204  1  -0.00171515  0.36221144  0.74864113  1
  O  O205  1  0.00353458  0.87121985  0.25135049  1
  O  O206  1  -0.00526450  0.87838972  0.77009788  1
  O  O207  1  0.50597428  0.36490685  0.25630113  1
  O  O208  1  0.50708419  0.36688121  0.75104818  1
  O  O209  1  0.50016009  0.85732907  0.25517311  1
  O  O210  1  0.51652521  0.87849813  0.75970231  1
  O  O211  1  0.50421010  0.13924240  0.25175497  1
  O  O212  1  0.48803491  0.13426695  0.75827215  1
  O  O213  1  0.49455206  0.63624951  0.24630648  1
  O  O214  1  0.48809169  0.62388903  0.74372823  1
  O  O215  1  0.98885378  0.13327877  0.24382778  1
  O  O216  1  0.99153386  0.13442120  0.74224395  1
  O  O217  1  0.99456245  0.63103576  0.23757576  1
  O  O218  1  0.98470249  0.62186372  0.75770086  1
  O  O219  1  0.36888169  0.25061166  0.00935518  1
  O  O220  1  0.36962296  0.25073558  0.50934701  1
  O  O221  1  0.36387082  0.76039891  -0.00802907  1
  O  O222  1  0.36023681  0.74909770  0.48662682  1
  O  O223  1  0.87233450  0.25917892  0.00410896  1
  O  O224  1  0.88190500  0.26399045  0.50877734  1
  O  O225  1  0.86690380  0.75507910  0.00489734  1
  O  O226  1  0.86853805  0.75660909  0.50408759  1
  O  O227  1  0.13609659  0.25539767  0.49614111  1
  O  O228  1  0.13064078  0.24921459  0.99357297  1
  O  O229  1  0.11032871  0.74854486  0.47981659  1
  O  O230  1  0.13674990  0.75467763  0.99018995  1
  O  O231  1  0.63482032  0.24244563  0.54675983  1
  O  O232  1  0.62359679  0.24528345  0.99235474  1
  O  O233  1  0.64368478  0.75112946  0.50526460  1
  O  O234  1  0.62972042  0.73571906  1.00824643  1
  O  O235  1  0.49030045  0.24718505  0.13742526  1
  O  O236  1  0.48691352  0.25350474  0.64078471  1
  O  O237  1  0.50540598  0.74038867  0.14131072  1
  O  O238  1  0.51104863  0.74397886  0.63153287  1
  O  O239  1  0.99425787  0.24457173  0.13178233  1
  O  O240  1  0.99178297  0.24647700  0.63323767  1
  O  O241  1  0.99498299  0.74504022  0.12564832  1
  O  O242  1  0.98297488  0.74449489  0.61534742  1
  O  O243  1  0.00749777  0.24547281  0.36436612  1
  O  O244  1  0.00950512  0.24118962  0.86624405  1
  O  O245  1  0.00114995  0.75792242  0.36499265  1
  O  O246  1  0.00917793  0.75722812  0.88752373  1
  O  O247  1  0.49027162  0.25686184  0.36270873  1
  O  O248  1  0.50994539  0.24691708  0.86698234  1
  O  O249  1  0.50414011  0.75970203  0.36805951  1
  O  O250  1  0.49776179  0.75926115  0.88119538  1
  O  O251  1  0.25681334  0.13238854  0.50229558  1
  O  O252  1  0.25020396  0.13071071  0.99101881  1
  O  O253  1  0.24633292  0.58989350  0.49230395  1
  O  O254  1  0.26017476  0.63430535  0.99280020  1
  O  O255  1  0.74750630  0.13747419  0.49841628  1
  O  O256  1  0.74191697  0.12760740  0.99253059  1
  O  O257  1  0.75049007  0.63598915  0.50190983  1
  O  O258  1  0.74321951  0.62832733  0.99444113  1
  O  O259  1  0.25632790  0.36958159  0.01074033  1
  O  O260  1  0.26211956  0.36138947  0.50290124  1
  O  O261  1  0.25589486  0.86861353  0.00359887  1
  O  O262  1  0.24982099  0.91651089  0.52241577  1
  O  O263  1  0.75772516  0.37588127  0.00939205  1
  O  O264  1  0.76992903  0.37789634  0.50641135  1
  O  O265  1  0.75358549  0.86964758  0.00634305  1
  O  O266  1  0.76232772  0.87333578  0.50100640  1
  O  O267  1  0.13522575  0.49860894  0.24868929  1
  O  O268  1  0.13001285  0.49897919  0.74567469  1
  O  O269  1  0.13043799  0.99521962  0.24289191  1
  O  O270  1  0.13318707  1.01064102  0.76044273  1
  O  O271  1  0.63226228  0.48915537  0.23999436  1
  O  O272  1  0.62988729  0.49599983  0.74985261  1
  O  O273  1  0.62231705  1.00463754  0.23387131  1
  O  O274  1  0.63346708  0.99381739  0.74865240  1
  O  O275  1  0.36729836  -0.00785018  0.25298191  1
  O  O276  1  0.36782603  0.00875951  0.75600324  1
  O  O277  1  0.36796858  0.50727187  0.25714266  1
  O  O278  1  0.36792399  0.50569915  0.75870810  1
  O  O279  1  0.87584512  0.01014041  0.25741725  1
  O  O280  1  0.86444235  0.00492026  0.75527028  1
  O  O281  1  0.86994464  0.49789958  0.25626006  1
  O  O282  1  0.86775007  0.50517055  0.75594952  1
  O  O283  1  0.13493250  0.35710740  0.37401187  1
  O  O284  1  0.13121077  0.36153101  0.87411778  1
  O  O285  1  0.11495415  0.86950418  0.36534899  1
  O  O286  1  0.11450831  0.86621864  0.87500963  1
  O  O287  1  0.61387185  0.38560582  0.36375959  1
  O  O288  1  0.63048512  0.36763349  0.86836897  1
  O  O289  1  0.61309612  0.88450381  0.37102195  1
  O  O290  1  0.61913424  0.87626596  0.86611427  1
  O  O291  1  0.37529635  0.13597110  0.12168349  1
  O  O292  1  0.36982175  0.13405381  0.63892603  1
  O  O293  1  0.38752333  0.62029418  0.13649715  1
  O  O294  1  0.39053525  0.62888076  0.63761483  1
  O  O295  1  0.87767995  0.13011108  0.13125753  1
  O  O296  1  0.88089321  0.13751216  0.63118746  1
  O  O297  1  0.88315790  0.63225569  0.12510118  1
  O  O298  1  0.86670751  0.63075450  0.63729727  1
  O  O299  1  0.25533681  0.25489161  0.12386717  1
  O  O300  1  0.25864245  0.24980469  0.62097633  1
  O  O301  1  0.24202459  0.76063133  0.11526066  1
  O  O302  1  0.23704534  0.73150224  0.59955828  1
  O  O303  1  0.75375848  0.26081853  0.12493657  1
  O  O304  1  0.76818503  0.25741290  0.63842568  1
  O  O305  1  0.75304636  0.75696758  0.11935012  1
  O  O306  1  0.76230697  0.75527410  0.61163060  1
  O  O307  1  0.24752884  0.24250214  0.38470868  1
  O  O308  1  0.24466127  0.24394043  0.88052278  1
  O  O309  1  0.22749334  0.75922059  0.36850940  1
  O  O310  1  0.24162798  0.73910233  0.88502083  1
  O  O311  1  0.74628118  0.25495098  0.37456649  1
  O  O312  1  0.73593985  0.24463085  0.87352767  1
  O  O313  1  0.75873989  0.75233501  0.39123991  1
  O  O314  1  0.75588688  0.73719695  0.88140628  1
  O  O315  1  -0.00211250  0.11869069  0.00677103  1
  O  O316  1  -0.00746218  0.12005672  0.50739657  1
  O  O317  1  -0.00734009  0.61400124  0.00818939  1
  O  O318  1  -0.00354327  0.60954752  0.49915419  1
  O  O319  1  0.50486476  0.11556015  0.00215907  1
  O  O320  1  0.50401815  0.10802689  0.49763721  1
  O  O321  1  0.50549506  0.62166149  0.00951877  1
  O  O322  1  0.50638598  0.63258504  0.52120513  1
  O  O323  1  0.48993046  0.36333549  0.48793119  1
  O  O324  1  0.49563137  0.38446181  1.01009091  1
  O  O325  1  0.50712708  0.87827275  0.48852368  1
  O  O326  1  0.49184643  0.87595453  0.99406489  1
  O  O327  1  0.98537973  0.38625727  0.50613515  1
  O  O328  1  0.98611009  0.38398506  1.00858854  1
  O  O329  1  0.98573497  0.88527650  0.49236673  1
  O  O330  1  0.99213190  0.88138234  0.99292255  1
  O  O331  1  0.48413894  0.48155803  0.36321864  1
  O  O332  1  0.48491585  0.50626951  0.87168311  1
  O  O333  1  0.49720691  0.98861048  0.38274686  1
  O  O334  1  0.49540494  0.99098816  0.88195843  1
  O  O335  1  0.99450767  0.49849350  0.38737983  1
  O  O336  1  0.98638204  0.50591631  0.88307627  1
  O  O337  1  0.98920630  0.99952185  0.37882921  1
  O  O338  1  0.99280184  0.99499991  0.88119818  1
  O  O339  1  0.00334745  0.00424069  0.11966281  1
  O  O340  1  -0.01048554  0.01641984  0.61133787  1
  O  O341  1  0.00155169  0.50812106  0.11665746  1
  O  O342  1  0.00552437  0.49945474  0.61331792  1
  O  O343  1  0.50575033  -0.00445543  0.11880115  1
  O  O344  1  0.50450654  -0.01008913  0.61277824  1
  O  O345  1  0.51037299  0.51031851  0.13498937  1
  O  O346  1  0.51047972  0.50314194  0.63247022  1
  O  O347  1  0.25221064  0.38448822  0.24193052  1
  O  O348  1  0.24753399  0.38521143  0.74846860  1
  O  O349  1  0.24211649  0.88550486  0.23379283  1
  O  O350  1  0.23561905  0.89761325  0.76423075  1
  O  O351  1  0.74380811  0.38132948  0.23905333  1
  O  O352  1  0.73955644  0.38802036  0.75090228  1
  O  O353  1  0.75422952  0.87762072  0.23530959  1
  O  O354  1  0.74163025  0.88643840  0.75482758  1
  O  O355  1  0.24664247  0.10842538  0.24500812  1
  O  O356  1  0.25751894  0.12170292  0.76295090  1
  O  O357  1  0.25939674  0.61401300  0.24117903  1
  O  O358  1  0.26119188  0.61574847  0.75886892  1
  O  O359  1  0.76236610  0.12363860  0.24788365  1
  O  O360  1  0.75326753  0.11508248  0.75544842  1
  O  O361  1  0.75247293  0.60882390  0.23954288  1
  O  O362  1  0.75258271  0.61726075  0.75950012  1
  O  O363  1  0.37372632  0.10236188  0.37853434  1
  O  O364  1  0.36669046  0.12152208  0.86939484  1
  O  O365  1  0.38882856  0.60943071  0.36897373  1
  O  O366  1  0.36769443  0.61327724  0.86685798  1
  O  O367  1  0.87376816  0.11888979  0.36564420  1
  O  O368  1  0.86805083  0.12034853  0.86865883  1
  O  O369  1  0.87928026  0.60997601  0.37207138  1
  O  O370  1  0.86497391  0.61710642  0.86892595  1
  O  O371  1  0.13971697  0.37638360  0.12845786  1
  O  O372  1  0.12699409  0.38871302  0.62864712  1
  O  O373  1  0.13161445  0.88089529  0.12627836  1
  O  O374  1  0.08565920  0.88365672  0.63879089  1
  O  O375  1  0.63155323  0.38119766  0.13139491  1
  O  O376  1  0.62504213  0.38890856  0.64155002  1
  O  O377  1  0.63395691  0.88307641  0.11642949  1
  O  O378  1  0.62872929  0.88570517  0.64202586  1
  O  O379  1  0.11598605  0.25322991  0.25675270  1
  O  O380  1  0.11715598  0.25168472  0.75851995  1
  O  O381  1  0.11637079  0.75745011  0.25439712  1
  O  O382  1  0.13220491  0.74814012  0.76858870  1
  O  O383  1  0.61064805  0.26047803  0.24199348  1
  O  O384  1  0.61560983  0.25865475  0.75478143  1
  O  O385  1  0.61740373  0.74340634  0.25508006  1
  O  O386  1  0.63863293  0.76616487  0.74616422  1
  O  O387  1  0.38540352  0.25403988  0.24392589  1
  O  O388  1  0.37861218  0.24422864  0.74706176  1
  O  O389  1  0.37632644  0.73485548  0.27149855  1
  O  O390  1  0.36914107  0.72876320  0.76609884  1
  O  O391  1  0.88152601  0.24500107  0.24499906  1
  O  O392  1  0.88181153  0.24699270  0.74784225  1
  O  O393  1  0.87946194  0.75015572  0.24167606  1
  O  O394  1  0.86693100  0.74042378  0.73956527  1
  O  O395  1  0.37478502  0.48241867  0.49058712  1
  O  O396  1  0.37447414  0.50222528  0.98399865  1
  O  O397  1  0.39353580  0.99580784  0.49458118  1
  O  O398  1  0.37837551  0.98800942  0.99260555  1
  O  O399  1  0.88254186  0.49365663  0.49522487  1
  O  O400  1  0.87984538  0.49382079  0.99267521  1
  O  O401  1  0.87884750  0.99567439  0.49169388  1
  O  O402  1  0.87786293  0.99531747  0.99370300  1
  O  O403  1  0.11766948  0.00166390  0.00490005  1
  O  O404  1  0.10611884  -0.00530674  0.49177210  1
  O  O405  1  0.11039163  0.49133382  -0.00155899  1
  O  O406  1  0.11059477  0.49334854  0.50537452  1
  O  O407  1  0.61903647  0.00449473  0.00729827  1
  O  O408  1  0.61503412  -0.00478676  0.51362450  1
  O  O409  1  0.62679194  0.50911158  0.01039365  1
  O  O410  1  0.63196596  0.49624487  0.52682701  1
  O  O411  1  0.36449750  0.36427145  0.12688585  1
  O  O412  1  0.37425945  0.36407054  0.61825639  1
  O  O413  1  0.36462243  0.87756306  0.11027455  1
  O  O414  1  0.36073676  0.85807607  0.66170227  1
  O  O415  1  0.86584716  0.37209304  0.11635620  1
  O  O416  1  0.87401434  0.36984069  0.61956652  1
  O  O417  1  0.86587195  0.87049431  0.11793106  1
  O  O418  1  0.87737719  0.86711033  0.61549814  1
  O  O419  1  0.13094376  0.14025513  0.37005295  1
  O  O420  1  0.13501463  0.13648897  0.87808312  1
  O  O421  1  0.11972219  0.64111171  0.36423557  1
  O  O422  1  0.13735014  0.62928633  0.87394411  1
  O  O423  1  0.63284280  0.11213192  0.38428131  1
  O  O424  1  0.62740914  0.13307689  0.88024121  1
  O  O425  1  0.62997018  0.58141015  0.38462538  1
  O  O426  1  0.63430173  0.61642860  0.88699419  1
