# generated using pymatgen
data_V85Zn86O256
_symmetry_space_group_name_H-M   'P 1'
_cell_length_a   16.98131173
_cell_length_b   17.02246341
_cell_length_c   16.98904444
_cell_angle_alpha   90.21268001
_cell_angle_beta   90.24231585
_cell_angle_gamma   89.98405050
_symmetry_Int_Tables_number   1
_chemical_formula_structural   V85Zn86O256
_chemical_formula_sum   'V85 Zn86 O256'
_cell_volume   4910.83910348
_cell_formula_units_Z   1
loop_
 _symmetry_equiv_pos_site_id
 _symmetry_equiv_pos_as_xyz
  1  'x, y, z'
loop_
 _atom_site_type_symbol
 _atom_site_label
 _atom_site_symmetry_multiplicity
 _atom_site_fract_x
 _atom_site_fract_y
 _atom_site_fract_z
 _atom_site_occupancy
  V  V0  1  0.62888924  0.13959047  0.48971911  1
  V  V1  1  0.74636006  0.88395221  0.62597278  1
  V  V2  1  0.63715731  0.63050148  -0.00138741  1
  V  V3  1  -0.00051340  -0.01069792  -0.00112098  1
  V  V4  1  -0.00035149  0.63186602  0.63201741  1
  V  V5  1  0.25525381  0.62279436  0.87484057  1
  V  V6  1  0.37610671  0.63189705  0.74556322  1
  V  V7  1  -0.00332984  0.87080616  0.86916087  1
  V  V8  1  0.12971568  0.12379150  0.00140947  1
  V  V9  1  0.86501574  0.11655242  0.28149220  1
  V  V10  1  0.50390237  0.26854407  0.26129486  1
  V  V11  1  0.62784504  0.37858289  0.75294713  1
  V  V12  1  0.25104499  0.12512309  0.87697485  1
  V  V13  1  0.12282434  0.74991396  0.37266124  1
  V  V14  1  0.49714856  0.63099475  0.62670347  1
  V  V15  1  0.88077383  0.64119762  0.25035924  1
  V  V16  1  0.37636235  0.25089003  0.11575951  1
  V  V17  1  0.12673582  0.37184022  0.24528168  1
  V  V18  1  0.37791207  0.49348312  0.37289335  1
  V  V19  1  0.62859816  0.12612375  0.00275573  1
  V  V20  1  0.75268697  0.50552251  0.75561974  1
  V  V21  1  0.37685515  0.37385873  0.49721412  1
  V  V22  1  -0.00404906  -0.00014653  0.49581109  1
  V  V23  1  0.50194549  0.12374338  0.62054580  1
  V  V24  1  0.75492992  0.87414594  0.11535762  1
  V  V25  1  0.61857696  0.75072869  0.37434327  1
  V  V26  1  0.12610198  0.37476491  0.75100702  1
  V  V27  1  0.25422846  0.12007517  0.37446840  1
  V  V28  1  0.75239972  0.37477872  0.63023013  1
  V  V29  1  0.87309942  0.24997372  0.62861722  1
  V  V30  1  0.62411428  0.76111762  0.87486910  1
  V  V31  1  0.75803574  0.62398758  0.37679308  1
  V  V32  1  0.25026276  0.24892747  0.49818084  1
  V  V33  1  0.13035849  0.24890122  0.87993088  1
  V  V34  1  0.37424443  0.24983876  0.62466307  1
  V  V35  1  0.62726095  0.25182654  0.88301715  1
  V  V36  1  0.50106620  0.63004299  0.12529981  1
  V  V37  1  0.11913079  0.24962259  0.36795545  1
  V  V38  1  0.25690580  0.74915207  0.50399229  1
  V  V39  1  0.37838757  -0.00186831  0.87298768  1
  V  V40  1  0.37516644  0.12516663  0.74984792  1
  V  V41  1  0.38405034  0.88015100  0.49313638  1
  V  V42  1  0.00092397  0.25117302  0.75366014  1
  V  V43  1  0.87626164  0.75461832  0.10675114  1
  V  V44  1  0.12193355  0.87233108  0.74715239  1
  V  V45  1  0.38160277  0.87433258  -0.00723134  1
  V  V46  1  -0.00028308  0.37598483  0.88559603  1
  V  V47  1  0.87832454  0.49954551  0.87838899  1
  V  V48  1  0.49263890  0.50022234  -0.00240249  1
  V  V49  1  0.24687795  0.49841763  0.24285146  1
  V  V50  1  0.87217833  0.87765825  0.49778869  1
  V  V51  1  0.25191228  0.87444577  0.12507327  1
  V  V52  1  0.24935704  0.74557031  -0.00212436  1
  V  V53  1  0.62210508  0.87565970  0.25066380  1
  V  V54  1  0.12631520  -0.00452478  0.12443077  1
  V  V55  1  0.25084144  0.62370316  0.37640842  1
  V  V56  1  0.25620153  0.87115901  0.62427218  1
  V  V57  1  0.75096205  0.75091642  0.50733318  1
  V  V58  1  0.62569369  0.62336659  0.50122841  1
  V  V59  1  0.75226900  0.50068332  0.24926320  1
  V  V60  1  0.75279969  0.13092883  0.88048200  1
  V  V61  1  0.12428373  0.12440526  0.49944962  1
  V  V62  1  0.87553124  0.12853046  0.75185717  1
  V  V63  1  -0.00071041  0.12460721  0.62482550  1
  V  V64  1  0.25036201  -0.00066805  0.74928999  1
  V  V65  1  0.01258948  0.51471323  0.00720151  1
  V  V66  1  0.62311644  0.00502259  0.62208326  1
  V  V67  1  0.37781154  0.75083323  0.12542923  1
  V  V68  1  0.49346354  0.38187908  0.87909316  1
  V  V69  1  0.50192500  0.49563238  0.49665855  1
  V  V70  1  -0.00855383  0.12405621  0.13228532  1
  V  V71  1  0.87560936  -0.00333300  0.87744077  1
  V  V72  1  0.49979358  0.25274323  0.75137894  1
  V  V73  1  0.87729241  0.37819077  0.49159570  1
  V  V74  1  0.50217208  -0.00242606  -0.00435485  1
  V  V75  1  -0.00262978  0.87206270  0.37236063  1
  V  V76  1  0.62433715  0.49520253  0.13173815  1
  V  V77  1  0.25106655  0.36993891  0.11809100  1
  V  V78  1  0.50034714  0.12630479  0.12727245  1
  V  V79  1  0.25674766  -0.00134585  0.25341980  1
  V  V80  1  0.12327180  0.87321171  0.25172475  1
  V  V81  1  0.25838813  0.49990264  0.75295336  1
  V  V82  1  0.12317618  0.49967153  0.62116891  1
  V  V83  1  0.25028313  0.37473630  0.62409952  1
  V  V84  1  0.12464102  0.74765459  0.87288638  1
  Zn  Zn85  1  0.74819253  0.00120204  0.75065915  1
  Zn  Zn86  1  0.75457287  -0.00986355  0.27592743  1
  Zn  Zn87  1  0.00969719  0.62610870  0.13620937  1
  Zn  Zn88  1  0.63245695  0.00005433  0.12639703  1
  Zn  Zn89  1  0.81083021  0.29930591  0.08647116  1
  Zn  Zn90  1  0.88603575  0.76011096  0.63658359  1
  Zn  Zn91  1  0.37695505  0.62497921  0.25038318  1
  Zn  Zn92  1  0.88227408  0.63329740  0.75550506  1
  Zn  Zn93  1  0.12463319  -0.00032549  0.62418184  1
  Zn  Zn94  1  0.75907498  0.63367054  0.88327244  1
  Zn  Zn95  1  0.49545375  0.75576055  0.25783110  1
  Zn  Zn96  1  -0.04198747  0.28022429  0.20856233  1
  Zn  Zn97  1  0.49282359  0.76247846  0.75656026  1
  Zn  Zn98  1  0.36875356  0.37588269  -0.00649175  1
  Zn  Zn99  1  -0.00556350  0.37903352  0.36684054  1
  Zn  Zn100  1  0.40885426  -0.00398625  0.37854504  1
  Zn  Zn101  1  0.62568295  0.50033837  0.62650095  1
  Zn  Zn102  1  0.12287948  0.62486848  0.49962003  1
  Zn  Zn103  1  0.37680777  0.12808714  0.25119378  1
  Zn  Zn104  1  0.74842794  0.25247950  0.48461708  1
  Zn  Zn105  1  0.61608375  0.88246733  0.75279504  1
  Zn  Zn106  1  -0.01016485  0.50626588  0.49473228  1
  Zn  Zn107  1  0.18917800  0.18676465  0.18446983  1
  Zn  Zn108  1  0.18680284  0.18706365  0.68838599  1
  Zn  Zn109  1  0.18931456  0.68280448  0.19108130  1
  Zn  Zn110  1  0.18640396  0.68681997  0.68808634  1
  Zn  Zn111  1  0.69380978  0.18680761  0.21121599  1
  Zn  Zn112  1  0.68822707  0.18955354  0.69206696  1
  Zn  Zn113  1  0.69330378  0.69102954  0.18568152  1
  Zn  Zn114  1  0.68218895  0.68962877  0.69075497  1
  Zn  Zn115  1  0.31524740  0.30840372  0.30642524  1
  Zn  Zn116  1  0.31158647  0.31114581  0.81213051  1
  Zn  Zn117  1  0.31225725  0.81311504  0.31512403  1
  Zn  Zn118  1  0.31193110  0.81190688  0.81090783  1
  Zn  Zn119  1  0.81449019  0.31743347  0.28435254  1
  Zn  Zn120  1  0.81557001  0.32019228  0.92483417  1
  Zn  Zn121  1  0.80421694  0.81513193  0.31680026  1
  Zn  Zn122  1  0.80463880  0.80949774  0.81051161  1
  Zn  Zn123  1  0.18607431  0.43613840  0.43322485  1
  Zn  Zn124  1  0.18499718  0.44174213  0.93845043  1
  Zn  Zn125  1  0.18665235  0.93652868  0.44032450  1
  Zn  Zn126  1  0.18903827  0.93477997  0.93662348  1
  Zn  Zn127  1  0.69421974  0.43665540  0.43582294  1
  Zn  Zn128  1  0.68090984  0.44086472  0.94153133  1
  Zn  Zn129  1  0.62344004  0.96235273  0.41916380  1
  Zn  Zn130  1  0.69161462  0.94068962  0.93749927  1
  Zn  Zn131  1  0.31518094  0.06104817  0.06309527  1
  Zn  Zn132  1  0.31353939  0.05803732  0.56210481  1
  Zn  Zn133  1  0.31097059  0.56291573  0.06263932  1
  Zn  Zn134  1  0.31370580  0.56064541  0.56318156  1
  Zn  Zn135  1  0.81175087  0.05589257  0.06412663  1
  Zn  Zn136  1  0.79507817  0.05121890  0.45186037  1
  Zn  Zn137  1  0.80222825  0.48511837  0.05003883  1
  Zn  Zn138  1  0.81387246  0.56144153  0.56677832  1
  Zn  Zn139  1  0.43626358  0.43737092  0.18446203  1
  Zn  Zn140  1  0.43968918  0.44047008  0.68498801  1
  Zn  Zn141  1  0.44076270  0.93932868  0.18387820  1
  Zn  Zn142  1  0.43822187  0.93742908  0.68238912  1
  Zn  Zn143  1  0.93316481  0.44672822  0.18590632  1
  Zn  Zn144  1  0.93951605  0.43979775  0.69148372  1
  Zn  Zn145  1  0.93449961  0.93917659  0.19013583  1
  Zn  Zn146  1  0.93530714  0.94186924  0.68586097  1
  Zn  Zn147  1  0.06432080  0.05807955  0.31197507  1
  Zn  Zn148  1  0.06322364  0.06014142  0.81208471  1
  Zn  Zn149  1  0.06126351  0.55689315  0.31561607  1
  Zn  Zn150  1  0.06804487  0.56071049  0.81325646  1
  Zn  Zn151  1  0.56520807  0.06825096  0.30879438  1
  Zn  Zn152  1  0.56252646  0.06380864  0.81011018  1
  Zn  Zn153  1  0.56295695  0.56828805  0.31381435  1
  Zn  Zn154  1  0.56158127  0.56622536  0.81504828  1
  Zn  Zn155  1  0.43818586  0.18530871  0.43679721  1
  Zn  Zn156  1  0.44173804  0.18809972  0.93730462  1
  Zn  Zn157  1  0.43590041  0.68511587  0.44222027  1
  Zn  Zn158  1  0.44042795  0.68487746  0.93522459  1
  Zn  Zn159  1  0.93845310  0.19482858  0.44158296  1
  Zn  Zn160  1  0.94086971  0.18641199  0.94901223  1
  Zn  Zn161  1  0.93854080  0.68871215  0.44489004  1
  Zn  Zn162  1  0.93875849  0.68784350  0.93626116  1
  Zn  Zn163  1  0.06487855  0.31091112  0.06069841  1
  Zn  Zn164  1  0.06253136  0.31030721  0.56198983  1
  Zn  Zn165  1  0.07986084  0.77820256  0.08182529  1
  Zn  Zn166  1  0.06750392  0.81156259  0.55854479  1
  Zn  Zn167  1  0.61061940  0.28586203  0.10400183  1
  Zn  Zn168  1  0.56096653  0.31409082  0.56440285  1
  Zn  Zn169  1  0.56773705  0.81249212  0.06154940  1
  Zn  Zn170  1  0.56369798  0.81147073  0.56509907  1
  O  O171  1  0.12140133  0.11506134  0.11889918  1
  O  O172  1  0.11738144  0.12606055  0.61850688  1
  O  O173  1  0.11014975  0.67099378  0.11714128  1
  O  O174  1  0.11791686  0.61680407  0.62495843  1
  O  O175  1  0.61668047  0.12147590  0.11603215  1
  O  O176  1  0.61710653  0.12484316  0.62813793  1
  O  O177  1  0.61710857  0.62888784  0.11483382  1
  O  O178  1  0.61805248  0.61964397  0.61886943  1
  O  O179  1  0.36486454  0.38696192  0.38026208  1
  O  O180  1  0.38809549  0.36869550  0.87499109  1
  O  O181  1  0.37253697  0.87745355  0.38782953  1
  O  O182  1  0.37034999  0.87987568  0.88588099  1
  O  O183  1  0.87315428  0.36391239  0.38952893  1
  O  O184  1  0.89124392  0.38659955  0.86810551  1
  O  O185  1  0.88493986  0.86451736  0.38764077  1
  O  O186  1  0.88287300  0.88774269  0.86247189  1
  O  O187  1  0.24128020  0.00842236  0.36579054  1
  O  O188  1  0.25723099  0.00463254  0.86923275  1
  O  O189  1  0.25744736  0.50729045  0.36874793  1
  O  O190  1  0.24047451  0.51103490  0.86372467  1
  O  O191  1  0.73134847  -0.01330648  0.38743474  1
  O  O192  1  0.75948529  0.00954954  0.87302179  1
  O  O193  1  0.74009661  0.51514993  0.36212506  1
  O  O194  1  0.76079640  0.49967111  0.87046574  1
  O  O195  1  0.25869107  0.49188591  0.13652350  1
  O  O196  1  0.24478436  0.49446695  0.63353775  1
  O  O197  1  0.24824035  0.99392290  0.13346611  1
  O  O198  1  0.24645825  0.99052784  0.63077319  1
  O  O199  1  0.73396604  0.51126495  0.13503504  1
  O  O200  1  0.75013747  0.49045325  0.63512019  1
  O  O201  1  0.75177848  0.98580283  0.13133470  1
  O  O202  1  0.74029327  0.99075769  0.62644468  1
  O  O203  1  0.01461845  0.37674287  0.24785501  1
  O  O204  1  0.00869366  0.37150236  0.76023769  1
  O  O205  1  0.00675475  0.88458849  0.26480860  1
  O  O206  1  0.01000790  0.88271905  0.75743773  1
  O  O207  1  0.49944276  0.36818884  0.24934851  1
  O  O208  1  0.50883228  0.37480977  0.75638642  1
  O  O209  1  0.51687361  0.87027278  0.23604832  1
  O  O210  1  0.50347217  0.87332960  0.74303451  1
  O  O211  1  0.49532248  0.11941414  0.23496631  1
  O  O212  1  0.49380772  0.13375326  0.74414069  1
  O  O213  1  0.49835484  0.63133185  0.23658087  1
  O  O214  1  0.49000787  0.61919391  0.74255568  1
  O  O215  1  0.99255041  0.11434762  0.23821625  1
  O  O216  1  0.99471596  0.12932081  0.74725231  1
  O  O217  1  0.98361146  0.61666991  0.25506805  1
  O  O218  1  1.00439742  0.61899948  0.73561421  1
  O  O219  1  0.38344568  0.25393312  0.01112023  1
  O  O220  1  0.36925028  0.25410133  0.50501523  1
  O  O221  1  0.37043322  0.75690527  0.00411399  1
  O  O222  1  0.36300552  0.75981711  0.49426225  1
  O  O223  1  0.87184868  0.25596598  -0.00070884  1
  O  O224  1  0.86914312  0.25811165  0.51229543  1
  O  O225  1  0.87075175  0.74633423  0.00801638  1
  O  O226  1  0.86652390  0.75770195  0.50943087  1
  O  O227  1  0.13149871  0.24523355  0.49084320  1
  O  O228  1  0.12038143  0.23644648  0.98968832  1
  O  O229  1  0.13866414  0.74923620  0.48847960  1
  O  O230  1  0.14266294  0.76409099  0.98419904  1
  O  O231  1  0.62882219  0.24332618  0.50972717  1
  O  O232  1  0.61573962  0.23734169  0.99069787  1
  O  O233  1  0.63167543  0.74463832  0.49367733  1
  O  O234  1  0.62219818  0.73774927  0.99181801  1
  O  O235  1  0.49702531  0.24044598  0.13206220  1
  O  O236  1  0.49325153  0.24600608  0.63340753  1
  O  O237  1  0.49079598  0.74455265  0.11950575  1
  O  O238  1  0.50734631  0.73260180  0.62812492  1
  O  O239  1  1.01065220  0.22767275  0.12227470  1
  O  O240  1  0.99251681  0.24594225  0.63175983  1
  O  O241  1  0.97664003  0.76447692  0.12483558  1
  O  O242  1  1.00606110  0.73573205  0.62114913  1
  O  O243  1  0.01458872  0.25541586  0.37827690  1
  O  O244  1  0.01026049  0.25662798  0.87349211  1
  O  O245  1  0.01261602  0.75933961  0.38595674  1
  O  O246  1  0.01078214  0.76164983  0.88188729  1
  O  O247  1  0.48523696  0.25010604  0.35895526  1
  O  O248  1  0.50906928  0.25827798  0.87031992  1
  O  O249  1  0.51334212  0.73736321  0.37475570  1
  O  O250  1  0.51662340  0.74244254  0.87475341  1
  O  O251  1  0.24527542  0.12767622  0.49284653  1
  O  O252  1  0.23700763  0.11448701  0.99471162  1
  O  O253  1  0.25094827  0.63089940  0.49272370  1
  O  O254  1  0.25885822  0.63653619  0.99016426  1
  O  O255  1  0.73552631  0.13626141  0.49998361  1
  O  O256  1  0.73990431  0.11561682  0.99089687  1
  O  O257  1  0.74781513  0.63052188  0.49773863  1
  O  O258  1  0.73562471  0.61630837  1.00401829  1
  O  O259  1  0.25008013  0.38428488  0.01293817  1
  O  O260  1  0.25574357  0.36857502  0.50501513  1
  O  O261  1  0.26177446  0.86833678  0.00434759  1
  O  O262  1  0.25434498  0.86773298  0.50633250  1
  O  O263  1  0.75975886  0.38696566  0.00473180  1
  O  O264  1  0.75979902  0.37339543  0.51437211  1
  O  O265  1  0.74653237  0.87829977  0.01605414  1
  O  O266  1  0.75926680  0.86540337  0.50934493  1
  O  O267  1  0.13925172  0.48771020  0.25512253  1
  O  O268  1  0.13575518  0.49440356  0.74025793  1
  O  O269  1  0.13563319  0.99285373  0.24370323  1
  O  O270  1  0.13177976  0.98943344  0.74963462  1
  O  O271  1  0.63190066  0.51679055  0.23682397  1
  O  O272  1  0.63122410  0.49136211  0.75427881  1
  O  O273  1  0.62751340  0.98451612  0.24605243  1
  O  O274  1  0.62834536  1.00351509  0.73896878  1
  O  O275  1  0.36505425  -0.00355060  0.25386797  1
  O  O276  1  0.37006865  0.00616977  0.75392846  1
  O  O277  1  0.36777337  0.50093402  0.25828337  1
  O  O278  1  0.36318582  0.50629711  0.74623466  1
  O  O279  1  0.87447327  0.01433088  0.25470183  1
  O  O280  1  0.87580692  0.01403233  0.75833904  1
  O  O281  1  0.85703240  0.51874353  0.24035181  1
  O  O282  1  0.86896049  0.50405526  0.75929371  1
  O  O283  1  0.13612404  0.36136704  0.36165144  1
  O  O284  1  0.12164257  0.36653260  0.87146907  1
  O  O285  1  0.11832316  0.86786585  0.37317187  1
  O  O286  1  0.11960948  0.86982128  0.86511247  1
  O  O287  1  0.66608264  0.34044888  0.37342010  1
  O  O288  1  0.61859937  0.36951873  0.87101765  1
  O  O289  1  0.62588074  0.86089211  0.35969247  1
  O  O290  1  0.62796935  0.86432489  0.87858212  1
  O  O291  1  0.38334357  0.13224432  0.12239420  1
  O  O292  1  0.38121537  0.12990768  0.62867386  1
  O  O293  1  0.38231311  0.63591792  0.12406632  1
  O  O294  1  0.38346589  0.61969871  0.63325189  1
  O  O295  1  0.89152800  0.12001152  0.11954515  1
  O  O296  1  0.88094561  0.13716145  0.63643583  1
  O  O297  1  0.87737838  0.64682783  0.14180390  1
  O  O298  1  0.89257609  0.62275236  0.62592970  1
  O  O299  1  0.26312482  0.25778924  0.12985073  1
  O  O300  1  0.25414725  0.25455097  0.61974320  1
  O  O301  1  0.26138654  0.75406882  0.11630917  1
  O  O302  1  0.24265689  0.75821726  0.61495903  1
  O  O303  1  0.71807046  0.25405643  0.12735669  1
  O  O304  1  0.76005301  0.26151628  0.63521893  1
  O  O305  1  0.76284479  0.76312239  0.12942381  1
  O  O306  1  0.74015881  0.75864480  0.61498291  1
  O  O307  1  0.24702115  0.23670206  0.37747296  1
  O  O308  1  0.23800922  0.24314862  0.87021727  1
  O  O309  1  0.24588047  0.74105632  0.38208697  1
  O  O310  1  0.24593560  0.74365454  0.88024574  1
  O  O311  1  0.72681822  0.28680033  0.36929280  1
  O  O312  1  0.73803835  0.24265671  0.87740665  1
  O  O313  1  0.74196438  0.74334668  0.38933612  1
  O  O314  1  0.73201917  0.74556391  0.87393907  1
  O  O315  1  0.01244030  0.11191140  0.00720022  1
  O  O316  1  0.00345722  0.11823158  0.50376000  1
  O  O317  1  0.00146585  0.61589782  0.00026610  1
  O  O318  1  0.00465175  0.62119663  0.51213611  1
  O  O319  1  0.50827606  0.11771205  0.00621799  1
  O  O320  1  0.50936360  0.13795703  0.51488831  1
  O  O321  1  0.50409552  0.61820696  0.00896071  1
  O  O322  1  0.50369429  0.61583196  0.50796680  1
  O  O323  1  0.49377870  0.38731797  0.50585186  1
  O  O324  1  0.50174251  0.38771330  0.98852705  1
  O  O325  1  0.48184884  0.86727613  0.50857978  1
  O  O326  1  0.49183482  0.88490204  1.00745265  1
  O  O327  1  0.98221049  0.37127225  0.50548098  1
  O  O328  1  1.00927060  0.38408049  0.98993718  1
  O  O329  1  0.99356007  0.88074064  0.49599963  1
  O  O330  1  1.00600413  0.88717629  0.98498504  1
  O  O331  1  0.48928245  0.51031688  0.38424143  1
  O  O332  1  0.50597350  0.49307458  0.88490389  1
  O  O333  1  0.51968609  0.99581526  0.37942945  1
  O  O334  1  0.49472824  1.00896102  0.88746639  1
  O  O335  1  1.02168877  0.48526807  0.38946700  1
  O  O336  1  0.99913391  0.49518704  0.88116428  1
  O  O337  1  1.00772501  0.98807649  0.38766874  1
  O  O338  1  0.99464471  0.99345689  0.87943798  1
  O  O339  1  0.00547040  0.00398146  0.11703979  1
  O  O340  1  0.00136468  0.00615891  0.61380754  1
  O  O341  1  -0.00512251  0.50635954  0.11108820  1
  O  O342  1  0.01014857  0.50519308  0.62234743  1
  O  O343  1  0.50047296  0.00889816  0.11146124  1
  O  O344  1  0.50667318  0.01651688  0.63016204  1
  O  O345  1  0.50735519  0.51179068  0.12175495  1
  O  O346  1  0.50276115  0.50764665  0.61358282  1
  O  O347  1  0.24692643  0.38038077  0.23996790  1
  O  O348  1  0.24660916  0.38175811  0.74567051  1
  O  O349  1  0.24541202  0.88187772  0.24626532  1
  O  O350  1  0.24492371  0.87899488  0.74239260  1
  O  O351  1  0.74581246  0.40334356  0.25400739  1
  O  O352  1  0.73989331  0.38730965  0.74532713  1
  O  O353  1  0.73894033  0.87486367  0.24426100  1
  O  O354  1  0.74108945  0.87800968  0.73705673  1
  O  O355  1  0.25250847  0.11497310  0.25647041  1
  O  O356  1  0.25530423  0.11966349  0.75528348  1
  O  O357  1  0.25289266  0.61618053  0.25797241  1
  O  O358  1  0.25762247  0.61873406  0.75306206  1
  O  O359  1  0.76186894  0.11635155  0.26500438  1
  O  O360  1  0.75937359  0.12718290  0.76311292  1
  O  O361  1  0.75978599  0.62793182  0.25992482  1
  O  O362  1  0.74509271  0.60987095  0.75023916  1
  O  O363  1  0.36443794  0.11533661  0.37548106  1
  O  O364  1  0.37077379  0.12085373  0.87021320  1
  O  O365  1  0.36515941  0.61648220  0.37433767  1
  O  O366  1  0.36288620  0.62790189  0.86503779  1
  O  O367  1  0.87360646  0.11635316  0.38446918  1
  O  O368  1  0.87111163  0.12044827  0.87057187  1
  O  O369  1  0.86527282  0.63141856  0.37160038  1
  O  O370  1  0.87504701  0.61535998  0.87274113  1
  O  O371  1  0.13677663  0.36270267  0.13540356  1
  O  O372  1  0.13017503  0.37928276  0.63031392  1
  O  O373  1  0.13266772  0.87514710  0.13098655  1
  O  O374  1  0.13292460  0.87559387  0.63263509  1
  O  O375  1  0.61561283  0.39855248  0.12411293  1
  O  O376  1  0.63301929  0.37563563  0.63674614  1
  O  O377  1  0.63823705  0.86978728  0.13393445  1
  O  O378  1  0.63074239  0.88909457  0.61686871  1
  O  O379  1  0.13120562  0.25629602  0.25713825  1
  O  O380  1  0.12021731  0.25368506  0.75912851  1
  O  O381  1  0.13662474  0.75880540  0.26675962  1
  O  O382  1  0.13353067  0.76316896  0.75981093  1
  O  O383  1  0.60119215  0.24224407  0.24799355  1
  O  O384  1  0.62107564  0.26047643  0.76151985  1
  O  O385  1  0.62573928  0.75641967  0.25730170  1
  O  O386  1  0.61964916  0.75075975  0.76489175  1
  O  O387  1  0.38662859  0.24755928  0.23649756  1
  O  O388  1  0.37874448  0.24453276  0.74409073  1
  O  O389  1  0.37551419  0.75167494  0.23759957  1
  O  O390  1  0.37542746  0.73660329  0.75152716  1
  O  O391  1  0.87947073  0.22164579  0.26830169  1
  O  O392  1  0.88383960  0.23972134  0.74606560  1
  O  O393  1  0.87444209  0.74139876  0.26017293  1
  O  O394  1  0.86648768  0.74383460  0.74514753  1
  O  O395  1  0.38128286  0.49460414  0.49217314  1
  O  O396  1  0.38849227  0.49830107  1.00687979  1
  O  O397  1  0.37154998  0.98516739  0.49633870  1
  O  O398  1  0.38209970  0.99232082  0.99435425  1
  O  O399  1  0.87137939  0.48190414  0.50445486  1
  O  O400  1  0.89186917  0.50101411  0.98591042  1
  O  O401  1  0.88435439  0.98820727  0.49915792  1
  O  O402  1  0.88574877  1.00684877  0.98580395  1
  O  O403  1  0.11939442  0.00351586  0.00356868  1
  O  O404  1  0.11556928  0.00601657  0.50238503  1
  O  O405  1  0.11208205  0.50438146  -0.00210810  1
  O  O406  1  0.13474648  0.49973576  0.51575930  1
  O  O407  1  0.61774479  0.00869303  -0.00024130  1
  O  O408  1  0.62369546  0.02535843  0.51748328  1
  O  O409  1  0.61598639  0.51317672  0.01252826  1
  O  O410  1  0.61763290  0.50295976  0.49595894  1
  O  O411  1  0.36821896  0.36733997  0.12133550  1
  O  O412  1  0.36998058  0.36935799  0.61950194  1
  O  O413  1  0.37205240  0.86810185  0.11497754  1
  O  O414  1  0.36107670  0.87880644  0.61422322  1
  O  O415  1  0.87188095  0.35120546  0.17164389  1
  O  O416  1  0.86987213  0.36646450  0.62649435  1
  O  O417  1  0.86381105  0.86799074  0.13113215  1
  O  O418  1  0.86656629  0.87697870  0.61770832  1
  O  O419  1  0.13214209  0.13129073  0.37764391  1
  O  O420  1  0.12912847  0.12956808  0.88137262  1
  O  O421  1  0.13604430  0.63165193  0.37491531  1
  O  O422  1  0.13854940  0.63896534  0.86405291  1
  O  O423  1  0.61760621  0.13364535  0.39153468  1
  O  O424  1  0.63219696  0.13242818  0.88078312  1
  O  O425  1  0.63570237  0.63305156  0.38140681  1
  O  O426  1  0.62786364  0.62545311  0.89035765  1
