# generated using pymatgen
data_V85Zn86O256
_symmetry_space_group_name_H-M   'P 1'
_cell_length_a   16.96668543
_cell_length_b   16.96205745
_cell_length_c   16.95774929
_cell_angle_alpha   90.08078069
_cell_angle_beta   89.85611343
_cell_angle_gamma   90.02098523
_symmetry_Int_Tables_number   1
_chemical_formula_structural   V85Zn86O256
_chemical_formula_sum   'V85 Zn86 O256'
_cell_volume   4880.24829341
_cell_formula_units_Z   1
loop_
 _symmetry_equiv_pos_site_id
 _symmetry_equiv_pos_as_xyz
  1  'x, y, z'
loop_
 _atom_site_type_symbol
 _atom_site_label
 _atom_site_symmetry_multiplicity
 _atom_site_fract_x
 _atom_site_fract_y
 _atom_site_fract_z
 _atom_site_occupancy
  V  V0  1  0.37096303  0.25920476  0.62232348  1
  V  V1  1  0.13058173  0.12985315  -0.01449326  1
  V  V2  1  0.25053417  0.75308213  -0.00171405  1
  V  V3  1  0.62853574  0.24575373  0.87225788  1
  V  V4  1  0.74609157  0.49965404  0.24441025  1
  V  V5  1  0.00059163  0.87382119  0.37629622  1
  V  V6  1  0.00367546  0.74877791  0.25200522  1
  V  V7  1  0.75049295  0.25048588  -0.00079061  1
  V  V8  1  -0.00490726  0.23667696  0.24913100  1
  V  V9  1  -0.00173484  0.37482418  0.37397406  1
  V  V10  1  0.74807143  0.87892656  0.13760367  1
  V  V11  1  0.50147754  0.37673376  0.87388335  1
  V  V12  1  0.75299571  0.62284873  0.87680110  1
  V  V13  1  0.25488703  0.62947544  0.37673877  1
  V  V14  1  0.62230660  0.12565934  0.49709657  1
  V  V15  1  0.00598714  0.49649146  0.00284945  1
  V  V16  1  0.62449716  -0.00363681  0.62470217  1
  V  V17  1  0.25069310  0.87890843  0.12860638  1
  V  V18  1  0.00572277  0.62058612  0.62751341  1
  V  V19  1  0.49893633  -0.00478892  -0.01214276  1
  V  V20  1  0.49704985  0.12236557  0.12245230  1
  V  V21  1  0.62472942  0.61948157  0.01492744  1
  V  V22  1  -0.00572749  0.12448285  0.63341796  1
  V  V23  1  0.75269358  0.12042082  0.36302680  1
  V  V24  1  0.36148736  -0.00463632  0.87024941  1
  V  V25  1  0.87144618  0.24468165  0.63377076  1
  V  V26  1  0.36598451  0.11850723  0.24699105  1
  V  V27  1  0.87562203  0.87508254  0.50197566  1
  V  V28  1  0.36434512  0.74129884  0.62393371  1
  V  V29  1  0.75242942  0.74736217  0.00193473  1
  V  V30  1  0.49491158  0.12696466  0.62275442  1
  V  V31  1  0.74282884  0.62327280  0.38196962  1
  V  V32  1  0.38098376  0.74390450  0.12528161  1
  V  V33  1  0.00043951  0.00748980  0.00527281  1
  V  V34  1  0.62572321  -0.00482648  0.13466185  1
  V  V35  1  0.49625128  0.24997797  0.24842966  1
  V  V36  1  0.50313571  0.50487689  0.49998862  1
  V  V37  1  0.74568610  0.74566091  0.50487427  1
  V  V38  1  0.87719258  0.62330770  0.25207157  1
  V  V39  1  0.12376489  -0.00289471  0.64048964  1
  V  V40  1  0.50496659  0.50279272  0.01471657  1
  V  V41  1  0.62409563  0.76054527  0.37457582  1
  V  V42  1  0.87670905  0.75116229  0.62861097  1
  V  V43  1  0.37464357  0.37461828  0.00239819  1
  V  V44  1  0.13059949  0.75149714  0.37849116  1
  V  V45  1  0.25077052  0.25802251  0.49856021  1
  V  V46  1  0.87452214  0.23751504  0.13257720  1
  V  V47  1  0.49640042  0.25127061  0.74951723  1
  V  V48  1  0.49514027  0.37387617  0.38049034  1
  V  V49  1  0.50119515  0.62653643  0.63661171  1
  V  V50  1  0.36630437  -0.00076159  0.37150443  1
  V  V51  1  0.12843829  0.62285860  0.00396653  1
  V  V52  1  0.87656423  0.87410619  0.00052402  1
  V  V53  1  0.00392122  0.49816088  0.50337949  1
  V  V54  1  0.49378994  -0.00511196  0.49731265  1
  V  V55  1  0.37443140  0.49679066  0.38120734  1
  V  V56  1  0.62743132  0.12403496  -0.00465166  1
  V  V57  1  0.25648710  0.62763426  0.86788283  1
  V  V58  1  0.00491780  0.62156391  0.12558827  1
  V  V59  1  0.23543759  0.49951183  0.74483724  1
  V  V60  1  0.00575123  0.87379289  0.87424009  1
  V  V61  1  0.61922020  0.75326936  0.87350699  1
  V  V62  1  0.12250783  0.24942997  0.37400528  1
  V  V63  1  0.12924579  0.62462256  0.50083268  1
  V  V64  1  0.24867978  0.88618962  0.62865074  1
  V  V65  1  0.75228600  0.49696910  0.75016513  1
  V  V66  1  0.62753576  0.50479302  0.62028328  1
  V  V67  1  -0.00113866  -0.00023212  0.50150734  1
  V  V68  1  0.87846210  0.75082690  0.12740641  1
  V  V69  1  0.87486033  0.49924329  0.37640092  1
  V  V70  1  0.35919388  0.12361169  0.75587993  1
  V  V71  1  0.75075845  0.24905260  0.49849232  1
  V  V72  1  0.23394154  0.38038286  0.62550706  1
  V  V73  1  0.87211724  0.00227100  0.36241801  1
  V  V74  1  0.12239363  0.37908369  0.24256704  1
  V  V75  1  0.62230432  0.38017513  0.24307560  1
  V  V76  1  0.12561895  0.12407481  0.50172768  1
  V  V77  1  0.00804171  0.75432695  0.75156448  1
  V  V78  1  0.00991767  0.25732549  0.75503806  1
  V  V79  1  0.24767353  0.50021567  0.24455764  1
  V  V80  1  0.38024606  0.50443994  0.86368151  1
  V  V81  1  0.86782503  0.01090207  0.87268282  1
  V  V82  1  0.12757205  0.00851843  0.13126005  1
  V  V83  1  0.87938422  0.48926645  0.87591037  1
  V  V84  1  0.74951353  0.37407642  0.62409448  1
  Zn  Zn85  1  0.36485997  0.86397963  0.49315570  1
  Zn  Zn86  1  0.13028121  0.88063286  0.25326578  1
  Zn  Zn87  1  0.87880707  0.62421502  0.75339918  1
  Zn  Zn88  1  0.62128720  0.88493054  0.76030311  1
  Zn  Zn89  1  0.62567478  0.24937532  0.37171938  1
  Zn  Zn90  1  0.38023332  0.87245412  -0.00791521  1
  Zn  Zn91  1  0.03217451  0.36405381  0.87560308  1
  Zn  Zn92  1  0.74803986  0.87662227  0.63181891  1
  Zn  Zn93  1  0.38773247  0.62079246  0.24411092  1
  Zn  Zn94  1  0.49376163  0.75835898  0.75418908  1
  Zn  Zn95  1  0.74983482  0.37762074  0.12366491  1
  Zn  Zn96  1  0.50168547  0.87913353  0.36096869  1
  Zn  Zn97  1  0.62510887  0.37415248  0.74837668  1
  Zn  Zn98  1  0.24657316  0.37696618  0.12340424  1
  Zn  Zn99  1  0.24001380  0.25553234  -0.00759571  1
  Zn  Zn100  1  0.75084643  0.01132832  0.75182194  1
  Zn  Zn101  1  0.36582300  0.24699530  0.11923490  1
  Zn  Zn102  1  0.24512594  0.12169017  0.36685613  1
  Zn  Zn103  1  0.13156538  0.75638009  0.87033588  1
  Zn  Zn104  1  0.88197235  0.37054823  0.00349649  1
  Zn  Zn105  1  0.51488898  0.75005108  0.23564872  1
  Zn  Zn106  1  0.87612474  0.37330772  0.50083390  1
  Zn  Zn107  1  0.18472306  0.19453828  0.17983285  1
  Zn  Zn108  1  0.18489914  0.18853910  0.68482829  1
  Zn  Zn109  1  0.19262607  0.68811800  0.18930182  1
  Zn  Zn110  1  0.18871625  0.68776872  0.68742447  1
  Zn  Zn111  1  0.68278056  0.18834733  0.18243184  1
  Zn  Zn112  1  0.68640173  0.18019068  0.68956909  1
  Zn  Zn113  1  0.69397879  0.69023333  0.19299459  1
  Zn  Zn114  1  0.68883277  0.68341021  0.69105564  1
  Zn  Zn115  1  0.31036735  0.31157186  0.31099549  1
  Zn  Zn116  1  0.30529846  0.31829421  0.81157163  1
  Zn  Zn117  1  0.31666018  0.81553988  0.30842212  1
  Zn  Zn118  1  0.31404409  0.81497753  0.80341484  1
  Zn  Zn119  1  0.81097758  0.31262727  0.31302306  1
  Zn  Zn120  1  0.81204831  0.30789473  0.81121438  1
  Zn  Zn121  1  0.81408550  0.81120608  0.31715905  1
  Zn  Zn122  1  0.80846176  0.82001045  0.81049255  1
  Zn  Zn123  1  0.18595266  0.43765965  0.43310452  1
  Zn  Zn124  1  0.19469825  0.44458239  0.93655697  1
  Zn  Zn125  1  0.18913490  0.93458067  0.44700911  1
  Zn  Zn126  1  0.18671423  0.94185455  0.94057677  1
  Zn  Zn127  1  0.68356314  0.43466059  0.43350838  1
  Zn  Zn128  1  0.68666151  0.43643899  0.93950711  1
  Zn  Zn129  1  0.69282871  0.93765154  0.44191160  1
  Zn  Zn130  1  0.68958589  0.93641630  0.94673020  1
  Zn  Zn131  1  0.30851964  0.06420430  0.05457494  1
  Zn  Zn132  1  0.31096449  0.06498397  0.56373590  1
  Zn  Zn133  1  0.31724553  0.56024280  0.05679096  1
  Zn  Zn134  1  0.31514782  0.56160370  0.56246752  1
  Zn  Zn135  1  0.80908363  0.06040559  0.06248616  1
  Zn  Zn136  1  0.81036907  0.06266825  0.55870166  1
  Zn  Zn137  1  0.81865007  0.56182430  0.06187646  1
  Zn  Zn138  1  0.81808147  0.56305636  0.56418330  1
  Zn  Zn139  1  0.43294861  0.43750701  0.19143885  1
  Zn  Zn140  1  0.43646921  0.43786626  0.68487568  1
  Zn  Zn141  1  0.43931433  0.93079474  0.18536646  1
  Zn  Zn142  1  0.43810175  0.93201853  0.68909517  1
  Zn  Zn143  1  0.93346497  0.43164515  0.18520321  1
  Zn  Zn144  1  0.93843342  0.43244075  0.68908488  1
  Zn  Zn145  1  0.94355101  0.93554310  0.18717920  1
  Zn  Zn146  1  0.93807462  0.93735689  0.69133743  1
  Zn  Zn147  1  0.06135875  0.05963974  0.31537687  1
  Zn  Zn148  1  0.05238985  0.06426260  0.81620763  1
  Zn  Zn149  1  0.06466804  0.56210897  0.31528357  1
  Zn  Zn150  1  0.06320364  0.56707438  0.81852622  1
  Zn  Zn151  1  0.55807100  0.06348213  0.31392147  1
  Zn  Zn152  1  0.55494555  0.06578456  0.80712387  1
  Zn  Zn153  1  0.56224732  0.56784647  0.30774891  1
  Zn  Zn154  1  0.56855342  0.56309713  0.81399940  1
  Zn  Zn155  1  0.43223402  0.18553673  0.43455220  1
  Zn  Zn156  1  0.43621564  0.18683373  0.93489570  1
  Zn  Zn157  1  0.44122217  0.68417664  0.44281093  1
  Zn  Zn158  1  0.44025752  0.68329328  0.94326516  1
  Zn  Zn159  1  0.93501966  0.18465177  0.43799916  1
  Zn  Zn160  1  0.93953898  0.18843214  0.93995390  1
  Zn  Zn161  1  0.93762575  0.68602308  0.43955689  1
  Zn  Zn162  1  0.93979293  0.68573189  0.93784084  1
  Zn  Zn163  1  0.05679682  0.30859319  0.06553622  1
  Zn  Zn164  1  0.05981425  0.31013585  0.56426008  1
  Zn  Zn165  1  0.06639138  0.81412997  0.06319033  1
  Zn  Zn166  1  0.06617535  0.81241822  0.56311033  1
  Zn  Zn167  1  0.55989750  0.31235170  0.06150491  1
  Zn  Zn168  1  0.56270867  0.31483729  0.56252180  1
  Zn  Zn169  1  0.56637191  0.81423377  0.05617446  1
  Zn  Zn170  1  0.55771370  0.81120453  0.56119042  1
  O  O171  1  0.12918662  0.11065940  0.11852386  1
  O  O172  1  0.11550704  0.11796674  0.61880049  1
  O  O173  1  0.12292174  0.63073177  0.11245708  1
  O  O174  1  0.11506697  0.63260292  0.61452159  1
  O  O175  1  0.61558401  0.11784156  0.11516024  1
  O  O176  1  0.61581594  0.12005998  0.61243472  1
  O  O177  1  0.63334948  0.63330650  0.11354867  1
  O  O178  1  0.61990873  0.61187228  0.62923696  1
  O  O179  1  0.38452528  0.38392518  0.36813924  1
  O  O180  1  0.38380182  0.38322344  0.88041663  1
  O  O181  1  0.37663892  0.88423984  0.37718986  1
  O  O182  1  0.37187152  0.89082135  0.87059495  1
  O  O183  1  0.88046435  0.38069279  0.37812609  1
  O  O184  1  0.87164698  0.38465502  0.87942058  1
  O  O185  1  0.88035109  0.88120221  0.38247209  1
  O  O186  1  0.88295169  0.87702062  0.88810136  1
  O  O187  1  0.26101146  0.00248615  0.38217729  1
  O  O188  1  0.26237299  0.00207898  0.87849147  1
  O  O189  1  0.25806344  0.50560881  0.36926940  1
  O  O190  1  0.25972778  0.50806719  0.86239121  1
  O  O191  1  0.76007717  0.00805182  0.38211645  1
  O  O192  1  0.76596648  -0.00542509  0.88410953  1
  O  O193  1  0.75440709  0.50591159  0.37129871  1
  O  O194  1  0.75793877  0.50438679  0.87279868  1
  O  O195  1  0.25947811  0.50095590  0.14080769  1
  O  O196  1  0.25398112  0.49750544  0.63691881  1
  O  O197  1  0.23724819  0.99148168  0.11347917  1
  O  O198  1  0.24163795  0.99353484  0.62550887  1
  O  O199  1  0.75791860  0.50022118  0.14090398  1
  O  O200  1  0.74622910  0.49629556  0.62745344  1
  O  O201  1  0.73842724  0.99080048  0.11751754  1
  O  O202  1  0.73577882  1.00003839  0.61870392  1
  O  O203  1  0.00540312  0.36978242  0.25608556  1
  O  O204  1  0.00184006  0.36284559  0.75452175  1
  O  O205  1  0.00563034  0.86644145  0.25851319  1
  O  O206  1  -0.00531513  0.86503694  0.76210335  1
  O  O207  1  0.50356944  0.36936152  0.25661929  1
  O  O208  1  0.49862192  0.37026118  0.75956826  1
  O  O209  1  0.49793936  0.86125196  0.24974777  1
  O  O210  1  0.51020528  0.87096029  0.74753229  1
  O  O211  1  0.49137732  0.13188396  0.24112836  1
  O  O212  1  0.48802857  0.13493174  0.74114200  1
  O  O213  1  0.49793217  0.63977311  0.25560510  1
  O  O214  1  0.50364752  0.62518303  0.74024870  1
  O  O215  1  1.00305421  0.13812880  0.25513250  1
  O  O216  1  0.99876781  0.13424793  0.73825592  1
  O  O217  1  0.99752212  0.62749037  0.24613556  1
  O  O218  1  1.00004896  0.63237109  0.74376384  1
  O  O219  1  0.37057845  0.26255670  -0.00733314  1
  O  O220  1  0.36104388  0.24060441  0.50975517  1
  O  O221  1  0.36561886  0.75097456  0.00407164  1
  O  O222  1  0.38819526  0.75269876  0.51835985  1
  O  O223  1  0.86682669  0.24858494  0.00849293  1
  O  O224  1  0.86448641  0.24943414  0.50869217  1
  O  O225  1  0.87424359  0.75549848  0.00708969  1
  O  O226  1  0.87118847  0.75414115  0.51000317  1
  O  O227  1  0.12920994  0.24275865  0.49585264  1
  O  O228  1  0.11462836  0.23133079  1.00520347  1
  O  O229  1  0.11891677  0.73815621  0.48801228  1
  O  O230  1  0.13603453  0.74263005  0.99693011  1
  O  O231  1  0.63125004  0.24137831  0.49938262  1
  O  O232  1  0.62863520  0.24326504  0.99369757  1
  O  O233  1  0.64050697  0.75276227  0.49618020  1
  O  O234  1  0.63193136  0.73926705  0.99106414  1
  O  O235  1  0.49740133  0.23807042  0.12984769  1
  O  O236  1  0.48936658  0.24898210  0.62691728  1
  O  O237  1  0.48303744  0.75627482  0.11374023  1
  O  O238  1  0.50162529  0.73676396  0.62718997  1
  O  O239  1  0.98284424  0.25106343  0.13382512  1
  O  O240  1  0.99125964  0.24425526  0.63213639  1
  O  O241  1  0.99801620  0.74423928  0.13087308  1
  O  O242  1  0.99536818  0.74417151  0.63171785  1
  O  O243  1  0.00147674  0.25441726  0.36925913  1
  O  O244  1  -0.00604431  0.24904335  0.85933605  1
  O  O245  1  0.00826038  0.75319034  0.37209392  1
  O  O246  1  0.00057247  0.75576393  0.86843085  1
  O  O247  1  0.49647195  0.25672816  0.36666982  1
  O  O248  1  0.50648962  0.25916000  0.87142701  1
  O  O249  1  0.52166733  0.74951642  0.38983778  1
  O  O250  1  0.51621673  0.74009800  0.87570474  1
  O  O251  1  0.23626619  0.13609008  0.50510942  1
  O  O252  1  0.23549206  0.13104108  0.99610273  1
  O  O253  1  0.23977040  0.61483286  0.48965698  1
  O  O254  1  0.24580007  0.63060820  0.99137600  1
  O  O255  1  0.73966210  0.13301619  0.49362453  1
  O  O256  1  0.73565554  0.13559897  1.00467037  1
  O  O257  1  0.76073780  0.63434928  0.49307369  1
  O  O258  1  0.74670176  0.62599711  0.99472557  1
  O  O259  1  0.26512637  0.38610424  0.00476025  1
  O  O260  1  0.24343428  0.36518678  0.50548887  1
  O  O261  1  0.25019406  0.86468288  0.00393759  1
  O  O262  1  0.25118794  0.87240059  0.51712552  1
  O  O263  1  0.74737897  0.36136150  0.00347572  1
  O  O264  1  0.74781221  0.36298996  0.50287799  1
  O  O265  1  0.76272635  0.86723917  0.00874938  1
  O  O266  1  0.75908813  0.86307793  0.50616658  1
  O  O267  1  0.13504663  0.49035609  0.25961923  1
  O  O268  1  0.13688006  0.50139206  0.75556910  1
  O  O269  1  0.12134960  1.00096176  0.23579566  1
  O  O270  1  0.11496412  1.00463307  0.73917057  1
  O  O271  1  0.63439626  0.49235862  0.25734811  1
  O  O272  1  0.63395573  0.49655126  0.74086883  1
  O  O273  1  0.61445826  1.00475282  0.23321046  1
  O  O274  1  0.62090932  1.00671657  0.73476702  1
  O  O275  1  0.38171487  0.00923930  0.25745983  1
  O  O276  1  0.37807936  0.01417808  0.75857307  1
  O  O277  1  0.36792497  0.50299393  0.26256749  1
  O  O278  1  0.37275419  0.49897017  0.76087955  1
  O  O279  1  0.88300307  -0.00400534  0.26339557  1
  O  O280  1  0.87732035  -0.00553003  0.76996093  1
  O  O281  1  0.86796874  0.50340467  0.25736513  1
  O  O282  1  0.87200815  0.50031164  0.75957924  1
  O  O283  1  0.11790858  0.36794719  0.36638284  1
  O  O284  1  0.15504197  0.35667077  0.87420906  1
  O  O285  1  0.12183709  0.86726131  0.37680267  1
  O  O286  1  0.10990826  0.87535825  0.88463628  1
  O  O287  1  0.61268756  0.37098947  0.36380041  1
  O  O288  1  0.61542785  0.36611754  0.87413746  1
  O  O289  1  0.62774516  0.86378668  0.38153718  1
  O  O290  1  0.63312050  0.85547674  0.88417091  1
  O  O291  1  0.38230765  0.12238655  0.12780018  1
  O  O292  1  0.37511821  0.13538985  0.63516870  1
  O  O293  1  0.36944723  0.64045682  0.12049642  1
  O  O294  1  0.38315957  0.63457044  0.62163763  1
  O  O295  1  0.86804753  0.13826118  0.12244216  1
  O  O296  1  0.88519022  0.13264416  0.61475718  1
  O  O297  1  0.88328684  0.63134113  0.13158004  1
  O  O298  1  0.88830422  0.63500780  0.62639641  1
  O  O299  1  0.25027539  0.25921005  0.11333266  1
  O  O300  1  0.25201221  0.26067926  0.61879326  1
  O  O301  1  0.25606186  0.75692607  0.11457728  1
  O  O302  1  0.26135040  0.74804626  0.62204446  1
  O  O303  1  0.75725421  0.25111562  0.11864193  1
  O  O304  1  0.75357500  0.25222882  0.61706868  1
  O  O305  1  0.75886870  0.75706153  0.12101117  1
  O  O306  1  0.76026062  0.74633303  0.62203856  1
  O  O307  1  0.24329521  0.24815472  0.38352584  1
  O  O308  1  0.21107840  0.28930241  0.87807226  1
  O  O309  1  0.24407636  0.74081447  0.36929463  1
  O  O310  1  0.25400550  0.74499578  0.87941481  1
  O  O311  1  0.74957119  0.24192374  0.38439933  1
  O  O312  1  0.73712056  0.25543815  0.88329796  1
  O  O313  1  0.74569641  0.74350956  0.38523781  1
  O  O314  1  0.74993336  0.73937465  0.88186639  1
  O  O315  1  0.00749645  0.11246057  -0.00104589  1
  O  O316  1  0.00931611  0.12266728  0.50862043  1
  O  O317  1  0.00994231  0.61844052  0.00362045  1
  O  O318  1  0.00736846  0.61782873  0.50681163  1
  O  O319  1  0.50567959  0.12115492  0.00644276  1
  O  O320  1  0.50545064  0.12074680  0.50113267  1
  O  O321  1  0.51284581  0.61329381  -0.00440222  1
  O  O322  1  0.50095892  0.60907888  0.51099127  1
  O  O323  1  0.50429272  0.38332572  0.48785181  1
  O  O324  1  0.49625596  0.38186747  0.99105795  1
  O  O325  1  0.49657794  0.88936143  0.49705786  1
  O  O326  1  0.49811175  0.89079572  1.00134242  1
  O  O327  1  1.00162108  0.38301368  0.49487071  1
  O  O328  1  1.00605424  0.38226097  0.99156408  1
  O  O329  1  0.99566813  0.87894745  0.49564419  1
  O  O330  1  0.99214749  0.87976465  0.99600754  1
  O  O331  1  0.49466440  0.49489106  0.38088665  1
  O  O332  1  0.49743898  0.49211969  0.87735454  1
  O  O333  1  0.48948970  1.00060538  0.38189043  1
  O  O334  1  0.49030029  1.00942418  0.88305370  1
  O  O335  1  0.99457406  0.49614915  0.38326589  1
  O  O336  1  0.99595340  0.49564456  0.88259041  1
  O  O337  1  0.99331157  0.99439438  0.38250518  1
  O  O338  1  0.98983189  0.99107646  0.88540696  1
  O  O339  1  0.01560072  -0.00932632  0.11514752  1
  O  O340  1  0.00348962  0.00593379  0.62175071  1
  O  O341  1  -0.00660495  0.50503689  0.11160381  1
  O  O342  1  -0.00646903  0.50973000  0.61736035  1
  O  O343  1  0.50388965  0.00834554  0.11407746  1
  O  O344  1  0.50229618  0.00764034  0.61451930  1
  O  O345  1  0.49387630  0.49744902  0.11355194  1
  O  O346  1  0.50631855  0.50351390  0.61974650  1
  O  O347  1  0.24076519  0.38233669  0.25035473  1
  O  O348  1  0.25286991  0.39273146  0.74028345  1
  O  O349  1  0.24782650  0.87175358  0.23412304  1
  O  O350  1  0.24552137  0.86641941  0.72827087  1
  O  O351  1  0.73926123  0.38282360  0.25326664  1
  O  O352  1  0.74920890  0.37946222  0.74215764  1
  O  O353  1  0.75806567  0.87014118  0.23656344  1
  O  O354  1  0.74030827  0.88844114  0.74849343  1
  O  O355  1  0.26255320  0.13382602  0.24608057  1
  O  O356  1  0.26051362  0.12961612  0.74623166  1
  O  O357  1  0.25115753  0.61665903  0.26201513  1
  O  O358  1  0.24635840  0.61535847  0.75837992  1
  O  O359  1  0.73967676  0.13225118  0.26497906  1
  O  O360  1  0.75448408  0.12229606  0.75039991  1
  O  O361  1  0.75664921  0.61722943  0.26074235  1
  O  O362  1  0.75536956  0.61665349  0.76140149  1
  O  O363  1  0.37066891  0.11782948  0.36378770  1
  O  O364  1  0.37393496  0.12271930  0.86102967  1
  O  O365  1  0.36692584  0.61825088  0.37831255  1
  O  O366  1  0.36558362  0.61705867  0.88194265  1
  O  O367  1  0.86507194  0.11426780  0.38179611  1
  O  O368  1  0.87849027  0.10880836  0.88452363  1
  O  O369  1  0.86818129  0.62007894  0.37087568  1
  O  O370  1  0.86768242  0.61358319  0.87833471  1
  O  O371  1  0.12147443  0.37255184  0.13938526  1
  O  O372  1  0.13455686  0.37536795  0.62317292  1
  O  O373  1  0.13407785  0.88439599  0.12437597  1
  O  O374  1  0.13403852  0.88548362  0.61831827  1
  O  O375  1  0.62499279  0.36941530  0.13905128  1
  O  O376  1  0.63047408  0.38464685  0.62705442  1
  O  O377  1  0.63660362  0.88255461  0.11584845  1
  O  O378  1  0.62388319  0.88947708  0.61755436  1
  O  O379  1  0.11516198  0.25694878  0.25414593  1
  O  O380  1  0.10846207  0.24721795  0.74350608  1
  O  O381  1  0.12167556  0.74879238  0.26298410  1
  O  O382  1  0.11242746  0.74672022  0.75143425  1
  O  O383  1  0.60999758  0.25554190  0.25028309  1
  O  O384  1  0.61609678  0.25039081  0.75712850  1
  O  O385  1  0.63264787  0.74773828  0.27099880  1
  O  O386  1  0.63073728  0.74678045  0.76865486  1
  O  O387  1  0.38408120  0.24301582  0.24669322  1
  O  O388  1  0.37392884  0.24371148  0.74558068  1
  O  O389  1  0.36911030  0.74756187  0.22996282  1
  O  O390  1  0.37930233  0.75397414  0.72992928  1
  O  O391  1  0.87850297  0.25189560  0.24032404  1
  O  O392  1  0.88213053  0.25239247  0.73748504  1
  O  O393  1  0.88304525  0.74303185  0.24779357  1
  O  O394  1  0.88272196  0.74926399  0.74221119  1
  O  O395  1  0.38409981  0.50039413  0.48900056  1
  O  O396  1  0.38612345  0.49446362  0.98814591  1
  O  O397  1  0.38234726  1.00807972  0.49079438  1
  O  O398  1  0.38048759  1.00382846  0.98421115  1
  O  O399  1  0.88735900  0.49844665  0.49551699  1
  O  O400  1  0.88718798  0.49758323  0.99229664  1
  O  O401  1  0.88183198  0.99304599  0.49633387  1
  O  O402  1  0.88212470  0.99206083  0.99807574  1
  O  O403  1  0.11861107  0.01032485  0.00642428  1
  O  O404  1  0.11796277  0.00960715  0.50674762  1
  O  O405  1  0.11808507  0.51051421  -0.00784243  1
  O  O406  1  0.11321564  0.51049173  0.49174242  1
  O  O407  1  0.61686056  0.00888578  0.00214672  1
  O  O408  1  0.61524452  0.00908824  0.50280866  1
  O  O409  1  0.61774285  0.50698745  -0.00263742  1
  O  O410  1  0.61788658  0.49419475  0.51027063  1
  O  O411  1  0.37961785  0.37133294  0.11232480  1
  O  O412  1  0.36641386  0.36314722  0.62834727  1
  O  O413  1  0.36454497  0.86808453  0.11619276  1
  O  O414  1  0.36192801  0.87141067  0.62163935  1
  O  O415  1  0.86922700  0.36163646  0.12088475  1
  O  O416  1  0.86827004  0.36406377  0.62112976  1
  O  O417  1  0.87200483  0.87187323  0.11749149  1
  O  O418  1  0.87702613  0.86434635  0.62185345  1
  O  O419  1  0.12562147  0.12876145  0.38515739  1
  O  O420  1  0.12103353  0.12012186  0.88643185  1
  O  O421  1  0.13338102  0.63210977  0.38182121  1
  O  O422  1  0.13816965  0.62996609  0.88516831  1
  O  O423  1  0.62985062  0.12485787  0.38414539  1
  O  O424  1  0.61337559  0.13637885  0.88429119  1
  O  O425  1  0.63986226  0.63096206  0.37772826  1
  O  O426  1  0.63915353  0.63000659  0.88321203  1
