# generated using pymatgen
data_V85Zn86O256
_symmetry_space_group_name_H-M   'P 1'
_cell_length_a   16.95312247
_cell_length_b   16.94974005
_cell_length_c   16.95665369
_cell_angle_alpha   89.99385644
_cell_angle_beta   89.97405212
_cell_angle_gamma   90.03670512
_symmetry_Int_Tables_number   1
_chemical_formula_structural   V85Zn86O256
_chemical_formula_sum   'V85 Zn86 O256'
_cell_volume   4872.51018983
_cell_formula_units_Z   1
loop_
 _symmetry_equiv_pos_site_id
 _symmetry_equiv_pos_as_xyz
  1  'x, y, z'
loop_
 _atom_site_type_symbol
 _atom_site_label
 _atom_site_symmetry_multiplicity
 _atom_site_fract_x
 _atom_site_fract_y
 _atom_site_fract_z
 _atom_site_occupancy
  V  V0  1  0.62368608  0.25455614  0.87439224  1
  V  V1  1  0.49595365  0.37298003  0.38313777  1
  V  V2  1  0.37790912  0.23598908  0.63100092  1
  V  V3  1  0.00542305  0.75844626  0.24759963  1
  V  V4  1  0.38155345  0.50216610  0.87533982  1
  V  V5  1  0.74696749  0.37459121  0.62245191  1
  V  V6  1  -0.00140801  0.12390093  0.62573499  1
  V  V7  1  0.75444060  0.50005370  0.25613251  1
  V  V8  1  0.87206721  0.88025928  -0.00541349  1
  V  V9  1  0.49448388  0.88442619  0.87422465  1
  V  V10  1  0.87331710  0.37437162  0.50120937  1
  V  V11  1  0.25385982  0.38091762  0.13032894  1
  V  V12  1  0.11677441  0.74857253  0.87001109  1
  V  V13  1  0.25779978  0.25419851  0.50318631  1
  V  V14  1  0.86860311  0.85973130  0.49957150  1
  V  V15  1  0.13065502  0.63092381  0.50050743  1
  V  V16  1  0.87309810  0.00038417  0.37634146  1
  V  V17  1  0.13157998  0.75929813  0.37278571  1
  V  V18  1  0.62291956  0.12043353  0.51393521  1
  V  V19  1  0.74776100  0.87577603  0.12293080  1
  V  V20  1  0.25396161  0.62755908  0.87227794  1
  V  V21  1  -0.00286114  0.63911495  0.62811178  1
  V  V22  1  0.12620136  0.25165881  0.37814201  1
  V  V23  1  0.74561756  0.85926629  0.61765053  1
  V  V24  1  0.87544341  0.12630473  0.24994651  1
  V  V25  1  0.00061081  0.24980821  0.24870811  1
  V  V26  1  0.62622912  0.37256903  0.25274969  1
  V  V27  1  0.50032752  0.12306279  0.11914442  1
  V  V28  1  0.12490042  0.62372803  -0.00211506  1
  V  V29  1  0.12900617  0.50111963  0.12616603  1
  V  V30  1  0.13042396  0.38060961  0.25219490  1
  V  V31  1  0.24804204  0.86948490  0.61985206  1
  V  V32  1  0.74725578  0.12720029  0.38050760  1
  V  V33  1  0.23559079  0.88163243  0.12645304  1
  V  V34  1  0.26038966  0.37537456  0.62479364  1
  V  V35  1  0.24174508  0.00089585  0.24797036  1
  V  V36  1  0.74963682  0.11724917  0.87399510  1
  V  V37  1  0.62827288  0.24916093  0.38429228  1
  V  V38  1  0.38148006  0.74546950  0.63069924  1
  V  V39  1  0.49742039  0.23494098  0.74908294  1
  V  V40  1  0.12728386  0.12043423  0.00491332  1
  V  V41  1  0.12631638  0.50160127  0.62725168  1
  V  V42  1  0.25898813  0.12040774  0.37610303  1
  V  V43  1  -0.00470463  -0.00045086  0.49956137  1
  V  V44  1  0.62102933  0.87530736  0.25484115  1
  V  V45  1  0.37879655  0.24836589  0.12902818  1
  V  V46  1  0.12266136  0.37475825  0.75559198  1
  V  V47  1  0.49646434  0.75144320  0.25785396  1
  V  V48  1  0.25585859  0.50254995  0.75195426  1
  V  V49  1  0.00380793  -0.00078329  0.00372932  1
  V  V50  1  0.87797840  0.62227198  0.25073930  1
  V  V51  1  0.62722860  0.50470947  0.12648669  1
  V  V52  1  0.11743623  0.87129715  0.74754993  1
  V  V53  1  -0.00038426  0.50004142  0.50212309  1
  V  V54  1  0.87044190  0.24981620  0.62263047  1
  V  V55  1  0.12215668  -0.00062877  0.62535870  1
  V  V56  1  0.61840227  0.00117065  0.11621414  1
  V  V57  1  0.74999751  0.62717700  0.87707013  1
  V  V58  1  -0.00585397  0.87963454  0.87043538  1
  V  V59  1  0.37483477  0.75097296  0.12314906  1
  V  V60  1  0.50392115  0.49904267  0.00084621  1
  V  V61  1  0.62715736  0.63160227  0.48621296  1
  V  V62  1  0.75625924  0.37024795  0.12170408  1
  V  V63  1  0.87443308  0.11511728  0.75329828  1
  V  V64  1  0.49793098  0.00307748  0.52020245  1
  V  V65  1  0.37901605  0.88834962  -0.00308233  1
  V  V66  1  0.87461766  0.75021549  0.12291298  1
  V  V67  1  0.25324168  0.62076767  0.36834289  1
  V  V68  1  -0.00111129  0.25294373  0.75505181  1
  V  V69  1  0.88244744  0.49091714  0.87325317  1
  V  V70  1  0.25260640  0.24824964  -0.00123726  1
  V  V71  1  0.74282818  -0.00244161  0.74045141  1
  V  V72  1  0.49275034  0.89029900  0.37165548  1
  V  V73  1  0.61728547  0.37735757  0.75097526  1
  V  V74  1  0.49180567  0.50319147  0.50033434  1
  V  V75  1  0.87874172  0.63854293  0.74699697  1
  V  V76  1  0.38072165  0.37557433  -0.00274408  1
  V  V77  1  0.37184914  0.87544970  0.49645933  1
  V  V78  1  0.00321268  0.62290967  0.12165423  1
  V  V79  1  0.74767732  0.00217384  0.24833401  1
  V  V80  1  0.25782813  0.00387230  0.75563456  1
  V  V81  1  0.61912391  0.87065842  0.74653054  1
  V  V82  1  0.12724782  0.24710335  0.87568345  1
  V  V83  1  0.12526215  0.12581013  0.50170094  1
  V  V84  1  0.62148813  0.51007392  0.62507419  1
  Zn  Zn85  1  0.00167043  0.87891500  0.37122457  1
  Zn  Zn86  1  0.50092684  0.24678565  0.25409129  1
  Zn  Zn87  1  0.62397458  0.12384055  -0.00436356  1
  Zn  Zn88  1  0.38087705  0.11387192  0.25702108  1
  Zn  Zn89  1  0.36454039  0.48445400  0.37057025  1
  Zn  Zn90  1  0.00014670  0.37704490  0.37520279  1
  Zn  Zn91  1  0.37234257  0.61507419  0.24497662  1
  Zn  Zn92  1  0.87391560  0.50277783  0.37936767  1
  Zn  Zn93  1  0.88544261  0.36551774  -0.00799906  1
  Zn  Zn94  1  0.74507375  0.74895268  0.00368083  1
  Zn  Zn95  1  0.48868086  0.71965948  0.75691871  1
  Zn  Zn96  1  0.77226445  0.67043693  0.40461430  1
  Zn  Zn97  1  0.00496310  0.11752570  0.12914732  1
  Zn  Zn98  1  0.49956289  0.62600414  0.12914379  1
  Zn  Zn99  1  0.61661777  0.74697904  0.87964130  1
  Zn  Zn100  1  0.27171663  0.11804207  0.87476734  1
  Zn  Zn101  1  0.75135146  0.50069253  0.75025590  1
  Zn  Zn102  1  0.75232486  0.24704995  -0.00232233  1
  Zn  Zn103  1  0.25077632  0.75341488  -0.00174293  1
  Zn  Zn104  1  0.62664899  0.62694139  0.00251088  1
  Zn  Zn105  1  0.87758879  0.24536055  0.11878729  1
  Zn  Zn106  1  0.00558272  0.48892902  -0.00512048  1
  Zn  Zn107  1  0.19003777  0.18899330  0.18959517  1
  Zn  Zn108  1  0.18910148  0.18635780  0.68773779  1
  Zn  Zn109  1  0.18982658  0.69137275  0.18750228  1
  Zn  Zn110  1  0.18988879  0.68847036  0.68696088  1
  Zn  Zn111  1  0.68636596  0.18712148  0.18923286  1
  Zn  Zn112  1  0.68837543  0.19030776  0.69119326  1
  Zn  Zn113  1  0.70315574  0.70539554  0.22545614  1
  Zn  Zn114  1  0.68615800  0.68737767  0.69152243  1
  Zn  Zn115  1  0.31277218  0.30691908  0.31368041  1
  Zn  Zn116  1  0.31548609  0.31148095  0.81392347  1
  Zn  Zn117  1  0.31169002  0.81658216  0.30916602  1
  Zn  Zn118  1  0.30909968  0.81641838  0.80998758  1
  Zn  Zn119  1  0.81318180  0.31178267  0.31514416  1
  Zn  Zn120  1  0.80707150  0.30933313  0.80763070  1
  Zn  Zn121  1  0.81645319  0.81784559  0.31015750  1
  Zn  Zn122  1  0.80744287  0.81216880  0.81126446  1
  Zn  Zn123  1  0.18664597  0.43888563  0.44096745  1
  Zn  Zn124  1  0.19082296  0.43572216  0.93942571  1
  Zn  Zn125  1  0.18876615  0.94249963  0.43652184  1
  Zn  Zn126  1  0.18745641  0.93525189  0.93723072  1
  Zn  Zn127  1  0.68492141  0.44259156  0.44136410  1
  Zn  Zn128  1  0.69400488  0.43855943  0.93663367  1
  Zn  Zn129  1  0.68302925  0.93905412  0.43898359  1
  Zn  Zn130  1  0.68399720  0.93639526  0.93228656  1
  Zn  Zn131  1  0.31060769  0.06287357  0.06421379  1
  Zn  Zn132  1  0.31073663  0.05853139  0.56546556  1
  Zn  Zn133  1  0.31249640  0.56502028  0.05981759  1
  Zn  Zn134  1  0.31220908  0.56406692  0.55959376  1
  Zn  Zn135  1  0.81340420  0.06205132  0.06152737  1
  Zn  Zn136  1  0.80962052  0.05786316  0.56392779  1
  Zn  Zn137  1  0.81508640  0.55863832  0.06083480  1
  Zn  Zn138  1  0.80918566  0.56446407  0.56659004  1
  Zn  Zn139  1  0.44008222  0.43803457  0.19179716  1
  Zn  Zn140  1  0.44113820  0.44344467  0.68878179  1
  Zn  Zn141  1  0.43003247  0.94104751  0.18557981  1
  Zn  Zn142  1  0.43473911  0.93113571  0.68893628  1
  Zn  Zn143  1  0.94251366  0.43587051  0.18385068  1
  Zn  Zn144  1  0.93718186  0.44243123  0.68882416  1
  Zn  Zn145  1  0.93549379  0.93947983  0.18417809  1
  Zn  Zn146  1  0.93120340  0.93118338  0.68201097  1
  Zn  Zn147  1  0.06566802  0.06376447  0.31530291  1
  Zn  Zn148  1  0.06539445  0.06087369  0.81482970  1
  Zn  Zn149  1  0.06479201  0.56492696  0.31396124  1
  Zn  Zn150  1  0.06126389  0.56362108  0.80995428  1
  Zn  Zn151  1  0.56201344  0.06400394  0.30947707  1
  Zn  Zn152  1  0.56226505  0.05943264  0.81186741  1
  Zn  Zn153  1  0.55802164  0.56139305  0.31299926  1
  Zn  Zn154  1  0.56319080  0.56296613  0.81184541  1
  Zn  Zn155  1  0.44051107  0.18815366  0.44414915  1
  Zn  Zn156  1  0.44013556  0.18623609  0.93658501  1
  Zn  Zn157  1  0.43935768  0.69302524  0.44227453  1
  Zn  Zn158  1  0.44049028  0.68997412  0.94034480  1
  Zn  Zn159  1  0.93784383  0.18871726  0.43666892  1
  Zn  Zn160  1  0.93790676  0.18446088  0.93712021  1
  Zn  Zn161  1  0.94866277  0.68730871  0.43424044  1
  Zn  Zn162  1  0.93549618  0.68711361  0.93663755  1
  Zn  Zn163  1  0.06439575  0.31173656  0.06342332  1
  Zn  Zn164  1  0.06467175  0.31324390  0.56867069  1
  Zn  Zn165  1  0.05933566  0.80815818  0.05483546  1
  Zn  Zn166  1  0.06010299  0.81552722  0.55592673  1
  Zn  Zn167  1  0.56559788  0.31186290  0.06261854  1
  Zn  Zn168  1  0.55919476  0.31242031  0.56552430  1
  Zn  Zn169  1  0.56065729  0.81132731  0.06333966  1
  Zn  Zn170  1  0.55870218  0.81186783  0.56229433  1
  O  O171  1  0.12537318  0.13364224  0.10930172  1
  O  O172  1  0.11809137  0.12035365  0.62090757  1
  O  O173  1  0.12491672  0.62139646  0.11894517  1
  O  O174  1  0.11915671  0.62254500  0.62003125  1
  O  O175  1  0.61878418  0.11810869  0.12524581  1
  O  O176  1  0.63098463  0.12920732  0.61171700  1
  O  O177  1  0.62876994  0.60794974  0.12944091  1
  O  O178  1  0.63139486  0.61317001  0.61962007  1
  O  O179  1  0.39057941  0.36764316  0.37248616  1
  O  O180  1  0.36652558  0.38649630  0.88946884  1
  O  O181  1  0.37912592  0.87336310  0.38512825  1
  O  O182  1  0.38114457  0.87077058  0.88595894  1
  O  O183  1  0.87771974  0.37592599  0.38942703  1
  O  O184  1  0.86672070  0.38800036  0.86886716  1
  O  O185  1  0.87359096  0.88420304  0.38220069  1
  O  O186  1  0.88353926  0.86665054  0.88145958  1
  O  O187  1  0.24760154  0.01291910  0.36906913  1
  O  O188  1  0.24427616  -0.00270241  0.85939523  1
  O  O189  1  0.25070033  0.51518583  0.38334415  1
  O  O190  1  0.25673764  0.50712628  0.86985862  1
  O  O191  1  0.75138988  0.00875354  0.36906257  1
  O  O192  1  0.74373068  0.00928237  0.86093439  1
  O  O193  1  0.75240943  0.49391951  0.36094624  1
  O  O194  1  0.76158576  0.51052424  0.87255158  1
  O  O195  1  0.24803051  0.48756834  0.12074695  1
  O  O196  1  0.24825424  0.49527333  0.63224705  1
  O  O197  1  0.24706135  0.98771116  0.12683736  1
  O  O198  1  0.24079134  0.99087322  0.63261865  1
  O  O199  1  0.74616826  0.48914757  0.13346663  1
  O  O200  1  0.74016281  0.49079015  0.62709566  1
  O  O201  1  0.74105426  0.99647901  0.12958632  1
  O  O202  1  0.74796544  0.99202132  0.63577822  1
  O  O203  1  0.01091665  0.36699827  0.25213273  1
  O  O204  1  0.01175890  0.36562753  0.74076172  1
  O  O205  1  -0.00677461  0.86262125  0.24912539  1
  O  O206  1  0.00708854  0.88103439  0.75512763  1
  O  O207  1  0.51504609  0.37388018  0.26089534  1
  O  O208  1  0.51408518  0.37312889  0.74669120  1
  O  O209  1  0.50094718  0.87433373  0.25477151  1
  O  O210  1  0.50394633  0.87461390  0.76102944  1
  O  O211  1  0.49732791  0.12878127  0.23907255  1
  O  O212  1  0.50805090  0.13683481  0.74509338  1
  O  O213  1  0.49762763  0.63814696  0.25069697  1
  O  O214  1  0.49269949  0.60956791  0.74338552  1
  O  O215  1  0.99608028  0.13284865  0.25190723  1
  O  O216  1  0.99265754  0.12975611  0.74638103  1
  O  O217  1  0.99472691  0.63059183  0.24362573  1
  O  O218  1  0.98884943  0.62298867  0.74238315  1
  O  O219  1  0.37438022  0.25976134  0.00845491  1
  O  O220  1  0.36434442  0.24766999  0.51221293  1
  O  O221  1  0.37186126  0.75675663  0.00961040  1
  O  O222  1  0.38430096  0.76869309  0.51161172  1
  O  O223  1  0.87035807  0.24954646  0.00081453  1
  O  O224  1  0.88446316  0.26019943  0.51330869  1
  O  O225  1  0.87501089  0.76126304  0.00632332  1
  O  O226  1  0.87043581  0.75960245  0.48296311  1
  O  O227  1  0.13455301  0.24556225  0.50069416  1
  O  O228  1  0.13113329  0.24408838  0.99176813  1
  O  O229  1  0.11498045  0.74126316  0.48367529  1
  O  O230  1  0.12910347  0.74334731  0.98616648  1
  O  O231  1  0.61615172  0.23442438  0.49337426  1
  O  O232  1  0.62896745  0.25107849  0.98682920  1
  O  O233  1  0.61143745  0.72945004  0.50324080  1
  O  O234  1  0.62701809  0.74466312  0.99948969  1
  O  O235  1  0.49426637  0.24540502  0.12830592  1
  O  O236  1  0.49159360  0.25477241  0.63809862  1
  O  O237  1  0.48819196  0.75073901  0.13298190  1
  O  O238  1  0.48481032  0.75779940  0.63303169  1
  O  O239  1  1.00178737  0.24627320  0.14017805  1
  O  O240  1  0.99327755  0.24412294  0.63562899  1
  O  O241  1  0.99735441  0.74356329  0.12978557  1
  O  O242  1  1.00271132  0.73810573  0.61931022  1
  O  O243  1  0.00776231  0.25191985  0.36743125  1
  O  O244  1  0.00909033  0.24497760  0.86154556  1
  O  O245  1  0.01191051  0.75264630  0.36380342  1
  O  O246  1  0.01023353  0.75934919  0.87792560  1
  O  O247  1  0.51053858  0.25532624  0.37663071  1
  O  O248  1  0.51338729  0.24876706  0.86080024  1
  O  O249  1  0.49232325  0.76483583  0.36374055  1
  O  O250  1  0.49788109  0.75756636  0.86860959  1
  O  O251  1  0.24572845  0.13173842  0.49668441  1
  O  O252  1  0.24370876  0.12933897  0.99603156  1
  O  O253  1  0.23482298  0.62453996  0.49404390  1
  O  O254  1  0.24286153  0.62654512  0.98770992  1
  O  O255  1  0.73442074  0.11384712  0.49090416  1
  O  O256  1  0.74879943  0.12293343  0.98636614  1
  O  O257  1  0.73694547  0.62066555  0.49824578  1
  O  O258  1  0.75177991  0.62603770  0.99120279  1
  O  O259  1  0.25960104  0.36959269  0.01059901  1
  O  O260  1  0.24344207  0.36528162  0.51188904  1
  O  O261  1  0.26033470  0.87493175  0.00682993  1
  O  O262  1  0.25923932  0.88687710  0.50893391  1
  O  O263  1  0.75485351  0.37384541  0.01194599  1
  O  O264  1  0.76052415  0.38172966  0.51069148  1
  O  O265  1  0.75748918  0.87561840  0.00228617  1
  O  O266  1  0.75062663  0.87839354  0.51034958  1
  O  O267  1  0.12072352  0.48761359  0.24566943  1
  O  O268  1  0.13331663  0.49264942  0.74831324  1
  O  O269  1  0.13902342  1.00644148  0.25117773  1
  O  O270  1  0.12690381  0.98887916  0.74359524  1
  O  O271  1  0.63325116  0.49126055  0.24626902  1
  O  O272  1  0.62816350  0.49177698  0.74154373  1
  O  O273  1  0.62817591  0.99367627  0.24004432  1
  O  O274  1  0.63134396  0.98394076  0.75270161  1
  O  O275  1  0.35456307  0.00268151  0.24311551  1
  O  O276  1  0.35610032  -0.00765334  0.74363686  1
  O  O277  1  0.38461807  0.50421285  0.26095089  1
  O  O278  1  0.36425662  0.48956278  0.76214481  1
  O  O279  1  0.86886174  0.00556919  0.25586548  1
  O  O280  1  0.86628826  0.00982634  0.74329209  1
  O  O281  1  0.87356920  0.50548152  0.25173394  1
  O  O282  1  0.87325882  0.50697934  0.76013731  1
  O  O283  1  0.12653725  0.37089189  0.36831788  1
  O  O284  1  0.13281754  0.36445764  0.86443940  1
  O  O285  1  0.12473292  0.86252063  0.38101368  1
  O  O286  1  0.11644885  0.86739898  0.86699587  1
  O  O287  1  0.62318802  0.36653697  0.37288326  1
  O  O288  1  0.63875251  0.36589103  0.86233681  1
  O  O289  1  0.61315852  0.88471344  0.36127525  1
  O  O290  1  0.61126149  0.87149255  0.86894671  1
  O  O291  1  0.38187197  0.13536872  0.12169049  1
  O  O292  1  0.36932540  0.13685263  0.62794208  1
  O  O293  1  0.37232808  0.63730357  0.12601043  1
  O  O294  1  0.36390956  0.64792665  0.61402361  1
  O  O295  1  0.87852445  0.12494294  0.13516267  1
  O  O296  1  0.87675967  0.13201565  0.63130872  1
  O  O297  1  0.88326253  0.62791923  0.13089932  1
  O  O298  1  0.88102241  0.61981100  0.63906651  1
  O  O299  1  0.25969893  0.25846509  0.11940664  1
  O  O300  1  0.25717888  0.25635909  0.62315685  1
  O  O301  1  0.25791236  0.76305928  0.12543156  1
  O  O302  1  0.25300584  0.76483782  0.62672573  1
  O  O303  1  0.74991332  0.25863022  0.12514008  1
  O  O304  1  0.76183094  0.25848747  0.63002205  1
  O  O305  1  0.75771877  0.75880915  0.13030638  1
  O  O306  1  0.74914536  0.76069814  0.62525365  1
  O  O307  1  0.24555276  0.24578948  0.38651721  1
  O  O308  1  0.24218819  0.24859535  0.87970134  1
  O  O309  1  0.23560871  0.74474718  0.36932722  1
  O  O310  1  0.24117591  0.74114506  0.87201818  1
  O  O311  1  0.74170100  0.23915525  0.37543930  1
  O  O312  1  0.73932731  0.23676366  0.86761881  1
  O  O313  1  0.73803712  0.74329849  0.33130538  1
  O  O314  1  0.74812436  0.73809302  0.87764083  1
  O  O315  1  0.00784554  0.11524385  -0.00130215  1
  O  O316  1  0.00399454  0.12081296  0.50587935  1
  O  O317  1  0.00818894  0.62337825  0.00468629  1
  O  O318  1  0.00678585  0.61787032  0.50776499  1
  O  O319  1  0.50552370  0.13271145  0.01468927  1
  O  O320  1  0.50786544  0.11231599  0.50124691  1
  O  O321  1  0.50288105  0.61124314  0.00678370  1
  O  O322  1  0.50835192  0.60955811  0.49144845  1
  O  O323  1  0.50906015  0.38567918  0.49138674  1
  O  O324  1  0.49033620  0.38460300  1.00757911  1
  O  O325  1  0.49701409  0.88924889  0.49283546  1
  O  O326  1  0.48803547  0.87141995  0.98895046  1
  O  O327  1  0.99361794  0.38428588  0.50587609  1
  O  O328  1  0.99798485  0.37623587  1.00401020  1
  O  O329  1  0.98573557  0.88134520  0.49810442  1
  O  O330  1  0.99339374  0.88045500  0.99101746  1
  O  O331  1  0.50371644  0.48873344  0.38718317  1
  O  O332  1  0.49089667  0.50205389  0.88785008  1
  O  O333  1  0.49581729  0.99327079  0.37490113  1
  O  O334  1  0.50010205  0.98407548  0.87320703  1
  O  O335  1  1.00073635  0.50011471  0.39069228  1
  O  O336  1  0.98684135  0.50241516  0.87266558  1
  O  O337  1  0.99311065  1.00009917  0.38108387  1
  O  O338  1  1.00335807  0.98718837  0.88337556  1
  O  O339  1  0.00085963  -0.00202915  0.10958170  1
  O  O340  1  0.00171546  0.00450749  0.61972419  1
  O  O341  1  0.01088023  0.50752053  0.12353742  1
  O  O342  1  0.00637978  0.50862663  0.61828429  1
  O  O343  1  0.50738867  0.01000855  0.13017453  1
  O  O344  1  0.50306742  -0.00555722  0.61820817  1
  O  O345  1  0.51054809  0.49919456  0.11965177  1
  O  O346  1  0.50772871  0.49148330  0.60841732  1
  O  O347  1  0.24208035  0.36689139  0.24183914  1
  O  O348  1  0.24253404  0.38228120  0.74484785  1
  O  O349  1  0.25050446  0.88149826  0.23360209  1
  O  O350  1  0.23653660  0.88375664  0.74178931  1
  O  O351  1  0.74424402  0.37954991  0.24541185  1
  O  O352  1  0.74066935  0.37491191  0.73613956  1
  O  O353  1  0.74015364  0.88412746  0.24249125  1
  O  O354  1  0.74388769  0.87828775  0.73943408  1
  O  O355  1  0.25253345  0.12269817  0.25966140  1
  O  O356  1  0.24075439  0.10748432  0.75041932  1
  O  O357  1  0.24974275  0.62678364  0.26458122  1
  O  O358  1  0.24382317  0.61231499  0.75852235  1
  O  O359  1  0.75373287  0.12136361  0.26054120  1
  O  O360  1  0.75458302  0.11675483  0.75244271  1
  O  O361  1  0.76686401  0.60989927  0.24029366  1
  O  O362  1  0.76301466  0.62423191  0.75599446  1
  O  O363  1  0.36299288  0.13652720  0.37574793  1
  O  O364  1  0.38031686  0.13142937  0.86591658  1
  O  O365  1  0.35503181  0.63651266  0.38259940  1
  O  O366  1  0.36398685  0.61420780  0.88361085  1
  O  O367  1  0.86483038  0.12181098  0.37331250  1
  O  O368  1  0.86470031  0.13106316  0.86058959  1
  O  O369  1  0.87722743  0.62418097  0.36434678  1
  O  O370  1  0.87161594  0.61893434  0.86407878  1
  O  O371  1  0.13643440  0.37862274  0.13308279  1
  O  O372  1  0.13600716  0.38004207  0.63629517  1
  O  O373  1  0.13815698  0.86866552  0.11356111  1
  O  O374  1  0.12747435  0.87750013  0.62828409  1
  O  O375  1  0.63303634  0.37995447  0.13549542  1
  O  O376  1  0.63184371  0.38039871  0.62850750  1
  O  O377  1  0.62605342  0.88459576  0.13119546  1
  O  O378  1  0.63573223  0.86988910  0.63047056  1
  O  O379  1  0.11974566  0.25842717  0.25637371  1
  O  O380  1  0.11954276  0.25502292  0.75515116  1
  O  O381  1  0.11655360  0.74449632  0.26149387  1
  O  O382  1  0.12913268  0.76054963  0.75727609  1
  O  O383  1  0.62668574  0.25885362  0.26271253  1
  O  O384  1  0.61514907  0.25666074  0.75173312  1
  O  O385  1  0.60665800  0.76747016  0.23657130  1
  O  O386  1  0.62207372  0.76162385  0.75342947  1
  O  O387  1  0.37707759  0.24890654  0.23656694  1
  O  O388  1  0.39104804  0.25652850  0.74683565  1
  O  O389  1  0.38145755  0.75218133  0.24036198  1
  O  O390  1  0.37049274  0.75628220  0.73514556  1
  O  O391  1  0.88570402  0.24504758  0.25333141  1
  O  O392  1  0.88205341  0.24307433  0.74163177  1
  O  O393  1  0.88688615  0.74082747  0.24244324  1
  O  O394  1  0.87546847  0.73732816  0.75291543  1
  O  O395  1  0.38819671  0.50329479  0.49560611  1
  O  O396  1  0.38277054  0.49390454  0.99636475  1
  O  O397  1  0.38912458  0.99278568  0.50877226  1
  O  O398  1  0.37393632  0.98694690  1.00274715  1
  O  O399  1  0.88325044  0.49332148  0.50374246  1
  O  O400  1  0.87818127  0.49829859  0.98305050  1
  O  O401  1  0.87715621  0.99457667  0.49434857  1
  O  O402  1  0.88340404  0.98737768  1.00077923  1
  O  O403  1  0.11783786  0.00995563  -0.00854228  1
  O  O404  1  0.11678923  0.00544840  0.50555596  1
  O  O405  1  0.12691415  0.50602383  0.00576373  1
  O  O406  1  0.11777943  0.50831188  0.50763282  1
  O  O407  1  0.62798437  0.00040295  0.01254769  1
  O  O408  1  0.61062406  0.01062639  0.49763798  1
  O  O409  1  0.61887496  0.49528072  0.00881064  1
  O  O410  1  0.61749158  0.50954961  0.50712667  1
  O  O411  1  0.37145075  0.36942539  0.11985742  1
  O  O412  1  0.36283331  0.37068733  0.63263769  1
  O  O413  1  0.37096963  0.86929611  0.11129257  1
  O  O414  1  0.36502191  0.86923002  0.61768748  1
  O  O415  1  0.86469128  0.37111945  0.12848448  1
  O  O416  1  0.86849698  0.37018015  0.62129949  1
  O  O417  1  0.86835900  0.87138547  0.11545982  1
  O  O418  1  0.85841303  0.87548236  0.61347846  1
  O  O419  1  0.13498830  0.13314675  0.38359600  1
  O  O420  1  0.12692291  0.13614849  0.88245789  1
  O  O421  1  0.13367553  0.63238848  0.38118608  1
  O  O422  1  0.13098987  0.63083444  0.87586450  1
  O  O423  1  0.63049261  0.13160222  0.37890549  1
  O  O424  1  0.63224840  0.13228869  0.87306741  1
  O  O425  1  0.62659176  0.62037917  0.38548540  1
  O  O426  1  0.63897606  0.62155429  0.87669596  1
