# generated using pymatgen
data_V85Zn86O256
_symmetry_space_group_name_H-M   'P 1'
_cell_length_a   16.95376683
_cell_length_b   16.96079528
_cell_length_c   16.96553218
_cell_angle_alpha   90.03686737
_cell_angle_beta   90.05695125
_cell_angle_gamma   90.00308009
_symmetry_Int_Tables_number   1
_chemical_formula_structural   V85Zn86O256
_chemical_formula_sum   'V85 Zn86 O256'
_cell_volume   4878.42463433
_cell_formula_units_Z   1
loop_
 _symmetry_equiv_pos_site_id
 _symmetry_equiv_pos_as_xyz
  1  'x, y, z'
loop_
 _atom_site_type_symbol
 _atom_site_label
 _atom_site_symmetry_multiplicity
 _atom_site_fract_x
 _atom_site_fract_y
 _atom_site_fract_z
 _atom_site_occupancy
  V  V0  1  0.50011675  0.75541937  0.75348953  1
  V  V1  1  0.76257830  0.00079323  0.75550135  1
  V  V2  1  0.00276710  0.62342940  0.62095663  1
  V  V3  1  0.86752904  0.61925331  0.74483962  1
  V  V4  1  0.12664010  0.87753014  0.75061120  1
  V  V5  1  0.50245847  0.62268716  0.62561719  1
  V  V6  1  0.74984144  0.75096405  0.49791542  1
  V  V7  1  0.00035855  0.74972774  0.25136992  1
  V  V8  1  0.50417007  0.36852750  0.37591867  1
  V  V9  1  0.36569338  0.37278628  0.00297085  1
  V  V10  1  0.62393677  0.62356680  -0.00022473  1
  V  V11  1  0.12678296  0.49772621  0.11925421  1
  V  V12  1  0.49857548  0.24698121  0.75128934  1
  V  V13  1  0.36732476  -0.01430770  0.87551006  1
  V  V14  1  0.75040751  0.13045684  0.37960271  1
  V  V15  1  0.87386353  0.87936557  -0.00700002  1
  V  V16  1  0.75285163  0.00213899  0.25029986  1
  V  V17  1  0.87013191  0.50076484  0.86884271  1
  V  V18  1  0.50006533  0.74835386  0.25004833  1
  V  V19  1  0.49685065  0.37505342  0.87458511  1
  V  V20  1  0.12592412  0.00358899  0.11840208  1
  V  V21  1  0.50030834  0.87580033  0.37620692  1
  V  V22  1  0.24696617  0.23639712  0.00132462  1
  V  V23  1  0.12819664  0.23413581  0.87539979  1
  V  V24  1  0.35930836  0.12028259  0.75958130  1
  V  V25  1  0.36589187  0.49903614  0.86958251  1
  V  V26  1  0.00183488  0.88119596  0.37567242  1
  V  V27  1  -0.00640523  0.12431109  0.62446241  1
  V  V28  1  0.49683996  0.49792642  0.00064995  1
  V  V29  1  0.50016295  -0.00051456  0.50263515  1
  V  V30  1  0.12663139  0.87069032  0.25373740  1
  V  V31  1  0.74894791  0.74871805  -0.00086143  1
  V  V32  1  0.37552786  0.37404303  0.50141846  1
  V  V33  1  0.00246418  0.37594373  0.87277216  1
  V  V34  1  0.37214160  0.50369356  0.36729623  1
  V  V35  1  0.25453472  0.87515322  0.11726063  1
  V  V36  1  0.74851418  0.87755480  0.12530828  1
  V  V37  1  0.75385389  0.37542366  0.12373140  1
  V  V38  1  0.75847336  0.50648327  0.24893606  1
  V  V39  1  0.12835211  0.50266435  0.63152908  1
  V  V40  1  0.00505720  0.12665545  0.11998311  1
  V  V41  1  0.25368304  0.00332155  0.24962434  1
  V  V42  1  0.00504403  0.62804414  0.12161891  1
  V  V43  1  0.62792005  0.62316098  0.50082958  1
  V  V44  1  0.62779090  0.13296409  0.50271350  1
  V  V45  1  0.24670331  0.13028324  0.37426332  1
  V  V46  1  0.12223678  0.00052264  0.62334090  1
  V  V47  1  0.24184904  0.25058383  0.49806361  1
  V  V48  1  0.12248984  0.37702778  0.26496064  1
  V  V49  1  0.38532521  0.14254245  0.23990944  1
  V  V50  1  0.13020716  0.63084091  0.48608232  1
  V  V51  1  0.12286389  0.74896592  0.88107827  1
  V  V52  1  0.62512895  0.24715534  0.87393759  1
  V  V53  1  0.24407956  0.62425789  0.88054092  1
  V  V54  1  0.36710959  0.62157396  0.74844814  1
  V  V55  1  0.50298412  0.49905101  0.50505495  1
  V  V56  1  0.00356320  0.50700132  -0.00351930  1
  V  V57  1  0.74683427  0.87675473  0.62754061  1
  V  V58  1  0.76245070  0.11903618  0.87548328  1
  V  V59  1  0.62071495  0.75457626  0.87527882  1
  V  V60  1  0.88009884  0.88354984  0.49952005  1
  V  V61  1  0.37184525  0.24743161  0.62652092  1
  V  V62  1  0.75955629  0.62695397  0.37044161  1
  V  V63  1  0.87502929  0.74572188  0.12789049  1
  V  V64  1  0.49445005  -0.02152619  -0.00358529  1
  V  V65  1  0.61170144  0.12556264  0.00462486  1
  V  V66  1  0.49866196  0.12373566  0.62767799  1
  V  V67  1  0.62469226  0.87703867  0.24985392  1
  V  V68  1  0.49662323  0.62026339  0.12981913  1
  V  V69  1  0.62415483  0.36751884  0.24960473  1
  V  V70  1  -0.00333564  0.00045303  -0.00664955  1
  V  V71  1  0.87957723  0.25091498  0.12301313  1
  V  V72  1  0.62575941  0.49941940  0.12391372  1
  V  V73  1  0.37331272  0.74986780  0.62380487  1
  V  V74  1  0.63461419  0.38438531  0.74841715  1
  V  V75  1  0.86933894  0.37681334  0.48849885  1
  V  V76  1  0.24938734  0.74895395  0.48600876  1
  V  V77  1  0.11887692  0.12276552  0.49744842  1
  V  V78  1  0.24810509  0.37966807  0.63117741  1
  V  V79  1  0.37511524  0.75179304  0.11729972  1
  V  V80  1  0.00676334  0.25290225  0.26255150  1
  V  V81  1  0.87804726  0.75076158  0.62482056  1
  V  V82  1  0.86230424  0.25828939  0.62136883  1
  V  V83  1  0.24917293  0.87862374  0.62552857  1
  V  V84  1  -0.00609738  0.24594036  0.74826916  1
  Zn  Zn85  1  0.66571657  0.48020067  0.61352444  1
  Zn  Zn86  1  0.88624712  0.50049430  0.36791315  1
  Zn  Zn87  1  0.75169384  0.24565960  0.00100039  1
  Zn  Zn88  1  0.37260735  0.87578209  0.49869126  1
  Zn  Zn89  1  0.62115310  0.88027359  0.75747510  1
  Zn  Zn90  1  0.24868475  0.75001850  0.00019213  1
  Zn  Zn91  1  0.87485147  0.37654867  -0.00295190  1
  Zn  Zn92  1  -0.00028318  0.75094163  0.75200707  1
  Zn  Zn93  1  0.87994779  0.00519541  0.37993967  1
  Zn  Zn94  1  0.01000307  0.48498928  0.48259429  1
  Zn  Zn95  1  0.35902716  0.63309125  0.25672484  1
  Zn  Zn96  1  0.24650066  0.50316054  0.25118967  1
  Zn  Zn97  1  0.62791274  0.25117278  0.37775239  1
  Zn  Zn98  1  0.12658383  0.37691048  0.74975984  1
  Zn  Zn99  1  0.62506441  0.00284461  0.63344162  1
  Zn  Zn100  1  0.37717030  0.00497209  0.37446508  1
  Zn  Zn101  1  0.62487068  0.74760241  0.37434255  1
  Zn  Zn102  1  0.74591404  0.61980067  0.87183821  1
  Zn  Zn103  1  0.87859438  0.12538559  0.25387380  1
  Zn  Zn104  1  -0.00479975  0.87783146  0.87072279  1
  Zn  Zn105  1  0.61413467  0.00754733  0.12943075  1
  Zn  Zn106  1  0.24626485  0.36976972  0.12691624  1
  Zn  Zn107  1  0.18809716  0.18995611  0.18740768  1
  Zn  Zn108  1  0.18229490  0.18999268  0.68657692  1
  Zn  Zn109  1  0.18847208  0.68493297  0.18785817  1
  Zn  Zn110  1  0.18682430  0.69318517  0.68628943  1
  Zn  Zn111  1  0.68895645  0.18688815  0.18818188  1
  Zn  Zn112  1  0.68629066  0.18438171  0.69347664  1
  Zn  Zn113  1  0.68536616  0.68860925  0.18710807  1
  Zn  Zn114  1  0.68670674  0.68427758  0.68505706  1
  Zn  Zn115  1  0.31055112  0.31783213  0.31439867  1
  Zn  Zn116  1  0.30999092  0.30814135  0.81432828  1
  Zn  Zn117  1  0.31768353  0.81741383  0.30675460  1
  Zn  Zn118  1  0.30866047  0.80834913  0.81042545  1
  Zn  Zn119  1  0.81387968  0.31169520  0.30782335  1
  Zn  Zn120  1  0.81400276  0.30944220  0.81055003  1
  Zn  Zn121  1  0.81454001  0.81466154  0.31342233  1
  Zn  Zn122  1  0.80753043  0.80760163  0.81136465  1
  Zn  Zn123  1  0.18946372  0.44357864  0.44488987  1
  Zn  Zn124  1  0.18618829  0.43525956  0.93513076  1
  Zn  Zn125  1  0.18736537  0.93986261  0.43782473  1
  Zn  Zn126  1  0.18610872  0.94056663  0.93488822  1
  Zn  Zn127  1  0.69350330  0.43868339  0.43379216  1
  Zn  Zn128  1  0.68682872  0.43497069  0.93728717  1
  Zn  Zn129  1  0.68736297  0.94207696  0.43889090  1
  Zn  Zn130  1  0.68571418  0.94051633  0.93944496  1
  Zn  Zn131  1  0.32094067  0.06165361  0.06219110  1
  Zn  Zn132  1  0.31143396  0.06275499  0.56404369  1
  Zn  Zn133  1  0.31299432  0.56340956  0.06312627  1
  Zn  Zn134  1  0.31273486  0.56249988  0.55853888  1
  Zn  Zn135  1  0.81148973  0.06433236  0.06312542  1
  Zn  Zn136  1  0.81108019  0.06414560  0.56703333  1
  Zn  Zn137  1  0.81631461  0.56317027  0.05908258  1
  Zn  Zn138  1  0.81684347  0.55666719  0.55312563  1
  Zn  Zn139  1  0.45234853  0.39642670  0.17401356  1
  Zn  Zn140  1  0.43919175  0.43438037  0.68915643  1
  Zn  Zn141  1  0.43780158  0.94056817  0.18429743  1
  Zn  Zn142  1  0.43315720  0.93915908  0.68966808  1
  Zn  Zn143  1  0.94280764  0.43722253  0.18826054  1
  Zn  Zn144  1  0.93723129  0.43735247  0.68161756  1
  Zn  Zn145  1  0.93643803  0.93605779  0.18413870  1
  Zn  Zn146  1  0.94059565  0.93919546  0.68691646  1
  Zn  Zn147  1  0.06557003  0.06290005  0.30834757  1
  Zn  Zn148  1  0.06081090  0.05959770  0.80588477  1
  Zn  Zn149  1  0.06304479  0.56680885  0.30595020  1
  Zn  Zn150  1  0.05835366  0.56676566  0.80834206  1
  Zn  Zn151  1  0.56402116  0.06510508  0.31488922  1
  Zn  Zn152  1  0.56025800  0.05775379  0.81617736  1
  Zn  Zn153  1  0.56553004  0.55838464  0.31305594  1
  Zn  Zn154  1  0.55725001  0.56496355  0.81403121  1
  Zn  Zn155  1  0.43396148  0.18581336  0.43610329  1
  Zn  Zn156  1  0.43200922  0.18858879  0.93796855  1
  Zn  Zn157  1  0.43730173  0.68736609  0.43862812  1
  Zn  Zn158  1  0.43723760  0.68499926  0.93675907  1
  Zn  Zn159  1  0.93224020  0.19133329  0.44257910  1
  Zn  Zn160  1  0.94221332  0.18897654  0.94001578  1
  Zn  Zn161  1  0.94251625  0.69248154  0.43662660  1
  Zn  Zn162  1  0.93627272  0.68921913  0.93548179  1
  Zn  Zn163  1  0.06550474  0.31436638  0.05840600  1
  Zn  Zn164  1  0.05758291  0.31306442  0.56034539  1
  Zn  Zn165  1  0.06315542  0.81810188  0.06279727  1
  Zn  Zn166  1  0.06430079  0.81112797  0.55836135  1
  Zn  Zn167  1  0.55910105  0.30551804  0.06137939  1
  Zn  Zn168  1  0.56351595  0.31185916  0.56739413  1
  Zn  Zn169  1  0.56330806  0.81048023  0.06567709  1
  Zn  Zn170  1  0.56223135  0.80939089  0.56351658  1
  O  O171  1  0.11688590  0.11461095  0.13068416  1
  O  O172  1  0.11868394  0.11849787  0.61821850  1
  O  O173  1  0.11228290  0.61577867  0.12510053  1
  O  O174  1  0.11900684  0.62124391  0.62354988  1
  O  O175  1  0.63159611  0.12694521  0.10772307  1
  O  O176  1  0.61829149  0.12470845  0.61957649  1
  O  O177  1  0.61809704  0.61887387  0.11917724  1
  O  O178  1  0.61740937  0.62349323  0.61677749  1
  O  O179  1  0.38523475  0.38168995  0.38214694  1
  O  O180  1  0.37519534  0.38242197  0.87727716  1
  O  O181  1  0.38884668  0.88111327  0.37592984  1
  O  O182  1  0.37335916  0.88647163  0.86352703  1
  O  O183  1  0.87298399  0.37159229  0.38472700  1
  O  O184  1  0.88527088  0.38111648  0.87281906  1
  O  O185  1  0.88208530  0.87833035  0.38390185  1
  O  O186  1  0.87353018  0.86658654  0.88901605  1
  O  O187  1  0.25120141  0.00849397  0.36560241  1
  O  O188  1  0.26784612  0.00102138  0.88544940  1
  O  O189  1  0.26961487  0.49325073  0.37923496  1
  O  O190  1  0.25755558  0.50671520  0.87493763  1
  O  O191  1  0.75138213  0.00821736  0.36561355  1
  O  O192  1  0.74803453  0.01146781  0.87244003  1
  O  O193  1  0.75498351  0.51029140  0.36465563  1
  O  O194  1  0.76600376  0.49992409  0.88284781  1
  O  O195  1  0.23443564  0.50023787  0.12052953  1
  O  O196  1  0.24260903  0.49012573  0.61743402  1
  O  O197  1  0.24513795  0.99584587  0.12963131  1
  O  O198  1  0.23939675  0.98867172  0.61848882  1
  O  O199  1  0.74870748  0.49487645  0.12880634  1
  O  O200  1  0.76241227  0.51929273  0.63977195  1
  O  O201  1  0.74633641  0.99631216  0.13415630  1
  O  O202  1  0.74934652  0.99261522  0.63526547  1
  O  O203  1  0.01068343  0.36349831  0.24745943  1
  O  O204  1  0.00094511  0.36568313  0.75688594  1
  O  O205  1  0.00802377  0.87008153  0.25205044  1
  O  O206  1  0.01041460  0.87388959  0.75154844  1
  O  O207  1  0.51601112  0.39222722  0.26893328  1
  O  O208  1  0.50444109  0.36597168  0.75718451  1
  O  O209  1  0.50416720  0.87281992  0.25720343  1
  O  O210  1  0.50174182  0.85931277  0.74108210  1
  O  O211  1  0.48313168  0.12225602  0.25958593  1
  O  O212  1  0.49553960  0.12979334  0.74555374  1
  O  O213  1  0.50259527  0.63049961  0.24482597  1
  O  O214  1  0.48953592  0.63252900  0.74478087  1
  O  O215  1  1.00325771  0.13767370  0.24032686  1
  O  O216  1  1.00358652  0.13418548  0.73805735  1
  O  O217  1  1.00514325  0.64093615  0.23719285  1
  O  O218  1  0.98954176  0.62929320  0.73615500  1
  O  O219  1  0.35686845  0.26020858  -0.01258329  1
  O  O220  1  0.36477316  0.25311607  0.50716412  1
  O  O221  1  0.37493845  0.74594907  0.01346738  1
  O  O222  1  0.36812922  0.75021886  0.50735371  1
  O  O223  1  0.87523715  0.25362881  0.01179617  1
  O  O224  1  0.87459519  0.26174601  0.51218501  1
  O  O225  1  0.86967348  0.75724421  0.00799261  1
  O  O226  1  0.87062942  0.75920842  0.50864077  1
  O  O227  1  0.13500667  0.24003384  0.50805777  1
  O  O228  1  0.13146511  0.25151560  0.98412481  1
  O  O229  1  0.13457682  0.73929317  0.50217980  1
  O  O230  1  0.12589937  0.75859546  0.98577220  1
  O  O231  1  0.62143032  0.23673534  0.50180522  1
  O  O232  1  0.62640024  0.24247585  0.99208798  1
  O  O233  1  0.63215765  0.74218807  0.49869025  1
  O  O234  1  0.62787620  0.74326681  0.99451961  1
  O  O235  1  0.49414987  0.29431681  0.14603423  1
  O  O236  1  0.49076489  0.24420988  0.63079262  1
  O  O237  1  0.49311221  0.74370937  0.13024993  1
  O  O238  1  0.49418088  0.74204216  0.63148524  1
  O  O239  1  0.99757609  0.24341034  0.12532309  1
  O  O240  1  0.99596307  0.24299037  0.63340625  1
  O  O241  1  0.99488829  0.74668440  0.12750428  1
  O  O242  1  0.99167818  0.74516122  0.62401187  1
  O  O243  1  -0.00164218  0.24357432  0.35988659  1
  O  O244  1  0.00718149  0.25512321  0.86977092  1
  O  O245  1  -0.00603734  0.76300857  0.35974443  1
  O  O246  1  0.00879241  0.75323263  0.87234731  1
  O  O247  1  0.50174744  0.26512116  0.38420674  1
  O  O248  1  0.50727657  0.25401638  0.87191064  1
  O  O249  1  0.50043390  0.75952452  0.37036003  1
  O  O250  1  0.50734615  0.74173165  0.86513466  1
  O  O251  1  0.24287172  0.13123390  0.49449689  1
  O  O252  1  0.25679286  0.13782056  1.00031659  1
  O  O253  1  0.23845619  0.63390073  0.50476542  1
  O  O254  1  0.25283224  0.62696866  0.98443971  1
  O  O255  1  0.73862327  0.11383177  0.49168095  1
  O  O256  1  0.73937939  0.12317930  0.98872642  1
  O  O257  1  0.74646729  0.63126773  0.49035009  1
  O  O258  1  0.74254123  0.63090739  1.00016067  1
  O  O259  1  0.25373814  0.36687473  -0.00350217  1
  O  O260  1  0.25378818  0.36707212  0.50805370  1
  O  O261  1  0.24494708  0.87598769  0.01513842  1
  O  O262  1  0.24900725  0.86840185  0.50755113  1
  O  O263  1  0.75199725  0.37184028  0.01252305  1
  O  O264  1  0.76725293  0.38430024  0.50223273  1
  O  O265  1  0.75488882  0.87138614  0.00551251  1
  O  O266  1  0.75791147  0.87227899  0.50748564  1
  O  O267  1  0.12025081  0.48757851  0.23927393  1
  O  O268  1  0.11981434  0.49891409  0.73541348  1
  O  O269  1  0.13534956  0.99394623  0.23965522  1
  O  O270  1  0.12331751  0.99005430  0.73751775  1
  O  O271  1  0.63802253  0.49161354  0.24340622  1
  O  O272  1  0.61868391  0.48478504  0.75831826  1
  O  O273  1  0.63333681  0.99675863  0.24828518  1
  O  O274  1  0.63494195  0.99622974  0.75212095  1
  O  O275  1  0.36205665  0.00678004  0.24883291  1
  O  O276  1  0.37946583  0.01186113  0.76226631  1
  O  O277  1  0.37696810  0.49178534  0.26561586  1
  O  O278  1  0.38161131  0.50920091  0.75908245  1
  O  O279  1  0.86362574  0.00101947  0.24902843  1
  O  O280  1  0.86283119  -0.00422184  0.74938753  1
  O  O281  1  0.86234572  0.49447611  0.24780737  1
  O  O282  1  0.88552536  0.50843140  0.75849301  1
  O  O283  1  0.12815962  0.38392598  0.36346038  1
  O  O284  1  0.11308067  0.37153431  0.87000687  1
  O  O285  1  0.11867446  0.88253250  0.36204165  1
  O  O286  1  0.12706483  0.86952229  0.86449362  1
  O  O287  1  0.62306312  0.37313504  0.36935169  1
  O  O288  1  0.61882117  0.36503073  0.87085905  1
  O  O289  1  0.61481200  0.87530374  0.37066185  1
  O  O290  1  0.63019175  0.85875545  0.87670884  1
  O  O291  1  0.37052210  0.12547318  0.14161357  1
  O  O292  1  0.37843160  0.12725699  0.63631594  1
  O  O293  1  0.38023723  0.63195490  0.12970805  1
  O  O294  1  0.37915378  0.62835003  0.63135164  1
  O  O295  1  0.88393384  0.13469025  0.12897962  1
  O  O296  1  0.88715119  0.13797153  0.61263967  1
  O  O297  1  0.88590813  0.63763932  0.11934465  1
  O  O298  1  0.88475119  0.63431245  0.62468329  1
  O  O299  1  0.23530281  0.25325373  0.10480368  1
  O  O300  1  0.25239217  0.25679740  0.61671661  1
  O  O301  1  0.25671227  0.75759586  0.12387793  1
  O  O302  1  0.25442556  0.75968156  0.61584519  1
  O  O303  1  0.76215954  0.25801125  0.12749721  1
  O  O304  1  0.76502045  0.24188557  0.63363032  1
  O  O305  1  0.75682745  0.75505165  0.12081260  1
  O  O306  1  0.75940376  0.75725597  0.62029634  1
  O  O307  1  0.25241332  0.24350715  0.38794097  1
  O  O308  1  0.23366839  0.25093643  0.87917713  1
  O  O309  1  0.25963962  0.75830624  0.38701314  1
  O  O310  1  0.24265637  0.74276045  0.87755043  1
  O  O311  1  0.75114511  0.23423556  0.36778526  1
  O  O312  1  0.74182565  0.23893410  0.87584050  1
  O  O313  1  0.74790060  0.74530062  0.37842323  1
  O  O314  1  0.74000535  0.74385270  0.88178713  1
  O  O315  1  -0.00508640  0.11565129  0.01200436  1
  O  O316  1  0.01197625  0.13502721  0.50762884  1
  O  O317  1  -0.00344647  0.61676480  0.00630849  1
  O  O318  1  0.01523584  0.63451533  0.50825500  1
  O  O319  1  0.51064462  0.13115565  -0.00010589  1
  O  O320  1  0.50509069  0.11833259  0.50544379  1
  O  O321  1  0.50332978  0.61704141  0.00772496  1
  O  O322  1  0.50694013  0.61710903  0.50450050  1
  O  O323  1  0.49753763  0.38151143  0.49776160  1
  O  O324  1  0.48746056  0.37862228  0.99136878  1
  O  O325  1  0.50057697  0.88162821  0.49431827  1
  O  O326  1  0.50377755  0.87981073  0.99478080  1
  O  O327  1  0.98315542  0.37478076  0.50581032  1
  O  O328  1  0.99789824  0.38349094  0.98810796  1
  O  O329  1  0.99312938  0.86736312  0.48743005  1
  O  O330  1  0.99039876  0.88417870  0.99996527  1
  O  O331  1  0.49623591  0.49186903  0.38918675  1
  O  O332  1  0.48734566  0.49587437  0.88110002  1
  O  O333  1  0.50074827  0.99262698  0.38523653  1
  O  O334  1  0.48915482  1.00370949  0.88892482  1
  O  O335  1  0.99755085  0.50814877  0.37217440  1
  O  O336  1  0.99532656  0.49523611  0.87872797  1
  O  O337  1  0.99762152  0.98681401  0.36356014  1
  O  O338  1  1.00659767  1.00042473  0.88921357  1
  O  O339  1  0.00715895  0.00724526  0.12098132  1
  O  O340  1  0.00906413  0.01167746  0.62755102  1
  O  O341  1  0.00369405  0.50815660  0.11677013  1
  O  O342  1  0.00799761  0.51173766  0.61934492  1
  O  O343  1  0.49907446  -0.00463981  0.10432558  1
  O  O344  1  0.50106491  0.00392079  0.61887590  1
  O  O345  1  0.50629473  0.49951493  0.11911540  1
  O  O346  1  0.49453215  0.50387901  0.61312766  1
  O  O347  1  0.23485361  0.37753999  0.24696943  1
  O  O348  1  0.24815661  0.36690347  0.73487583  1
  O  O349  1  0.24423210  0.88414464  0.24332244  1
  O  O350  1  0.23901200  0.86780979  0.73566342  1
  O  O351  1  0.74549414  0.38297061  0.24128812  1
  O  O352  1  0.73290058  0.37203206  0.75972082  1
  O  O353  1  0.74528861  0.88328145  0.24666164  1
  O  O354  1  0.74893395  0.88036851  0.74235486  1
  O  O355  1  0.25085483  0.12109561  0.25723038  1
  O  O356  1  0.26090111  0.12711442  0.74481084  1
  O  O357  1  0.24740918  0.61613335  0.25117717  1
  O  O358  1  0.26248638  0.63200317  0.75602878  1
  O  O359  1  0.75072502  0.11689313  0.25782871  1
  O  O360  1  0.74497104  0.11665406  0.76752616  1
  O  O361  1  0.74371758  0.61760959  0.25685730  1
  O  O362  1  0.76428954  0.63358725  0.75319731  1
  O  O363  1  0.36115301  0.12430303  0.36762126  1
  O  O364  1  0.37402651  0.12379066  0.86172839  1
  O  O365  1  0.38580998  0.60812505  0.37261906  1
  O  O366  1  0.36659526  0.61801743  0.86765250  1
  O  O367  1  0.86750624  0.12213898  0.37549250  1
  O  O368  1  0.86061214  0.13089158  0.88216091  1
  O  O369  1  0.86203526  0.62999831  0.37964564  1
  O  O370  1  0.87691184  0.61745123  0.86340098  1
  O  O371  1  0.12260206  0.38586433  0.12930804  1
  O  O372  1  0.13157429  0.38467686  0.62199787  1
  O  O373  1  0.13244382  0.88422212  0.13429456  1
  O  O374  1  0.12795869  0.88127271  0.62816334  1
  O  O375  1  0.63854354  0.38050507  0.13021350  1
  O  O376  1  0.62099632  0.37635016  0.64263393  1
  O  O377  1  0.63194293  0.87772211  0.13168074  1
  O  O378  1  0.63990047  0.87345936  0.62502196  1
  O  O379  1  0.11633264  0.26297117  0.24733988  1
  O  O380  1  0.11551021  0.25216576  0.76046583  1
  O  O381  1  0.11606136  0.76344977  0.23978835  1
  O  O382  1  0.12270034  0.76060768  0.75719740  1
  O  O383  1  0.63285993  0.26439131  0.25231671  1
  O  O384  1  0.61905108  0.25625198  0.75939235  1
  O  O385  1  0.61734359  0.75884429  0.25065194  1
  O  O386  1  0.61698727  0.74757951  0.75813044  1
  O  O387  1  0.36759711  0.24145473  0.25290776  1
  O  O388  1  0.37810534  0.23814560  0.74782847  1
  O  O389  1  0.38282642  0.74885942  0.24033466  1
  O  O390  1  0.38163226  0.74114181  0.74495058  1
  O  O391  1  0.89138369  0.25237129  0.23939370  1
  O  O392  1  0.88579150  0.25256970  0.73899652  1
  O  O393  1  0.88527393  0.76168360  0.23563797  1
  O  O394  1  0.87616091  0.74381631  0.73802222  1
  O  O395  1  0.38417694  0.49424857  0.49375922  1
  O  O396  1  0.37605926  0.49412852  0.98756879  1
  O  O397  1  0.38772935  1.00028351  0.49966763  1
  O  O398  1  0.38614014  0.99976224  0.98978145  1
  O  O399  1  0.88442580  0.48909948  0.49232297  1
  O  O400  1  0.88716399  0.49900811  0.98975073  1
  O  O401  1  0.87357504  0.98654015  0.50391817  1
  O  O402  1  0.88342804  0.99013859  1.00870507  1
  O  O403  1  0.11484612  -0.00759329  0.01250094  1
  O  O404  1  0.12714500  0.01107454  0.50959758  1
  O  O405  1  0.11198835  0.49467143  0.00480397  1
  O  O406  1  0.12525430  0.51590299  0.50920455  1
  O  O407  1  0.61034215  0.01178502  -0.00422103  1
  O  O408  1  0.61354359  0.00864007  0.50452131  1
  O  O409  1  0.61823379  0.50252014  0.00361713  1
  O  O410  1  0.61901403  0.50252555  0.50330754  1
  O  O411  1  0.36152182  0.39005955  0.10611059  1
  O  O412  1  0.36768637  0.36940202  0.62132843  1
  O  O413  1  0.36495952  0.86511084  0.13260131  1
  O  O414  1  0.36458805  0.87032990  0.62491259  1
  O  O415  1  0.86996913  0.36861069  0.12483353  1
  O  O416  1  0.87337157  0.36212098  0.62303857  1
  O  O417  1  0.86931853  0.86649554  0.11478976  1
  O  O418  1  0.86999287  0.86862285  0.61965358  1
  O  O419  1  0.13579992  0.11862247  0.38345586  1
  O  O420  1  0.11957464  0.13584324  0.87130796  1
  O  O421  1  0.12578172  0.62401613  0.38837344  1
  O  O422  1  0.13370150  0.63539811  0.86310124  1
  O  O423  1  0.63158791  0.12855486  0.38449974  1
  O  O424  1  0.62732356  0.13414993  0.88522702  1
  O  O425  1  0.63464277  0.62475996  0.38350098  1
  O  O426  1  0.62474521  0.63187048  0.88193112  1
