# generated using pymatgen
data_V85Zn86O256
_symmetry_space_group_name_H-M   'P 1'
_cell_length_a   16.97920666
_cell_length_b   16.96541778
_cell_length_c   16.96183828
_cell_angle_alpha   89.99848693
_cell_angle_beta   89.87566268
_cell_angle_gamma   90.09999342
_symmetry_Int_Tables_number   1
_chemical_formula_structural   V85Zn86O256
_chemical_formula_sum   'V85 Zn86 O256'
_cell_volume   4885.99690109
_cell_formula_units_Z   1
loop_
 _symmetry_equiv_pos_site_id
 _symmetry_equiv_pos_as_xyz
  1  'x, y, z'
loop_
 _atom_site_type_symbol
 _atom_site_label
 _atom_site_symmetry_multiplicity
 _atom_site_fract_x
 _atom_site_fract_y
 _atom_site_fract_z
 _atom_site_occupancy
  V  V0  1  0.37818686  0.49049137  0.37449870  1
  V  V1  1  0.74866263  0.87406936  0.62346445  1
  V  V2  1  0.00240260  0.13202471  0.62029534  1
  V  V3  1  0.24679426  0.12283513  0.37279091  1
  V  V4  1  0.00916328  0.00201302  0.50028225  1
  V  V5  1  0.89361240  0.74150082  0.13115084  1
  V  V6  1  -0.00195554  0.37427159  0.37937550  1
  V  V7  1  -0.00291661  -0.00419539  -0.00052437  1
  V  V8  1  0.62295654  0.12599090  0.50124893  1
  V  V9  1  0.49380574  0.62462184  0.62794056  1
  V  V10  1  0.24966127  0.74666736  0.49791515  1
  V  V11  1  0.49857685  0.25323497  0.25892141  1
  V  V12  1  0.37592334  0.87167569  0.49949929  1
  V  V13  1  0.12363221  0.87527208  0.75365123  1
  V  V14  1  0.49793968  -0.00598757  -0.00189862  1
  V  V15  1  0.37566538  0.62653757  0.24572962  1
  V  V16  1  -0.00928391  0.12457581  0.12918461  1
  V  V17  1  0.75069670  0.62670694  0.37096770  1
  V  V18  1  0.50459853  0.50057761  0.00222302  1
  V  V19  1  0.24706285  0.25048978  0.50626269  1
  V  V20  1  0.37425967  0.25067351  0.12588670  1
  V  V21  1  0.12452177  0.50677963  0.62451654  1
  V  V22  1  0.62428782  0.62749493  0.49958455  1
  V  V23  1  0.25527298  0.12656643  0.86973954  1
  V  V24  1  0.50074303  0.37511990  0.87380216  1
  V  V25  1  -0.00087518  0.50603941  0.50674061  1
  V  V26  1  0.75213008  0.12665439  0.87563210  1
  V  V27  1  0.37482011  0.50373368  0.86750230  1
  V  V28  1  0.12351934  0.12559840  -0.00034563  1
  V  V29  1  0.61853690  0.00166228  0.62492509  1
  V  V30  1  0.87280712  0.50322165  0.37568413  1
  V  V31  1  0.25277094  0.49746668  0.74343585  1
  V  V32  1  0.49652350  0.23866511  0.74581233  1
  V  V33  1  0.88288573  0.74626794  0.62463355  1
  V  V34  1  0.12169361  0.74950825  0.36755329  1
  V  V35  1  0.50740904  0.62055574  0.12395318  1
  V  V36  1  0.63069888  0.37476195  0.74852534  1
  V  V37  1  0.12782255  0.62186744  0.00787021  1
  V  V38  1  0.24842314  0.62222299  0.87384088  1
  V  V39  1  0.37682183  0.23253779  0.62724128  1
  V  V40  1  0.24928730  0.25074818  -0.00074624  1
  V  V41  1  0.49718405  0.00423733  0.50165508  1
  V  V42  1  0.50103781  0.12681627  0.12654008  1
  V  V43  1  0.62528819  0.12824203  0.00012526  1
  V  V44  1  0.12968822  0.37405313  0.74305407  1
  V  V45  1  0.75313195  0.25712096  -0.00005952  1
  V  V46  1  0.87464633  0.13144140  0.74482230  1
  V  V47  1  0.62134870  0.87266329  0.75779842  1
  V  V48  1  0.12418801  0.74787091  0.87852293  1
  V  V49  1  0.36982790  0.00020860  0.36809841  1
  V  V50  1  0.63959425  0.73870474  0.87785093  1
  V  V51  1  0.62504511  0.25333942  0.87483182  1
  V  V52  1  0.37789252  -0.00221129  0.87638188  1
  V  V53  1  0.24731074  0.49631717  0.24845625  1
  V  V54  1  -0.00814230  0.24755789  0.25316204  1
  V  V55  1  0.62464867  0.87615346  0.25064476  1
  V  V56  1  0.74696610  0.37629813  0.12679864  1
  V  V57  1  0.25668550  0.00333521  0.75010604  1
  V  V58  1  0.50069192  0.49278972  0.49620982  1
  V  V59  1  0.87464166  0.26021106  0.12313746  1
  V  V60  1  0.49614700  0.74688907  0.75690541  1
  V  V61  1  0.25872986  0.85541716  0.12325049  1
  V  V62  1  0.75122648  0.25357460  0.51243584  1
  V  V63  1  -0.00577501  0.37208384  0.87435636  1
  V  V64  1  0.75163698  0.86448872  0.11802336  1
  V  V65  1  0.24243940  0.37827278  0.12545469  1
  V  V66  1  0.24930608  0.87452300  0.62848623  1
  V  V67  1  0.37162558  0.37376177  0.50932281  1
  V  V68  1  0.87399438  0.88080964  0.49729364  1
  V  V69  1  0.37382780  0.37517233  -0.00144284  1
  V  V70  1  0.86906834  0.37202582  0.51622205  1
  V  V71  1  0.49608939  0.75071155  0.24401084  1
  V  V72  1  0.74986782  0.00119831  0.75112129  1
  V  V73  1  0.63123953  0.49493615  0.62488379  1
  V  V74  1  0.61948552  0.37602249  0.25663233  1
  V  V75  1  0.75353569  0.50624970  0.75113207  1
  V  V76  1  0.12282800  0.24465530  0.38192755  1
  V  V77  1  0.74446424  0.49912464  0.24900792  1
  V  V78  1  0.87729691  0.51060168  0.87860260  1
  V  V79  1  0.75574720  0.12737348  0.37273082  1
  V  V80  1  0.75493879  0.00517379  0.24838472  1
  V  V81  1  0.00456699  0.49463699  0.00479821  1
  V  V82  1  -0.00070779  0.87203980  0.36605434  1
  V  V83  1  0.13553004  0.00248747  0.13262849  1
  V  V84  1  0.12403077  0.25029493  0.87200900  1
  Zn  Zn85  1  0.13073658  0.87684312  0.24968234  1
  Zn  Zn86  1  0.00619771  0.73927026  0.74477110  1
  Zn  Zn87  1  -0.00467622  0.25260115  0.74450931  1
  Zn  Zn88  1  0.12682776  0.00386484  0.62504831  1
  Zn  Zn89  1  0.62158015  0.25466320  0.38000472  1
  Zn  Zn90  1  0.11817685  0.63039035  0.50487451  1
  Zn  Zn91  1  0.37116898  0.74419336  0.63586965  1
  Zn  Zn92  1  0.49908831  0.87300622  0.37349044  1
  Zn  Zn93  1  0.12186361  0.37709217  0.24915302  1
  Zn  Zn94  1  0.86797576  0.86429417  -0.00759872  1
  Zn  Zn95  1  0.74876133  0.75188754  0.49710502  1
  Zn  Zn96  1  0.87936996  0.00538813  0.36766220  1
  Zn  Zn97  1  0.36851108  0.12218808  0.24753080  1
  Zn  Zn98  1  0.62681943  0.00040373  0.12299636  1
  Zn  Zn99  1  0.01079495  0.62808580  0.14643860  1
  Zn  Zn100  1  0.64552769  0.63249033  0.00588738  1
  Zn  Zn101  1  0.62355792  0.75173849  0.37564764  1
  Zn  Zn102  1  0.88343008  0.62385049  0.74502551  1
  Zn  Zn103  1  0.37680206  0.86128413  0.00509565  1
  Zn  Zn104  1  0.24911633  0.62131855  0.37548308  1
  Zn  Zn105  1  -0.00330258  0.87246431  0.87473004  1
  Zn  Zn106  1  0.87597808  -0.00189407  0.87502327  1
  Zn  Zn107  1  0.18167863  0.19064859  0.19146848  1
  Zn  Zn108  1  0.18577247  0.18724499  0.68485907  1
  Zn  Zn109  1  0.19256201  0.68501329  0.18893977  1
  Zn  Zn110  1  0.18893348  0.68617703  0.69173769  1
  Zn  Zn111  1  0.68515880  0.19099728  0.18978255  1
  Zn  Zn112  1  0.68449084  0.18605045  0.68923182  1
  Zn  Zn113  1  0.68617623  0.68812829  0.19030166  1
  Zn  Zn114  1  0.68793837  0.68618535  0.68805773  1
  Zn  Zn115  1  0.31273901  0.31099202  0.31472633  1
  Zn  Zn116  1  0.31482362  0.31334744  0.80836413  1
  Zn  Zn117  1  0.30932710  0.81451935  0.30877479  1
  Zn  Zn118  1  0.33381037  0.78995798  0.85156258  1
  Zn  Zn119  1  0.81017344  0.31378891  0.31870090  1
  Zn  Zn120  1  0.81140349  0.31557817  0.80946525  1
  Zn  Zn121  1  0.81286733  0.81243966  0.30797972  1
  Zn  Zn122  1  0.81429704  0.81341750  0.81026556  1
  Zn  Zn123  1  0.18813505  0.43491619  0.43853576  1
  Zn  Zn124  1  0.18517610  0.43603582  0.93385092  1
  Zn  Zn125  1  0.18768064  0.93418230  0.43492235  1
  Zn  Zn126  1  0.18877219  0.93750682  0.94218750  1
  Zn  Zn127  1  0.68749675  0.43526544  0.43789185  1
  Zn  Zn128  1  0.71324625  0.47057085  0.96278992  1
  Zn  Zn129  1  0.68746625  0.94134825  0.43391236  1
  Zn  Zn130  1  0.68333411  0.93935531  0.93678402  1
  Zn  Zn131  1  0.31484348  0.06558154  0.05831456  1
  Zn  Zn132  1  0.30729227  0.06306284  0.55639352  1
  Zn  Zn133  1  0.31579895  0.56230796  0.06187229  1
  Zn  Zn134  1  0.31230267  0.56035926  0.56319095  1
  Zn  Zn135  1  0.81221247  0.06280405  0.06322066  1
  Zn  Zn136  1  0.81236252  0.06550377  0.56283099  1
  Zn  Zn137  1  0.82134743  0.56668575  0.06917315  1
  Zn  Zn138  1  0.81037760  0.56137900  0.55927092  1
  Zn  Zn139  1  0.43573374  0.43659334  0.18488511  1
  Zn  Zn140  1  0.44194855  0.43245514  0.68602863  1
  Zn  Zn141  1  0.43643339  0.93657936  0.18329456  1
  Zn  Zn142  1  0.43605519  0.93456902  0.69015264  1
  Zn  Zn143  1  0.95401114  0.46525756  0.20891925  1
  Zn  Zn144  1  0.94210254  0.43990668  0.69164160  1
  Zn  Zn145  1  0.93436304  0.93650411  0.18261009  1
  Zn  Zn146  1  0.93753984  0.94145217  0.68670397  1
  Zn  Zn147  1  0.06001258  0.06365809  0.31339321  1
  Zn  Zn148  1  0.06289873  0.06305679  0.81050496  1
  Zn  Zn149  1  0.06621059  0.56671067  0.32041578  1
  Zn  Zn150  1  0.06077702  0.56380540  0.81047650  1
  Zn  Zn151  1  0.56243339  0.06237604  0.31447839  1
  Zn  Zn152  1  0.56457392  0.06213048  0.81549829  1
  Zn  Zn153  1  0.56304169  0.56218864  0.31240199  1
  Zn  Zn154  1  0.56417405  0.56315583  0.81340278  1
  Zn  Zn155  1  0.43223669  0.18467470  0.43977518  1
  Zn  Zn156  1  0.43831789  0.18714844  0.93662155  1
  Zn  Zn157  1  0.43786064  0.68386751  0.43130931  1
  Zn  Zn158  1  0.44340631  0.68450502  0.94126423  1
  Zn  Zn159  1  0.93228334  0.18919886  0.44356721  1
  Zn  Zn160  1  0.93533859  0.18655981  0.93843036  1
  Zn  Zn161  1  0.93509658  0.69052370  0.43787052  1
  Zn  Zn162  1  0.94119850  0.68779065  0.94618686  1
  Zn  Zn163  1  0.06103211  0.31202146  0.06126856  1
  Zn  Zn164  1  0.06233174  0.31702373  0.56269710  1
  Zn  Zn165  1  0.06782134  0.81323698  0.06322887  1
  Zn  Zn166  1  0.06382038  0.81806350  0.55793804  1
  Zn  Zn167  1  0.56454303  0.31655618  0.06535957  1
  Zn  Zn168  1  0.55986843  0.31029253  0.56507395  1
  Zn  Zn169  1  0.56519178  0.80893402  0.06275723  1
  Zn  Zn170  1  0.55882515  0.81213114  0.56642776  1
  O  O171  1  0.11421166  0.11995238  0.12159757  1
  O  O172  1  0.10760866  0.12059514  0.63063682  1
  O  O173  1  0.12672683  0.62683145  0.11160410  1
  O  O174  1  0.12941481  0.61213057  0.62285946  1
  O  O175  1  0.61573138  0.12733901  0.11885641  1
  O  O176  1  0.63083829  0.11083375  0.61457246  1
  O  O177  1  0.61206975  0.62924281  0.12259907  1
  O  O178  1  0.61851018  0.61655954  0.61662455  1
  O  O179  1  0.37455327  0.38408434  0.38523060  1
  O  O180  1  0.38006378  0.38221528  0.87955846  1
  O  O181  1  0.37173208  0.88255274  0.38465574  1
  O  O182  1  0.36810707  0.89735938  0.87694868  1
  O  O183  1  0.88247091  0.38194530  0.38612897  1
  O  O184  1  0.88955961  0.38012524  0.86678689  1
  O  O185  1  0.88077941  0.87386515  0.38328155  1
  O  O186  1  0.87845906  0.87898511  0.87707929  1
  O  O187  1  0.25795757  0.00942928  0.38479425  1
  O  O188  1  0.25505121  0.00893265  0.86996368  1
  O  O189  1  0.26129735  0.49854326  0.36966178  1
  O  O190  1  0.25581470  0.50281634  0.86636325  1
  O  O191  1  0.75224817  0.00847703  0.36695831  1
  O  O192  1  0.74726569  0.00878030  0.86818455  1
  O  O193  1  0.75434244  0.50737473  0.37278120  1
  O  O194  1  0.77240258  0.48841010  0.86398535  1
  O  O195  1  0.25936824  0.48865055  0.13502829  1
  O  O196  1  0.24332400  0.50173453  0.63452677  1
  O  O197  1  0.23516689  1.01439461  0.12572611  1
  O  O198  1  0.24955574  0.99305655  0.63039997  1
  O  O199  1  0.76391562  0.48882654  0.14252257  1
  O  O200  1  0.73788381  0.50308631  0.63085601  1
  O  O201  1  0.74735128  0.99465730  0.13296772  1
  O  O202  1  0.74046950  0.99167233  0.62846219  1
  O  O203  1  0.00005659  0.37049587  0.26451524  1
  O  O204  1  0.01060554  0.37185158  0.75644542  1
  O  O205  1  -0.00062436  0.88257162  0.26374971  1
  O  O206  1  0.01493061  0.87765650  0.75009959  1
  O  O207  1  0.50770978  0.36544226  0.24073135  1
  O  O208  1  0.51012091  0.36865189  0.75514144  1
  O  O209  1  0.50681456  0.86810571  0.24724384  1
  O  O210  1  0.51195737  0.85991490  0.74006012  1
  O  O211  1  0.50107670  0.13272433  0.24033434  1
  O  O212  1  0.50692881  0.13970034  0.75402875  1
  O  O213  1  0.49596397  0.62900487  0.24356461  1
  O  O214  1  0.50897257  0.63617385  0.73951381  1
  O  O215  1  1.00301639  0.13620278  0.24143862  1
  O  O216  1  0.99245839  0.12498070  0.73936337  1
  O  O217  1  0.99394430  0.57055143  0.23931876  1
  O  O218  1  0.99752489  0.62606287  0.74417377  1
  O  O219  1  0.36873558  0.25528960  0.00424492  1
  O  O220  1  0.37048801  0.25587796  0.50762572  1
  O  O221  1  0.36767131  0.76040872  -0.04209346  1
  O  O222  1  0.36856742  0.75898781  0.49604101  1
  O  O223  1  0.86781476  0.24852651  0.01128377  1
  O  O224  1  0.86356692  0.26063783  0.49832448  1
  O  O225  1  0.88279270  0.75268262  0.01947471  1
  O  O226  1  0.87157830  0.76350946  0.50828759  1
  O  O227  1  0.13283026  0.25726345  0.49204611  1
  O  O228  1  0.13005428  0.24525498  0.99313103  1
  O  O229  1  0.13499484  0.75202086  0.49431457  1
  O  O230  1  0.11853644  0.73250908  0.99176277  1
  O  O231  1  0.62783338  0.24181794  0.50053765  1
  O  O232  1  0.63097511  0.24798434  0.99453945  1
  O  O233  1  0.62404883  0.73939152  0.50035704  1
  O  O234  1  0.62077465  0.74844338  0.98251176  1
  O  O235  1  0.49466702  0.24317058  0.13074923  1
  O  O236  1  0.48984048  0.25294882  0.63382042  1
  O  O237  1  0.50102559  0.74094241  0.13619115  1
  O  O238  1  0.49823671  0.74093529  0.63419981  1
  O  O239  1  0.99383735  0.24676924  0.13199021  1
  O  O240  1  1.00203113  0.23593124  0.62216365  1
  O  O241  1  0.99887685  0.74894379  0.13230795  1
  O  O242  1  0.98555900  0.75874666  0.62032832  1
  O  O243  1  0.00223644  0.25392275  0.37357577  1
  O  O244  1  0.00621570  0.25544937  0.87422752  1
  O  O245  1  0.00972096  0.76045585  0.38505246  1
  O  O246  1  0.01300677  0.75056536  0.87241025  1
  O  O247  1  0.49837055  0.24205238  0.36263290  1
  O  O248  1  0.50377804  0.25568774  0.86792665  1
  O  O249  1  0.50305517  0.75120803  0.36159597  1
  O  O250  1  0.51316795  0.74212407  0.85829232  1
  O  O251  1  0.25312359  0.13877001  0.48682889  1
  O  O252  1  0.24355287  0.13146978  0.99026845  1
  O  O253  1  0.25287483  0.63826511  0.49972926  1
  O  O254  1  0.23592214  0.61082368  0.99015214  1
  O  O255  1  0.74227334  0.13058355  0.49440284  1
  O  O256  1  0.74490805  0.13359899  0.99599420  1
  O  O257  1  0.73833831  0.62515899  0.49167905  1
  O  O258  1  0.74089617  0.57769337  0.99684070  1
  O  O259  1  0.25277212  0.37126717  0.00530580  1
  O  O260  1  0.25981615  0.36201867  0.49485184  1
  O  O261  1  0.25217980  0.88553138  0.02030098  1
  O  O262  1  0.25613986  0.86815457  0.50876955  1
  O  O263  1  0.74311278  0.37200430  0.01606375  1
  O  O264  1  0.75679037  0.36627667  0.49597467  1
  O  O265  1  0.74601183  0.88300073  0.01593293  1
  O  O266  1  0.75547964  0.87767098  0.50643949  1
  O  O267  1  0.14503233  0.49534203  0.26282537  1
  O  O268  1  0.13183915  0.49272412  0.74337078  1
  O  O269  1  0.11867151  1.00168457  0.23504340  1
  O  O270  1  0.13721528  0.99109461  0.75213496  1
  O  O271  1  0.63433787  0.49119509  0.25557154  1
  O  O272  1  0.63192795  0.49465990  0.74480045  1
  O  O273  1  0.63036164  0.99092046  0.24816738  1
  O  O274  1  0.62628475  0.99277828  0.74342659  1
  O  O275  1  0.38230834  0.00026290  0.26497419  1
  O  O276  1  0.36407014  -0.00255597  0.75561107  1
  O  O277  1  0.37094005  0.50300784  0.25813359  1
  O  O278  1  0.36716722  0.48912872  0.75761947  1
  O  O279  1  0.85988400  -0.00418397  0.24969725  1
  O  O280  1  0.86689905  0.00864725  0.75117002  1
  O  O281  1  0.85758156  0.48741985  0.27061108  1
  O  O282  1  0.87021656  0.50152345  0.75627239  1
  O  O283  1  0.11186345  0.36594697  0.37845287  1
  O  O284  1  0.11731186  0.37026613  0.86382502  1
  O  O285  1  0.11751956  0.86820620  0.37128318  1
  O  O286  1  0.12965889  0.86544925  0.86987116  1
  O  O287  1  0.62539736  0.37356020  0.36290065  1
  O  O288  1  0.61807153  0.36901418  0.86328604  1
  O  O289  1  0.62357068  0.87444640  0.36388325  1
  O  O290  1  0.62943797  0.86584652  0.86260520  1
  O  O291  1  0.38361006  0.13137788  0.12673565  1
  O  O292  1  0.37555573  0.13320795  0.61861039  1
  O  O293  1  0.38419161  0.61950328  0.13864766  1
  O  O294  1  0.38899774  0.62538016  0.62030506  1
  O  O295  1  0.88566610  0.13590836  0.12357389  1
  O  O296  1  0.88641686  0.11811099  0.63422590  1
  O  O297  1  0.88685582  0.63670161  0.12538322  1
  O  O298  1  0.86659184  0.64465807  0.61709334  1
  O  O299  1  0.25360927  0.25558615  0.11977067  1
  O  O300  1  0.25776667  0.24300269  0.61465862  1
  O  O301  1  0.24708545  0.75648756  0.11837542  1
  O  O302  1  0.25295540  0.75704374  0.61944424  1
  O  O303  1  0.75674988  0.25580957  0.12266307  1
  O  O304  1  0.74377216  0.24517040  0.61182094  1
  O  O305  1  0.74864113  0.76214594  0.12522995  1
  O  O306  1  0.75476387  0.76246440  0.62317618  1
  O  O307  1  0.24097803  0.24565573  0.38257346  1
  O  O308  1  0.24608204  0.24445254  0.87759791  1
  O  O309  1  0.24120549  0.75242297  0.38402170  1
  O  O310  1  0.23440999  0.73278902  0.86427583  1
  O  O311  1  0.74468021  0.24130762  0.38352485  1
  O  O312  1  0.74535902  0.24792107  0.88020463  1
  O  O313  1  0.74816662  0.73971368  0.37526087  1
  O  O314  1  0.73848446  0.74929297  0.86751232  1
  O  O315  1  0.00427232  0.11942853  0.00944748  1
  O  O316  1  -0.00882795  0.11629543  0.51220813  1
  O  O317  1  0.01277760  0.60954765  0.00249085  1
  O  O318  1  -0.00186918  0.60974618  0.49435605  1
  O  O319  1  0.50492098  0.12259605  0.00924932  1
  O  O320  1  0.50839305  0.11384180  0.49605936  1
  O  O321  1  0.49880065  0.61643841  0.00993790  1
  O  O322  1  0.50738165  0.61639615  0.50601866  1
  O  O323  1  0.49298402  0.38693329  0.50392485  1
  O  O324  1  0.49332421  0.37979556  0.99562562  1
  O  O325  1  0.49083542  0.88151525  0.49927944  1
  O  O326  1  0.49889340  0.89108473  1.01201311  1
  O  O327  1  0.99045249  0.38031319  0.49496904  1
  O  O328  1  1.01272098  0.38468351  0.98534405  1
  O  O329  1  0.99217474  0.88423187  0.49156964  1
  O  O330  1  1.00285427  0.88702162  1.00086440  1
  O  O331  1  0.49151406  0.50645434  0.38676206  1
  O  O332  1  0.49023810  0.49665975  0.87634747  1
  O  O333  1  0.49082687  0.99705896  0.38611738  1
  O  O334  1  0.49065010  1.01143396  0.88600620  1
  O  O335  1  0.99243171  0.49028258  0.38683473  1
  O  O336  1  0.99262290  0.49147479  0.87698863  1
  O  O337  1  0.99729257  0.99448281  0.38277896  1
  O  O338  1  1.00247590  1.00031487  0.88771017  1
  O  O339  1  0.00439164  0.00801436  0.11975329  1
  O  O340  1  0.00278157  0.00611421  0.61595473  1
  O  O341  1  -0.00590320  0.48350676  0.10274162  1
  O  O342  1  0.00992728  0.49525563  0.61548339  1
  O  O343  1  0.50013410  0.01269850  0.11856707  1
  O  O344  1  0.50889003  -0.00853340  0.61576663  1
  O  O345  1  0.49365480  0.50737590  0.11446575  1
  O  O346  1  0.50849976  0.50687892  0.61849545  1
  O  O347  1  0.25159205  0.37929579  0.24216419  1
  O  O348  1  0.23930934  0.38506933  0.75723551  1
  O  O349  1  0.24780903  0.87197242  0.23151514  1
  O  O350  1  0.24284003  0.88381625  0.74012863  1
  O  O351  1  0.74043405  0.37852362  0.24795505  1
  O  O352  1  0.73712306  0.38364115  0.75104493  1
  O  O353  1  0.74168107  0.88259928  0.24080739  1
  O  O354  1  0.74116202  0.88066856  0.74030782  1
  O  O355  1  0.25028103  0.13423761  0.26635223  1
  O  O356  1  0.24223947  0.11525535  0.75878207  1
  O  O357  1  0.26006964  0.61473829  0.25037432  1
  O  O358  1  0.24409008  0.60952661  0.76122012  1
  O  O359  1  0.73829277  0.11674889  0.26058208  1
  O  O360  1  0.75504843  0.12092885  0.75393520  1
  O  O361  1  0.74005239  0.61453406  0.26174678  1
  O  O362  1  0.75474211  0.61037905  0.74585824  1
  O  O363  1  0.36590035  0.11608349  0.37384774  1
  O  O364  1  0.36124735  0.11936885  0.87912427  1
  O  O365  1  0.37336906  0.61180210  0.36501622  1
  O  O366  1  0.36435248  0.61006478  0.87928867  1
  O  O367  1  0.86065957  0.12353005  0.38098510  1
  O  O368  1  0.86897173  0.12215576  0.86598313  1
  O  O369  1  0.86266622  0.61482586  0.38543196  1
  O  O370  1  0.88302122  0.61221396  0.87316349  1
  O  O371  1  0.13826995  0.36882393  0.12739864  1
  O  O372  1  0.12182744  0.38425915  0.63597136  1
  O  O373  1  0.13455828  0.88907440  0.12572258  1
  O  O374  1  0.13565244  0.87571279  0.63240908  1
  O  O375  1  0.63760023  0.36951780  0.13917883  1
  O  O376  1  0.61658064  0.38661092  0.63431353  1
  O  O377  1  0.63467843  0.87572718  0.13335763  1
  O  O378  1  0.63171760  0.88179722  0.63005665  1
  O  O379  1  0.11133165  0.25541172  0.26220214  1
  O  O380  1  0.12473036  0.25866312  0.75347254  1
  O  O381  1  0.12870892  0.74730258  0.26417921  1
  O  O382  1  0.12502355  0.75959879  0.75581695  1
  O  O383  1  0.61495530  0.25727291  0.25442091  1
  O  O384  1  0.61885623  0.25744631  0.75243215  1
  O  O385  1  0.61605664  0.75988601  0.25130727  1
  O  O386  1  0.62137677  0.75489064  0.75587642  1
  O  O387  1  0.38311644  0.24969821  0.24432442  1
  O  O388  1  0.38342922  0.25581453  0.73886474  1
  O  O389  1  0.38342454  0.73732437  0.25901671  1
  O  O390  1  0.39220896  0.75584666  0.75510486  1
  O  O391  1  0.88621882  0.25518106  0.24596474  1
  O  O392  1  0.87484700  0.23671493  0.75236681  1
  O  O393  1  0.87040931  0.75585155  0.22967407  1
  O  O394  1  0.87610686  0.75160166  0.73297040  1
  O  O395  1  0.38043539  0.49303134  0.49513670  1
  O  O396  1  0.38175886  0.49403686  0.98905451  1
  O  O397  1  0.38067588  0.99156070  0.49513115  1
  O  O398  1  0.38430009  1.00304498  0.99325021  1
  O  O399  1  0.87871279  0.49238740  0.49490877  1
  O  O400  1  0.89129171  0.50180084  0.98515658  1
  O  O401  1  0.88133817  0.99005590  0.50006539  1
  O  O402  1  0.88641310  0.99890079  1.00038363  1
  O  O403  1  0.11711488  0.00677316  0.01168049  1
  O  O404  1  0.11290395  -0.00686465  0.50161801  1
  O  O405  1  0.11463671  0.50876963  -0.00843886  1
  O  O406  1  0.11779538  0.49782346  0.50795696  1
  O  O407  1  0.61463290  0.00949193  -0.00017465  1
  O  O408  1  0.61683104  0.00421721  0.50589979  1
  O  O409  1  0.60310340  0.49657498  -0.01354694  1
  O  O410  1  0.61893501  0.50475698  0.50593936  1
  O  O411  1  0.36519635  0.36895206  0.11775805  1
  O  O412  1  0.37567034  0.37083982  0.61249207  1
  O  O413  1  0.36355552  0.87299727  0.12409935  1
  O  O414  1  0.36579231  0.87260198  0.61613015  1
  O  O415  1  0.86390383  0.36306717  0.13329686  1
  O  O416  1  0.87872647  0.38100395  0.61501604  1
  O  O417  1  0.86183120  0.86818022  0.12198004  1
  O  O418  1  0.86621778  0.87086978  0.61792956  1
  O  O419  1  0.12870921  0.13660092  0.37348971  1
  O  O420  1  0.13358864  0.13050112  0.87892300  1
  O  O421  1  0.12921726  0.63460320  0.38421567  1
  O  O422  1  0.13040870  0.62787559  0.88282475  1
  O  O423  1  0.63274077  0.12287005  0.38917196  1
  O  O424  1  0.63224097  0.13405902  0.87986372  1
  O  O425  1  0.63179164  0.62386349  0.38502577  1
  O  O426  1  0.62727451  0.63570670  0.87533197  1
