# generated using pymatgen
data_V85Zn86O256
_symmetry_space_group_name_H-M   'P 1'
_cell_length_a   16.96282096
_cell_length_b   16.96969194
_cell_length_c   16.94827236
_cell_angle_alpha   89.95695424
_cell_angle_beta   90.02829928
_cell_angle_gamma   90.05599838
_symmetry_Int_Tables_number   1
_chemical_formula_structural   V85Zn86O256
_chemical_formula_sum   'V85 Zn86 O256'
_cell_volume   4878.62108264
_cell_formula_units_Z   1
loop_
 _symmetry_equiv_pos_site_id
 _symmetry_equiv_pos_as_xyz
  1  'x, y, z'
loop_
 _atom_site_type_symbol
 _atom_site_label
 _atom_site_symmetry_multiplicity
 _atom_site_fract_x
 _atom_site_fract_y
 _atom_site_fract_z
 _atom_site_occupancy
  V  V0  1  0.87447591  0.87483414  0.49813851  1
  V  V1  1  0.87418511  0.49961686  0.37524665  1
  V  V2  1  0.62227456  0.00232002  0.62845996  1
  V  V3  1  0.00228743  0.24963581  0.74758450  1
  V  V4  1  -0.00198414  0.74960727  0.75166867  1
  V  V5  1  0.61776561  0.37469302  0.25535999  1
  V  V6  1  0.36643999  0.50186879  0.87501906  1
  V  V7  1  0.12531089  0.87313098  0.24894578  1
  V  V8  1  0.37321040  0.75292717  0.11888153  1
  V  V9  1  0.62418761  0.50230245  0.12384836  1
  V  V10  1  0.37117957  0.88105904  -0.00674465  1
  V  V11  1  0.62279322  0.75385110  0.37474868  1
  V  V12  1  0.24845256  0.87443111  0.11948423  1
  V  V13  1  0.74328133  0.24895460  -0.00671969  1
  V  V14  1  0.24998089  0.12249092  0.87734512  1
  V  V15  1  0.62150730  0.12619397  -0.00182275  1
  V  V16  1  0.49531469  0.87531404  0.37931202  1
  V  V17  1  0.74284974  -0.00800637  0.24914639  1
  V  V18  1  0.25814807  0.37014255  0.60455361  1
  V  V19  1  0.50091924  0.75726492  0.25218350  1
  V  V20  1  0.62228231  0.35942975  0.75394988  1
  V  V21  1  0.38441820  0.24902856  0.61664884  1
  V  V22  1  0.87528413  0.37504590  0.50146135  1
  V  V23  1  0.50340220  0.50191004  -0.00454165  1
  V  V24  1  0.38591048  0.13315417  0.75176834  1
  V  V25  1  0.12700115  0.49628151  0.12180312  1
  V  V26  1  0.50249078  0.87055123  0.87810342  1
  V  V27  1  0.25137474  0.75006594  0.50052120  1
  V  V28  1  0.00031046  0.87468103  0.37249920  1
  V  V29  1  -0.00091882  0.62401992  0.12228954  1
  V  V30  1  0.87301452  0.00009724  0.37433085  1
  V  V31  1  0.74882615  0.12488220  0.37542773  1
  V  V32  1  0.75080648  0.37990853  0.63108989  1
  V  V33  1  0.25665537  0.00119765  0.75384440  1
  V  V34  1  0.37950274  0.12672039  0.23961994  1
  V  V35  1  0.62583034  0.50005604  0.63263789  1
  V  V36  1  0.62028574  0.12390300  0.50464044  1
  V  V37  1  0.00781927  0.62433233  0.62026983  1
  V  V38  1  0.86827945  0.86923602  -0.00426716  1
  V  V39  1  0.01177253  0.50287049  0.50098556  1
  V  V40  1  0.62421962  0.86799105  0.75461309  1
  V  V41  1  0.49559964  0.00391613  0.00296619  1
  V  V42  1  0.75296299  -0.00023637  0.75809062  1
  V  V43  1  0.12236556  0.00154420  0.11929327  1
  V  V44  1  0.74955805  0.25064501  0.50085432  1
  V  V45  1  0.37181985  0.62732220  0.25471973  1
  V  V46  1  0.74852764  0.49933524  0.25094293  1
  V  V47  1  0.00239019  0.00148072  0.50112475  1
  V  V48  1  0.12701454  0.74164739  0.37784910  1
  V  V49  1  0.62020706  -0.00066588  0.12944596  1
  V  V50  1  0.00087686  0.37705103  0.87307974  1
  V  V51  1  0.12723403  0.87701828  0.74618772  1
  V  V52  1  0.87611620  0.74953365  0.62303251  1
  V  V53  1  0.00084126  0.37425965  0.37439139  1
  V  V54  1  0.12872556  0.13194675  0.50004139  1
  V  V55  1  0.26850985  0.24835911  0.00460095  1
  V  V56  1  0.86377782  0.50045323  0.86785954  1
  V  V57  1  0.74757148  0.37423335  0.12502630  1
  V  V58  1  0.61487166  0.25168589  0.37528390  1
  V  V59  1  0.74157568  0.64342459  0.87356537  1
  V  V60  1  0.49953394  0.62362699  0.62719989  1
  V  V61  1  0.87299206  0.62334088  0.24949706  1
  V  V62  1  0.49770847  0.48521353  0.49970415  1
  V  V63  1  0.37603946  0.75707814  0.62290497  1
  V  V64  1  0.50172591  0.62748207  0.12358313  1
  V  V65  1  0.00328872  0.12581449  0.12216486  1
  V  V66  1  0.49953052  0.36756794  0.87304042  1
  V  V67  1  0.49870006  0.24664527  0.23318944  1
  V  V68  1  0.12587462  0.24773545  0.88466727  1
  V  V69  1  0.37245525  -0.00139630  0.38088202  1
  V  V70  1  -0.00954570  0.00303672  -0.00671680  1
  V  V71  1  0.35908939  0.62062002  0.75231393  1
  V  V72  1  0.13918133  0.38059748  0.74917351  1
  V  V73  1  0.49615897  -0.00134635  0.50537839  1
  V  V74  1  0.87664170  0.12061952  0.75608103  1
  V  V75  1  -0.00036407  0.74839808  0.24782693  1
  V  V76  1  0.25098599  0.13272587  0.37910725  1
  V  V77  1  0.12521006  0.37097170  0.24849030  1
  V  V78  1  0.13451738  0.74804816  0.88119753  1
  V  V79  1  -0.00045354  0.50243201  -0.00452870  1
  V  V80  1  0.87280323  0.12383296  0.24920218  1
  V  V81  1  0.87266364  0.24982431  0.12420773  1
  V  V82  1  0.74820641  0.74861923  0.50010862  1
  V  V83  1  0.38102629  0.48740606  0.37780954  1
  V  V84  1  0.26504590  0.36925763  0.12232404  1
  Zn  Zn85  1  0.73854152  0.86600694  0.11790310  1
  Zn  Zn86  1  0.25886444  0.88193430  0.61661457  1
  Zn  Zn87  1  -0.00020783  0.24817475  0.25150822  1
  Zn  Zn88  1  0.86650440  0.74811509  0.11943340  1
  Zn  Zn89  1  0.63017361  0.65172888  -0.00496283  1
  Zn  Zn90  1  0.74854486  0.12611148  0.87526907  1
  Zn  Zn91  1  0.25369011  0.49664428  0.25100589  1
  Zn  Zn92  1  0.12808642  0.25256785  0.37772522  1
  Zn  Zn93  1  0.74909098  0.87460866  0.62645212  1
  Zn  Zn94  1  0.50235488  0.74490340  0.75657747  1
  Zn  Zn95  1  -0.00412800  0.88112195  0.87071998  1
  Zn  Zn96  1  0.87445724  0.24888732  0.62591839  1
  Zn  Zn97  1  0.24985674  0.00259226  0.25014363  1
  Zn  Zn98  1  0.86869742  0.61858199  0.74427138  1
  Zn  Zn99  1  0.12951637  0.00359962  0.62445988  1
  Zn  Zn100  1  0.62322165  0.62239687  0.50053042  1
  Zn  Zn101  1  0.74615417  0.62387238  0.37459013  1
  Zn  Zn102  1  0.87132641  0.37500212  -0.00208177  1
  Zn  Zn103  1  0.14290390  0.50938780  0.62719039  1
  Zn  Zn104  1  0.24732911  0.62054106  0.38394225  1
  Zn  Zn105  1  0.16493622  0.60892032  -0.02970477  1
  Zn  Zn106  1  0.00125821  0.12589339  0.62442308  1
  Zn  Zn107  1  0.19151811  0.18598147  0.18788570  1
  Zn  Zn108  1  0.19211058  0.19011467  0.68587648  1
  Zn  Zn109  1  0.20688335  0.66715802  0.14864831  1
  Zn  Zn110  1  0.18767186  0.69408639  0.68732290  1
  Zn  Zn111  1  0.68450656  0.18275760  0.18476219  1
  Zn  Zn112  1  0.68961207  0.18630727  0.68757391  1
  Zn  Zn113  1  0.68495868  0.68856824  0.18635749  1
  Zn  Zn114  1  0.69033551  0.68351060  0.68993190  1
  Zn  Zn115  1  0.31426521  0.30976436  0.30810988  1
  Zn  Zn116  1  0.31795100  0.30986486  0.81586444  1
  Zn  Zn117  1  0.30918718  0.81355892  0.31182334  1
  Zn  Zn118  1  0.31395641  0.80999439  0.81017460  1
  Zn  Zn119  1  0.80946924  0.31231406  0.31347920  1
  Zn  Zn120  1  0.81483051  0.31361588  0.81024132  1
  Zn  Zn121  1  0.81113728  0.80854057  0.30808270  1
  Zn  Zn122  1  0.81442193  0.81777052  0.81312844  1
  Zn  Zn123  1  0.19266155  0.43724885  0.43384995  1
  Zn  Zn124  1  0.18914112  0.42764900  0.94070492  1
  Zn  Zn125  1  0.18945233  0.93644502  0.43782045  1
  Zn  Zn126  1  0.18148890  0.93601866  0.93463606  1
  Zn  Zn127  1  0.68547886  0.43788444  0.44132715  1
  Zn  Zn128  1  0.68340235  0.43659696  0.93828728  1
  Zn  Zn129  1  0.68489997  0.93547643  0.43647196  1
  Zn  Zn130  1  0.68207760  0.93504607  0.93992731  1
  Zn  Zn131  1  0.30776120  0.06119003  0.05977927  1
  Zn  Zn132  1  0.31263775  0.06884261  0.56788581  1
  Zn  Zn133  1  0.31859286  0.55699464  0.06127456  1
  Zn  Zn134  1  0.31280919  0.56217535  0.56117469  1
  Zn  Zn135  1  0.80753449  0.06083027  0.06371558  1
  Zn  Zn136  1  0.81201741  0.06358617  0.56835537  1
  Zn  Zn137  1  0.81009730  0.56377691  0.05636885  1
  Zn  Zn138  1  0.81573884  0.56243387  0.56111299  1
  Zn  Zn139  1  0.44253018  0.44045670  0.19106045  1
  Zn  Zn140  1  0.43558488  0.43528619  0.68988682  1
  Zn  Zn141  1  0.43750626  0.94050317  0.18842812  1
  Zn  Zn142  1  0.43952551  0.94257294  0.69460958  1
  Zn  Zn143  1  0.93679846  0.43640591  0.18686434  1
  Zn  Zn144  1  0.94290316  0.43699393  0.68608208  1
  Zn  Zn145  1  0.93310210  0.93670548  0.18298657  1
  Zn  Zn146  1  0.93657406  0.93649837  0.68521498  1
  Zn  Zn147  1  0.06278480  0.06298407  0.31133551  1
  Zn  Zn148  1  0.06794899  0.06561801  0.81167468  1
  Zn  Zn149  1  0.06188010  0.55925764  0.30787211  1
  Zn  Zn150  1  0.06208183  0.56521096  0.80749288  1
  Zn  Zn151  1  0.55980893  0.06417527  0.31471984  1
  Zn  Zn152  1  0.56286388  0.05603347  0.82105205  1
  Zn  Zn153  1  0.55966318  0.56637154  0.31375525  1
  Zn  Zn154  1  0.56391723  0.56052869  0.81194517  1
  Zn  Zn155  1  0.43599240  0.18567845  0.43573210  1
  Zn  Zn156  1  0.43788334  0.18201735  0.93474863  1
  Zn  Zn157  1  0.43528442  0.68339192  0.44271430  1
  Zn  Zn158  1  0.43710781  0.68660967  0.93767623  1
  Zn  Zn159  1  0.93880839  0.18917656  0.43695090  1
  Zn  Zn160  1  0.93618119  0.18807400  0.93703557  1
  Zn  Zn161  1  0.93844545  0.68555155  0.43562803  1
  Zn  Zn162  1  0.93532538  0.68601471  0.93401716  1
  Zn  Zn163  1  0.06062561  0.31391647  0.06200640  1
  Zn  Zn164  1  0.06654648  0.31590995  0.56428027  1
  Zn  Zn165  1  0.05598374  0.81472311  0.06001960  1
  Zn  Zn166  1  0.06520449  0.81236707  0.56069133  1
  Zn  Zn167  1  0.56169586  0.31643706  0.05806485  1
  Zn  Zn168  1  0.56337716  0.30916721  0.56759303  1
  Zn  Zn169  1  0.56022255  0.81662186  0.06482520  1
  Zn  Zn170  1  0.56089720  0.81424250  0.56529537  1
  O  O171  1  0.11455933  0.11454667  0.13416199  1
  O  O172  1  0.12412980  0.12425000  0.61530648  1
  O  O173  1  0.10905698  0.60704717  0.13480158  1
  O  O174  1  0.11316693  0.62359933  0.63279522  1
  O  O175  1  0.62811847  0.11308033  0.11204309  1
  O  O176  1  0.62910027  0.11614021  0.61514162  1
  O  O177  1  0.61698802  0.61759723  0.12716907  1
  O  O178  1  0.61775222  0.61669709  0.62550878  1
  O  O179  1  0.37483932  0.38895217  0.36681170  1
  O  O180  1  0.38941711  0.39160477  0.86239406  1
  O  O181  1  0.38152237  0.88772659  0.37120654  1
  O  O182  1  0.37849778  0.87021889  0.88773164  1
  O  O183  1  0.87968165  0.37988937  0.37992351  1
  O  O184  1  0.88256894  0.38480173  0.87529453  1
  O  O185  1  0.88098529  0.87982618  0.37858177  1
  O  O186  1  0.87997403  0.87597972  0.88848948  1
  O  O187  1  0.25867411  0.00692952  0.37343099  1
  O  O188  1  0.24069231  0.01130185  0.86832147  1
  O  O189  1  0.26458595  0.50382619  0.37272024  1
  O  O190  1  0.26725855  0.49662965  0.88789276  1
  O  O191  1  0.75213057  0.00567968  0.37081439  1
  O  O192  1  0.74272680  0.00104903  0.86030381  1
  O  O193  1  0.75478612  0.49988461  0.37017030  1
  O  O194  1  0.76373732  0.49197429  0.87421779  1
  O  O195  1  0.24154045  0.48583821  0.12345760  1
  O  O196  1  0.25431771  0.47992758  0.61754303  1
  O  O197  1  0.23889278  0.99307881  0.12750119  1
  O  O198  1  0.24922271  0.99813002  0.63593029  1
  O  O199  1  0.74458400  0.49478597  0.13003398  1
  O  O200  1  0.74104830  0.48924909  0.61717718  1
  O  O201  1  0.74151408  0.99764233  0.13498812  1
  O  O202  1  0.73836345  0.99769833  0.63309703  1
  O  O203  1  0.00874762  0.37481640  0.25440151  1
  O  O204  1  0.00962876  0.36588068  0.75360112  1
  O  O205  1  0.00534817  0.87053419  0.25205078  1
  O  O206  1  0.00763256  0.86861839  0.74866133  1
  O  O207  1  0.51161262  0.36556957  0.24710655  1
  O  O208  1  0.51220928  0.37858246  0.75956346  1
  O  O209  1  0.49231333  0.86565027  0.26200551  1
  O  O210  1  0.50703029  0.87702350  0.76149322  1
  O  O211  1  0.48765987  0.13104600  0.25339654  1
  O  O212  1  0.48370608  0.11605789  0.76212418  1
  O  O213  1  0.49046835  0.63561489  0.24574590  1
  O  O214  1  0.49681869  0.62468605  0.73853068  1
  O  O215  1  0.99216873  0.12503429  0.23961619  1
  O  O216  1  0.99596893  0.13256468  0.74949613  1
  O  O217  1  0.99229193  0.62592751  0.24084967  1
  O  O218  1  0.99494122  0.63444436  0.73993409  1
  O  O219  1  0.36677235  0.24875539  0.00017225  1
  O  O220  1  0.37686504  0.23754563  0.51668433  1
  O  O221  1  0.38040651  0.75972897  0.01373414  1
  O  O222  1  0.36921025  0.74658701  0.51371594  1
  O  O223  1  0.86691799  0.25089531  0.01024479  1
  O  O224  1  0.86863327  0.25663709  0.50170113  1
  O  O225  1  0.88326416  0.76450808  0.00054396  1
  O  O226  1  0.86788130  0.75459470  0.50095904  1
  O  O227  1  0.11764259  0.23632997  0.49722680  1
  O  O228  1  0.12474254  0.25431306  0.98716469  1
  O  O229  1  0.13035281  0.75346555  0.48574212  1
  O  O230  1  0.11613555  0.75732354  0.98100258  1
  O  O231  1  0.62713407  0.24306967  0.49491536  1
  O  O232  1  0.63371798  0.24046121  1.00948185  1
  O  O233  1  0.63206554  0.75029378  0.49483413  1
  O  O234  1  0.63384125  0.76119003  1.00833422  1
  O  O235  1  0.50330073  0.25134575  0.13399080  1
  O  O236  1  0.48414220  0.25827475  0.62981192  1
  O  O237  1  0.49070375  0.75020975  0.13583671  1
  O  O238  1  0.49257237  0.74051243  0.62555914  1
  O  O239  1  0.99090553  0.24258808  0.12343569  1
  O  O240  1  1.00105744  0.25145332  0.63761000  1
  O  O241  1  1.00161503  0.73718690  0.12904381  1
  O  O242  1  0.99751241  0.74333521  0.62889577  1
  O  O243  1  0.00297312  0.25895120  0.37090756  1
  O  O244  1  0.00690863  0.25443248  0.86838219  1
  O  O245  1  0.00832837  0.75448827  0.36937531  1
  O  O246  1  0.00408926  0.74928294  0.86081818  1
  O  O247  1  0.51210013  0.24522338  0.36938308  1
  O  O248  1  0.49199987  0.26953441  0.88142795  1
  O  O249  1  0.50110394  0.75709464  0.37358328  1
  O  O250  1  0.49511380  0.76424508  0.87486035  1
  O  O251  1  0.23906464  0.11719296  0.49111797  1
  O  O252  1  0.25387824  0.13748163  0.99252597  1
  O  O253  1  0.25198669  0.64112961  0.50169673  1
  O  O254  1  0.24184991  0.63480103  1.04161374  1
  O  O255  1  0.74081402  0.12898487  0.49616414  1
  O  O256  1  0.74352339  0.13199908  0.99832475  1
  O  O257  1  0.74935722  0.63733568  0.49734416  1
  O  O258  1  0.74703742  0.61810573  0.97977275  1
  O  O259  1  0.24999610  0.35810754  0.00779268  1
  O  O260  1  0.24721225  0.36521742  0.50575830  1
  O  O261  1  0.25589308  0.88407318  0.01034584  1
  O  O262  1  0.24703193  0.86013707  0.50116773  1
  O  O263  1  0.74686462  0.36639379  0.00779745  1
  O  O264  1  0.75431140  0.36992036  0.50880989  1
  O  O265  1  0.76548405  0.88579939  -0.00010790  1
  O  O266  1  0.75466677  0.86467729  0.49956683  1
  O  O267  1  0.12742716  0.48753709  0.24022803  1
  O  O268  1  0.11968192  0.48349698  0.74777038  1
  O  O269  1  0.12040911  0.98774822  0.24017837  1
  O  O270  1  0.13231961  0.99261567  0.74843891  1
  O  O271  1  0.62588699  0.49271369  0.24741694  1
  O  O272  1  0.62133496  0.49127233  0.73588067  1
  O  O273  1  0.63151131  1.01187065  0.24309023  1
  O  O274  1  0.62996909  0.99535277  0.74329820  1
  O  O275  1  0.37740966  0.01165114  0.26141273  1
  O  O276  1  0.36358280  0.01289890  0.74661788  1
  O  O277  1  0.38050704  0.50927120  0.26197956  1
  O  O278  1  0.37796349  0.51203538  0.76034885  1
  O  O279  1  0.86636821  0.00481495  0.25481712  1
  O  O280  1  0.86525835  0.00700638  0.74232638  1
  O  O281  1  0.86892397  0.50215459  0.25505271  1
  O  O282  1  0.88462094  0.49889040  0.76491521  1
  O  O283  1  0.12195439  0.37503081  0.36408606  1
  O  O284  1  0.12128579  0.36855559  0.86545550  1
  O  O285  1  0.11998328  0.87080797  0.36558511  1
  O  O286  1  0.11849821  0.86685476  0.86335453  1
  O  O287  1  0.63148763  0.36449033  0.36523109  1
  O  O288  1  0.61644611  0.37961132  0.86112905  1
  O  O289  1  0.61099086  0.86425212  0.37911992  1
  O  O290  1  0.61631314  0.87877198  0.86463711  1
  O  O291  1  0.36842321  0.11790488  0.14180184  1
  O  O292  1  0.37018250  0.13795761  0.64061800  1
  O  O293  1  0.38347837  0.63412582  0.13282689  1
  O  O294  1  0.38064640  0.62733397  0.63724284  1
  O  O295  1  0.88109506  0.13194048  0.12903812  1
  O  O296  1  0.87885656  0.12953513  0.63703486  1
  O  O297  1  0.88448068  0.62181336  0.12896203  1
  O  O298  1  0.88512532  0.63092386  0.62586113  1
  O  O299  1  0.24625799  0.25292436  0.11112301  1
  O  O300  1  0.26072367  0.26452270  0.63154007  1
  O  O301  1  0.26139169  0.76725446  0.13570311  1
  O  O302  1  0.25861582  0.75395647  0.61956125  1
  O  O303  1  0.75653141  0.25280508  0.11857938  1
  O  O304  1  0.74915305  0.26181988  0.61884448  1
  O  O305  1  0.75817097  0.76012262  0.14868657  1
  O  O306  1  0.75586616  0.74995693  0.61520092  1
  O  O307  1  0.25040289  0.23677616  0.37200932  1
  O  O308  1  0.24625095  0.24728687  0.88835107  1
  O  O309  1  0.24398150  0.74829213  0.38072249  1
  O  O310  1  0.23396346  0.75461175  0.87187004  1
  O  O311  1  0.73957553  0.24441507  0.38054327  1
  O  O312  1  0.75649738  0.25204642  0.89003423  1
  O  O313  1  0.73939931  0.75078401  0.38133958  1
  O  O314  1  0.75411687  0.74177602  0.87483250  1
  O  O315  1  -0.00654674  0.11536999  0.01094313  1
  O  O316  1  0.00742379  0.11566025  0.49782774  1
  O  O317  1  -0.00346211  0.61411213  0.00800585  1
  O  O318  1  -0.00373713  0.61535380  0.50829786  1
  O  O319  1  0.50521551  0.11416933  -0.00586717  1
  O  O320  1  0.51287442  0.11332175  0.49280553  1
  O  O321  1  0.50538154  0.61947463  0.00487522  1
  O  O322  1  0.49906624  0.61599335  0.51505300  1
  O  O323  1  0.50334513  0.38616745  0.50498583  1
  O  O324  1  0.50847668  0.38723168  0.98388968  1
  O  O325  1  0.50131515  0.88660190  0.49184234  1
  O  O326  1  0.48886287  0.88237778  0.99682775  1
  O  O327  1  0.99617870  0.38261963  0.49637132  1
  O  O328  1  0.99919201  0.38660178  0.99294168  1
  O  O329  1  0.99613416  0.88251490  0.49299686  1
  O  O330  1  0.99066250  0.89031692  0.99930965  1
  O  O331  1  0.48964993  0.50490496  0.38357921  1
  O  O332  1  0.49521309  0.49643827  0.88100406  1
  O  O333  1  0.49404482  0.99349903  0.38318545  1
  O  O334  1  0.50167682  0.98490049  0.89137165  1
  O  O335  1  0.99612942  0.49475184  0.38185673  1
  O  O336  1  0.99672425  0.49858385  0.88186258  1
  O  O337  1  0.99381647  0.99544406  0.38168991  1
  O  O338  1  1.00835443  1.00545555  0.89140490  1
  O  O339  1  0.00334546  0.00823846  0.11746134  1
  O  O340  1  0.00214133  0.00007492  0.61050642  1
  O  O341  1  0.00538979  0.50167921  0.11503170  1
  O  O342  1  0.00302619  0.50748911  0.61653505  1
  O  O343  1  0.50517325  -0.00323504  0.11457136  1
  O  O344  1  0.50926573  -0.00429275  0.61679156  1
  O  O345  1  0.50283655  0.50561306  0.11584299  1
  O  O346  1  0.50428094  0.50402156  0.61991442  1
  O  O347  1  0.24145933  0.37276633  0.24035074  1
  O  O348  1  0.23886911  0.37367801  0.75823111  1
  O  O349  1  0.24116558  0.88088580  0.24198189  1
  O  O350  1  0.24389519  0.88553986  0.75294144  1
  O  O351  1  0.73918616  0.37872808  0.24461281  1
  O  O352  1  0.73773081  0.36963237  0.74176963  1
  O  O353  1  0.75050834  0.89129445  0.25655774  1
  O  O354  1  0.74212107  0.88263562  0.74849121  1
  O  O355  1  0.26132480  0.12317157  0.25868652  1
  O  O356  1  0.25444449  0.11896956  0.75793812  1
  O  O357  1  0.26466890  0.62044052  0.24198130  1
  O  O358  1  0.26042716  0.62286623  0.74524349  1
  O  O359  1  0.75448236  0.11777870  0.25592001  1
  O  O360  1  0.75742535  0.11877183  0.75182205  1
  O  O361  1  0.75485695  0.61527104  0.25211193  1
  O  O362  1  0.75464592  0.62657047  0.76466062  1
  O  O363  1  0.36812877  0.11634802  0.37055021  1
  O  O364  1  0.36051379  0.13173268  0.86359317  1
  O  O365  1  0.37297659  0.62259379  0.36533760  1
  O  O366  1  0.37808439  0.61690875  0.86248126  1
  O  O367  1  0.86909301  0.12009822  0.37022738  1
  O  O368  1  0.87343344  0.12822921  0.86062277  1
  O  O369  1  0.87365821  0.61676842  0.36762011  1
  O  O370  1  0.86605838  0.61184342  0.87391806  1
  O  O371  1  0.12784324  0.38170606  0.12971674  1
  O  O372  1  0.14121873  0.37120708  0.63684719  1
  O  O373  1  0.12951889  0.87922211  0.12958659  1
  O  O374  1  0.12862150  0.87449125  0.63729327  1
  O  O375  1  0.62818905  0.38149511  0.13474577  1
  O  O376  1  0.63036607  0.37909560  0.63567031  1
  O  O377  1  0.62362810  0.89438069  0.12506854  1
  O  O378  1  0.62481725  0.88626303  0.63358787  1
  O  O379  1  0.12310697  0.26113102  0.24767109  1
  O  O380  1  0.11997076  0.25918695  0.75888476  1
  O  O381  1  0.11949286  0.76356471  0.25563635  1
  O  O382  1  0.11754111  0.75806256  0.75654259  1
  O  O383  1  0.61832441  0.25339627  0.25540807  1
  O  O384  1  0.62281114  0.26027420  0.74710393  1
  O  O385  1  0.60910057  0.74446138  0.26136027  1
  O  O386  1  0.62223979  0.76511553  0.73923718  1
  O  O387  1  0.38467686  0.23581973  0.25488287  1
  O  O388  1  0.37484743  0.23802851  0.74759956  1
  O  O389  1  0.38142921  0.74611679  0.24433318  1
  O  O390  1  0.37686226  0.73479753  0.74466508  1
  O  O391  1  0.87268215  0.24449899  0.23913320  1
  O  O392  1  0.88671007  0.24394355  0.74978784  1
  O  O393  1  0.88593855  0.74128201  0.25255343  1
  O  O394  1  0.88576904  0.75465044  0.74178440  1
  O  O395  1  0.38210648  0.50420631  0.48522686  1
  O  O396  1  0.38943951  0.50825983  0.98566287  1
  O  O397  1  0.38515494  1.01104913  0.49314181  1
  O  O398  1  0.38136614  0.99117487  1.00644112  1
  O  O399  1  0.88401494  0.49334581  0.49444729  1
  O  O400  1  0.88331967  0.49660523  0.98790333  1
  O  O401  1  0.88107028  0.99658650  0.49465309  1
  O  O402  1  0.88605261  0.99584519  1.00324790  1
  O  O403  1  0.11169060  -0.00757747  0.01337016  1
  O  O404  1  0.11582697  0.00664476  0.49838272  1
  O  O405  1  0.11900809  0.49985238  0.00438773  1
  O  O406  1  0.11461751  0.49420880  0.50169512  1
  O  O407  1  0.61621642  0.00577509  0.00825000  1
  O  O408  1  0.61904069  0.00507576  0.50726829  1
  O  O409  1  0.61593464  0.50184778  0.00655372  1
  O  O410  1  0.61622563  0.50077417  0.51038596  1
  O  O411  1  0.36349494  0.37908608  0.13388346  1
  O  O412  1  0.36552809  0.36493157  0.62946244  1
  O  O413  1  0.36745299  0.87201629  0.11918032  1
  O  O414  1  0.37761608  0.86034508  0.63902001  1
  O  O415  1  0.86829149  0.36532717  0.12425835  1
  O  O416  1  0.86616245  0.37554562  0.62193506  1
  O  O417  1  0.87476484  0.87278984  0.10968720  1
  O  O418  1  0.87326623  0.86741592  0.61530832  1
  O  O419  1  0.13386959  0.12517869  0.37917740  1
  O  O420  1  0.13798095  0.13820238  0.86836026  1
  O  O421  1  0.12859971  0.63767195  0.36079843  1
  O  O422  1  0.12256677  0.63916374  0.87129594  1
  O  O423  1  0.62939475  0.13203726  0.38428630  1
  O  O424  1  0.62791534  0.11970594  0.89194810  1
  O  O425  1  0.62266975  0.63895835  0.38024659  1
  O  O426  1  0.63719843  0.62504389  0.87171808  1
