# generated using pymatgen
data_V85Zn86O256
_symmetry_space_group_name_H-M   'P 1'
_cell_length_a   16.95007198
_cell_length_b   16.95216120
_cell_length_c   16.95187176
_cell_angle_alpha   90.06057226
_cell_angle_beta   89.89637042
_cell_angle_gamma   89.97562235
_symmetry_Int_Tables_number   1
_chemical_formula_structural   V85Zn86O256
_chemical_formula_sum   'V85 Zn86 O256'
_cell_volume   4870.94567442
_cell_formula_units_Z   1
loop_
 _symmetry_equiv_pos_site_id
 _symmetry_equiv_pos_as_xyz
  1  'x, y, z'
loop_
 _atom_site_type_symbol
 _atom_site_label
 _atom_site_symmetry_multiplicity
 _atom_site_fract_x
 _atom_site_fract_y
 _atom_site_fract_z
 _atom_site_occupancy
  V  V0  1  0.49992332  0.00333021  0.49895857  1
  V  V1  1  0.12118720  0.86837188  0.74952840  1
  V  V2  1  0.24209348  0.24792933  -0.00673637  1
  V  V3  1  0.75041519  0.00766329  0.75594102  1
  V  V4  1  0.49770720  0.75956347  0.25525027  1
  V  V5  1  0.87666009  0.12181799  0.24618020  1
  V  V6  1  0.37670091  0.24637824  0.12291777  1
  V  V7  1  0.50210215  0.12275640  0.12859071  1
  V  V8  1  0.00036898  0.00105547  0.50125310  1
  V  V9  1  0.37625442  0.62643806  0.24750701  1
  V  V10  1  0.62919835  0.12354190  0.00179884  1
  V  V11  1  0.00223750  -0.00046923  0.01218470  1
  V  V12  1  0.24851618  0.87398672  0.62285643  1
  V  V13  1  0.24941291  -0.00237661  0.74916778  1
  V  V14  1  0.00453836  0.36682679  0.87679576  1
  V  V15  1  0.24143619  0.12583157  0.87370852  1
  V  V16  1  0.38048933  0.12444625  0.74665317  1
  V  V17  1  0.12426079  0.74963702  0.88084546  1
  V  V18  1  0.50205435  0.75919199  0.75673600  1
  V  V19  1  0.25468167  0.24550737  0.49481780  1
  V  V20  1  0.12236661  0.87947471  0.24487568  1
  V  V21  1  -0.00822235  0.49583036  0.50044020  1
  V  V22  1  0.37244060  0.87298230  -0.00265852  1
  V  V23  1  0.24919807  0.62919796  0.87964255  1
  V  V24  1  0.24848311  0.00689988  0.25296522  1
  V  V25  1  0.38144798  0.37411779  0.49388475  1
  V  V26  1  0.37926153  -0.00470460  0.87409467  1
  V  V27  1  0.12558246  0.37499002  0.24959441  1
  V  V28  1  -0.00822955  0.74592403  0.24766360  1
  V  V29  1  0.87907379  0.63667828  0.75186334  1
  V  V30  1  0.50221417  0.37556603  0.87350102  1
  V  V31  1  0.62056634  0.76094446  0.37604384  1
  V  V32  1  0.12402750  0.49785439  0.62507740  1
  V  V33  1  0.12525847  0.74948931  0.37137220  1
  V  V34  1  0.24969180  0.50091799  0.74898919  1
  V  V35  1  0.63273200  0.74608968  0.88766873  1
  V  V36  1  0.25094818  0.74999720  0.49877589  1
  V  V37  1  0.75508879  0.50246109  0.75589928  1
  V  V38  1  -0.00272349  0.87185523  0.87257890  1
  V  V39  1  0.38255458  0.24675907  0.62300865  1
  V  V40  1  0.37344022  0.37362600  -0.00465360  1
  V  V41  1  0.75661054  0.63145311  0.35904685  1
  V  V42  1  0.87184194  0.25083793  0.12712456  1
  V  V43  1  0.75159778  0.87139415  0.62821441  1
  V  V44  1  -0.01028719  0.61781937  0.12501968  1
  V  V45  1  0.87474393  0.25259885  0.61048966  1
  V  V46  1  0.37013746  0.75043761  0.12182796  1
  V  V47  1  0.88195508  0.49978745  0.87766287  1
  V  V48  1  0.13016087  0.24636705  0.37473045  1
  V  V49  1  0.63039528  0.62976442  0.50070704  1
  V  V50  1  0.50256016  0.24907670  0.74886879  1
  V  V51  1  0.12897531  0.12272952  0.49840162  1
  V  V52  1  0.24986332  0.62374637  0.37304950  1
  V  V53  1  0.87091856  0.00117633  0.37474253  1
  V  V54  1  0.49979604  0.62695042  0.62791228  1
  V  V55  1  0.37530519  0.50053596  0.87137534  1
  V  V56  1  0.74105786  0.88196796  0.11895351  1
  V  V57  1  0.50264111  0.49929648  0.49208576  1
  V  V58  1  0.12204244  0.61829541  0.00185399  1
  V  V59  1  0.75644027  0.37432035  0.61083901  1
  V  V60  1  0.37241504  0.00845255  0.37567755  1
  V  V61  1  0.24638824  0.87964457  0.12217253  1
  V  V62  1  0.74956948  0.47191475  0.24647171  1
  V  V63  1  0.87447218  0.87088910  0.50561664  1
  V  V64  1  0.24989381  0.49953383  0.24712069  1
  V  V65  1  0.62988455  0.13182621  0.50012022  1
  V  V66  1  0.12519645  0.36582735  0.75336118  1
  V  V67  1  0.12515150  0.62405686  0.49951749  1
  V  V68  1  0.50636791  0.50671295  0.00279007  1
  V  V69  1  0.61952970  0.00589148  0.62798801  1
  V  V70  1  0.12305049  0.11875516  0.01403294  1
  V  V71  1  0.87208796  0.00722436  0.87632056  1
  V  V72  1  0.88045244  0.37739758  0.00277471  1
  V  V73  1  -0.00764745  0.37413891  0.37908387  1
  V  V74  1  0.37864952  0.49878751  0.37260530  1
  V  V75  1  0.63421644  0.24818287  0.87501422  1
  V  V76  1  0.50192371  -0.00121497  0.00087649  1
  V  V77  1  0.00094599  0.24501796  0.24517814  1
  V  V78  1  -0.00230781  0.63748590  0.62817473  1
  V  V79  1  0.62814209  0.49984291  0.62622632  1
  V  V80  1  0.62976433  0.37535646  0.75038587  1
  V  V81  1  0.75137704  0.25392462  0.00294403  1
  V  V82  1  0.62484358  0.26450793  0.37086355  1
  V  V83  1  0.24831300  0.37479357  0.12263784  1
  V  V84  1  0.38055177  0.87457264  0.49262248  1
  Zn  Zn85  1  0.62199849  0.88042361  0.75772687  1
  Zn  Zn86  1  0.50831911  0.63393753  0.11764283  1
  Zn  Zn87  1  0.37294088  0.62702464  0.74824306  1
  Zn  Zn88  1  0.75549348  0.74966289  0.50477383  1
  Zn  Zn89  1  0.87024914  0.86587526  -0.00002349  1
  Zn  Zn90  1  0.62941966  0.49861604  0.13498740  1
  Zn  Zn91  1  0.37236801  0.13142643  0.25639017  1
  Zn  Zn92  1  0.73369447  0.00602059  0.24398607  1
  Zn  Zn93  1  0.25190744  0.37467719  0.62422043  1
  Zn  Zn94  1  0.86623506  0.74689020  0.12455242  1
  Zn  Zn95  1  0.61878527  0.88517164  0.24772003  1
  Zn  Zn96  1  0.37576352  0.75094813  0.62454424  1
  Zn  Zn97  1  0.11898971  0.49679602  0.12060768  1
  Zn  Zn98  1  0.75295115  0.71282605  0.00127611  1
  Zn  Zn99  1  0.87558369  0.13105072  0.75261967  1
  Zn  Zn100  1  0.87678155  0.50840706  0.37142229  1
  Zn  Zn101  1  -0.00119087  0.12735327  0.62828256  1
  Zn  Zn102  1  0.12287130  0.00134902  0.62824924  1
  Zn  Zn103  1  0.50480203  0.26127950  0.25350942  1
  Zn  Zn104  1  -0.00315225  0.87217401  0.37316007  1
  Zn  Zn105  1  -0.00018273  0.24477415  0.75168793  1
  Zn  Zn106  1  0.75145886  0.13085616  0.37843861  1
  Zn  Zn107  1  0.18843364  0.18801042  0.18560215  1
  Zn  Zn108  1  0.19361908  0.18542186  0.68143649  1
  Zn  Zn109  1  0.18511592  0.68952838  0.18453473  1
  Zn  Zn110  1  0.18504544  0.68782496  0.68839958  1
  Zn  Zn111  1  0.68912718  0.19015123  0.18967126  1
  Zn  Zn112  1  0.69340337  0.18939926  0.68283410  1
  Zn  Zn113  1  0.68047194  0.69380363  0.17948845  1
  Zn  Zn114  1  0.68823885  0.68711467  0.69523499  1
  Zn  Zn115  1  0.31466194  0.31395489  0.31103513  1
  Zn  Zn116  1  0.31135298  0.31272185  0.81039339  1
  Zn  Zn117  1  0.31067120  0.81636016  0.31090163  1
  Zn  Zn118  1  0.31233336  0.80949552  0.81012653  1
  Zn  Zn119  1  0.81093733  0.30283574  0.32454457  1
  Zn  Zn120  1  0.81666801  0.31344618  0.80841811  1
  Zn  Zn121  1  0.80603365  0.81838940  0.31133870  1
  Zn  Zn122  1  0.80603745  0.81738616  0.81832420  1
  Zn  Zn123  1  0.18849574  0.43447592  0.43680186  1
  Zn  Zn124  1  0.18648788  0.43958197  0.93499422  1
  Zn  Zn125  1  0.18855195  0.93566751  0.43226291  1
  Zn  Zn126  1  0.18698229  0.93897394  0.93676685  1
  Zn  Zn127  1  0.68873092  0.44579285  0.43008489  1
  Zn  Zn128  1  0.69456216  0.44590716  0.94304780  1
  Zn  Zn129  1  0.68993815  0.94294830  0.44148064  1
  Zn  Zn130  1  0.68210251  0.93048991  0.93385005  1
  Zn  Zn131  1  0.31153312  0.06082468  0.06301587  1
  Zn  Zn132  1  0.31166738  0.06132570  0.56342362  1
  Zn  Zn133  1  0.31362605  0.56257419  0.05950925  1
  Zn  Zn134  1  0.31353790  0.56231498  0.56133377  1
  Zn  Zn135  1  0.81421693  0.06271501  0.06201908  1
  Zn  Zn136  1  0.81093537  0.06263977  0.56808378  1
  Zn  Zn137  1  0.80702314  0.55367969  0.07030070  1
  Zn  Zn138  1  0.81441788  0.56407933  0.56886660  1
  Zn  Zn139  1  0.43428515  0.43724649  0.18179872  1
  Zn  Zn140  1  0.43893420  0.43636990  0.68394840  1
  Zn  Zn141  1  0.43370040  0.94081587  0.18619239  1
  Zn  Zn142  1  0.43504435  0.93717714  0.68123930  1
  Zn  Zn143  1  0.93279239  0.43611819  0.19301576  1
  Zn  Zn144  1  0.93870794  0.43395339  0.68906982  1
  Zn  Zn145  1  0.92826218  0.93002638  0.18663340  1
  Zn  Zn146  1  0.93584347  0.93885025  0.68960211  1
  Zn  Zn147  1  0.06118279  0.06098507  0.31366019  1
  Zn  Zn148  1  0.05832777  0.05859765  0.81401612  1
  Zn  Zn149  1  0.06147030  0.56159018  0.30972151  1
  Zn  Zn150  1  0.05932136  0.55964169  0.81223782  1
  Zn  Zn151  1  0.55694700  0.06491880  0.31749768  1
  Zn  Zn152  1  0.56409136  0.06436919  0.81675646  1
  Zn  Zn153  1  0.57040626  0.57143309  0.30390567  1
  Zn  Zn154  1  0.56503413  0.56587117  0.81462196  1
  Zn  Zn155  1  0.44825253  0.18504203  0.43654725  1
  Zn  Zn156  1  0.43835117  0.18496562  0.93483403  1
  Zn  Zn157  1  0.43863963  0.68649055  0.43638823  1
  Zn  Zn158  1  0.43658855  0.68872439  0.93494776  1
  Zn  Zn159  1  0.94156423  0.18515395  0.43524042  1
  Zn  Zn160  1  0.94148777  0.18531390  0.94020016  1
  Zn  Zn161  1  0.94100588  0.68810166  0.43924425  1
  Zn  Zn162  1  0.93671569  0.68577598  0.93967869  1
  Zn  Zn163  1  0.06149506  0.30973661  0.06224062  1
  Zn  Zn164  1  0.06136216  0.31164427  0.56357568  1
  Zn  Zn165  1  0.05955679  0.80812006  0.06185125  1
  Zn  Zn166  1  0.06360237  0.81520307  0.55929029  1
  Zn  Zn167  1  0.56030910  0.31435767  0.06143716  1
  Zn  Zn168  1  0.56551341  0.31520387  0.56246146  1
  Zn  Zn169  1  0.55915322  0.81517311  0.06262308  1
  Zn  Zn170  1  0.56413400  0.81689377  0.56715695  1
  O  O171  1  0.12801471  0.12232853  0.11352417  1
  O  O172  1  0.12535954  0.12290417  0.61052826  1
  O  O173  1  0.12125907  0.62340146  0.11548747  1
  O  O174  1  0.11799777  0.61578846  0.62173619  1
  O  O175  1  0.61409638  0.13538113  0.11297896  1
  O  O176  1  0.62935111  0.11626250  0.61566982  1
  O  O177  1  0.61519646  0.61233994  0.14159087  1
  O  O178  1  0.61950783  0.62059777  0.61986436  1
  O  O179  1  0.37532575  0.38093067  0.38522292  1
  O  O180  1  0.38103464  0.37955789  0.87597644  1
  O  O181  1  0.36847580  0.88496408  0.38707136  1
  O  O182  1  0.36512426  0.88546991  0.88286357  1
  O  O183  1  0.89103801  0.36945627  0.37583709  1
  O  O184  1  0.88415117  0.37889542  0.88257513  1
  O  O185  1  0.87518273  0.88526956  0.38424823  1
  O  O186  1  0.88366994  0.88242220  0.87742116  1
  O  O187  1  0.25859095  -0.00260048  0.36489415  1
  O  O188  1  0.25938995  0.00708772  0.86928435  1
  O  O189  1  0.25667664  0.50361575  0.36840346  1
  O  O190  1  0.25465015  0.50824298  0.86801737  1
  O  O191  1  0.76379097  0.00352236  0.37423706  1
  O  O192  1  0.75992672  -0.00905718  0.86736078  1
  O  O193  1  0.75346988  0.51733766  0.36852178  1
  O  O194  1  0.76411447  0.49170704  0.86399144  1
  O  O195  1  0.25108490  0.49174300  0.12932733  1
  O  O196  1  0.23961228  0.50076571  0.62805047  1
  O  O197  1  0.25777274  0.98793326  0.13601654  1
  O  O198  1  0.24695356  0.99274576  0.63126451  1
  O  O199  1  0.74954025  0.48387333  0.14193455  1
  O  O200  1  0.74764347  0.49375634  0.63482855  1
  O  O201  1  0.75602111  0.98892123  0.12748509  1
  O  O202  1  0.74112297  0.99336802  0.63475299  1
  O  O203  1  0.00591406  0.36548492  0.25891161  1
  O  O204  1  0.01064797  0.37256343  0.75761324  1
  O  O205  1  0.00851549  0.86756383  0.24846878  1
  O  O206  1  0.01006316  0.88183725  0.75946327  1
  O  O207  1  0.52636707  0.37494873  0.21385305  1
  O  O208  1  0.50912538  0.37025442  0.75293081  1
  O  O209  1  0.49569559  0.86329880  0.24562285  1
  O  O210  1  0.49810478  0.86183332  0.74187891  1
  O  O211  1  0.49502577  0.12826327  0.23698911  1
  O  O212  1  0.48695162  0.13149250  0.75783105  1
  O  O213  1  0.48960489  0.63715054  0.25025746  1
  O  O214  1  0.49935696  0.63149225  0.73938204  1
  O  O215  1  0.99230964  0.13650072  0.25842314  1
  O  O216  1  0.99962036  0.12648332  0.74587253  1
  O  O217  1  1.00897972  0.63432470  0.23675498  1
  O  O218  1  0.98966637  0.62041617  0.74161325  1
  O  O219  1  0.36567335  0.25203241  0.00425502  1
  O  O220  1  0.37470674  0.25371337  0.50276914  1
  O  O221  1  0.38208309  0.76174204  0.00766338  1
  O  O222  1  0.37022002  0.75806006  0.49852432  1
  O  O223  1  0.87002999  0.25205453  0.00753672  1
  O  O224  1  0.87957971  0.24740229  0.51039962  1
  O  O225  1  0.86709550  0.74805862  0.00174607  1
  O  O226  1  0.87668017  0.76673551  0.49649528  1
  O  O227  1  0.13441377  0.24479580  0.49419895  1
  O  O228  1  0.13624370  0.23957137  1.00402276  1
  O  O229  1  0.13035471  0.74429718  0.49205174  1
  O  O230  1  0.12343266  0.73979819  0.98811907  1
  O  O231  1  0.61672332  0.23636824  0.49685337  1
  O  O232  1  0.63251631  0.24889032  0.99502960  1
  O  O233  1  0.62176356  0.74188293  0.49516927  1
  O  O234  1  0.61489519  0.74792801  0.98887615  1
  O  O235  1  0.48803226  0.23987531  0.11786816  1
  O  O236  1  0.48939514  0.25484076  0.63056621  1
  O  O237  1  0.48667799  0.75115658  0.13317350  1
  O  O238  1  0.50114620  0.74090250  0.63237523  1
  O  O239  1  0.99343574  0.25193534  0.13874323  1
  O  O240  1  0.98765816  0.25125753  0.62627497  1
  O  O241  1  0.99770361  0.73887656  0.13239712  1
  O  O242  1  1.00635817  0.73638493  0.61993834  1
  O  O243  1  0.01059148  0.25645344  0.36925173  1
  O  O244  1  -0.00274174  0.26194371  0.87337777  1
  O  O245  1  0.00805801  0.74833422  0.36594740  1
  O  O246  1  0.00893381  0.76246379  0.88016229  1
  O  O247  1  0.51457642  0.24895748  0.37191150  1
  O  O248  1  0.50832619  0.25654380  0.86951346  1
  O  O249  1  0.50828349  0.74551501  0.36753360  1
  O  O250  1  0.50056548  0.74807179  0.85935341  1
  O  O251  1  0.24420641  0.13563769  0.50186288  1
  O  O252  1  0.24359286  0.12776017  0.99323491  1
  O  O253  1  0.24525443  0.62897414  0.49337349  1
  O  O254  1  0.24151544  0.62061986  0.98684801  1
  O  O255  1  0.73354865  0.11741693  0.50051869  1
  O  O256  1  0.73936693  0.13696722  1.00598738  1
  O  O257  1  0.73926617  0.62758917  0.50403912  1
  O  O258  1  0.73777645  0.60202974  1.00118167  1
  O  O259  1  0.25192252  0.36601079  0.00013386  1
  O  O260  1  0.26142747  0.36462815  0.50013269  1
  O  O261  1  0.26043892  0.88447911  0.00886409  1
  O  O262  1  0.25523501  0.86951636  0.50356921  1
  O  O263  1  0.76270729  0.36241667  -0.00374351  1
  O  O264  1  0.74859952  0.38939739  0.51273743  1
  O  O265  1  0.74986567  0.88242723  0.01248071  1
  O  O266  1  0.75860383  0.87705114  0.51024137  1
  O  O267  1  0.13305422  0.49204482  0.24867277  1
  O  O268  1  0.12920721  0.49296250  0.74117351  1
  O  O269  1  0.13162128  0.98886805  0.25762996  1
  O  O270  1  0.13219319  0.98731373  0.75175264  1
  O  O271  1  0.64699032  0.49962869  0.26087775  1
  O  O272  1  0.63464566  0.49674805  0.74698404  1
  O  O273  1  0.62211990  0.99738803  0.25959504  1
  O  O274  1  0.62925712  1.00179948  0.74628151  1
  O  O275  1  0.36718229  0.00067296  0.26009051  1
  O  O276  1  0.37179923  0.00541244  0.75449999  1
  O  O277  1  0.37141139  0.50345954  0.25341564  1
  O  O278  1  0.36919203  0.50048064  0.75329179  1
  O  O279  1  0.88398371  0.00920997  0.26009908  1
  O  O280  1  0.86736128  0.00261899  0.75870629  1
  O  O281  1  0.85735688  0.49318360  0.25695184  1
  O  O282  1  0.87057143  0.50110148  0.75828903  1
  O  O283  1  0.11954116  0.36453614  0.36967665  1
  O  O284  1  0.11729186  0.38096056  0.86493123  1
  O  O285  1  0.12290917  0.86718623  0.36363655  1
  O  O286  1  0.12088904  0.86814227  0.86982206  1
  O  O287  1  0.62500028  0.36334545  0.38580086  1
  O  O288  1  0.62256871  0.36728377  0.87003223  1
  O  O289  1  0.63244285  0.86193842  0.38178277  1
  O  O290  1  0.62116801  0.85803521  0.87086044  1
  O  O291  1  0.38035223  0.13408842  0.12312149  1
  O  O292  1  0.36998988  0.13310972  0.63618964  1
  O  O293  1  0.37330008  0.63641946  0.12786521  1
  O  O294  1  0.38692103  0.62615588  0.62365070  1
  O  O295  1  0.87493908  0.13664158  0.13453390  1
  O  O296  1  0.87428622  0.13941489  0.62600124  1
  O  O297  1  0.88789394  0.62294995  0.12346009  1
  O  O298  1  0.88490457  0.62127363  0.63984271  1
  O  O299  1  0.25779692  0.25353684  0.11473953  1
  O  O300  1  0.26434912  0.25219740  0.61320468  1
  O  O301  1  0.26204263  0.76239925  0.13168875  1
  O  O302  1  0.25017945  0.75436457  0.61713768  1
  O  O303  1  0.76069138  0.25031568  0.11726897  1
  O  O304  1  0.76253712  0.26103626  0.62560905  1
  O  O305  1  0.74782642  0.75989562  0.11707314  1
  O  O306  1  0.74060920  0.76651650  0.62641800  1
  O  O307  1  0.24176166  0.25498866  0.38208120  1
  O  O308  1  0.25774604  0.23934690  0.88423314  1
  O  O309  1  0.24519619  0.74357902  0.37810813  1
  O  O310  1  0.24012828  0.73878037  0.86948202  1
  O  O311  1  0.73222681  0.24534651  0.38133930  1
  O  O312  1  0.74061123  0.25442920  0.88277185  1
  O  O313  1  0.74220761  0.74284337  0.38031129  1
  O  O314  1  0.73764981  0.75301309  0.88459583  1
  O  O315  1  0.00993284  0.11031677  -0.00488381  1
  O  O316  1  0.01105769  0.11708774  0.50123449  1
  O  O317  1  0.00814976  0.62800962  0.01581561  1
  O  O318  1  0.00628026  0.61628834  0.50710587  1
  O  O319  1  0.50569367  0.11911788  0.00638569  1
  O  O320  1  0.51050850  0.11209886  0.50380159  1
  O  O321  1  0.49704913  0.60969897  -0.00609197  1
  O  O322  1  0.50896724  0.61951994  0.50794020  1
  O  O323  1  0.49323498  0.38853404  0.50623176  1
  O  O324  1  0.49133977  0.38158437  0.99197638  1
  O  O325  1  0.48852024  0.88500216  0.50756056  1
  O  O326  1  0.48530915  0.88891966  1.00760968  1
  O  O327  1  1.01100841  0.38588637  0.49046309  1
  O  O328  1  0.99119440  0.36733030  0.99239583  1
  O  O329  1  0.99351371  0.88429067  0.49839043  1
  O  O330  1  1.00227221  0.88532771  0.99161467  1
  O  O331  1  0.49744953  0.51275362  0.38690109  1
  O  O332  1  0.49689180  0.49513732  0.88117691  1
  O  O333  1  0.48726110  1.00023554  0.38872865  1
  O  O334  1  0.48658617  1.00662716  0.88377294  1
  O  O335  1  0.99896572  0.49323168  0.38146526  1
  O  O336  1  0.99002342  0.48582288  0.87123918  1
  O  O337  1  0.99108841  0.99886601  0.38606002  1
  O  O338  1  0.99160856  0.98862178  0.88098817  1
  O  O339  1  -0.00575559  -0.00703624  0.11032064  1
  O  O340  1  0.00173962  0.00127723  0.61195334  1
  O  O341  1  0.00099343  0.51339901  0.13582310  1
  O  O342  1  0.00896524  0.50283280  0.61820697  1
  O  O343  1  0.48992427  0.01209582  0.11281946  1
  O  O344  1  0.51068535  -0.00255673  0.61846441  1
  O  O345  1  0.48728753  0.50612611  0.10572706  1
  O  O346  1  0.50714672  0.50794075  0.61678264  1
  O  O347  1  0.24556314  0.37883521  0.24319823  1
  O  O348  1  0.24281970  0.38241341  0.74855424  1
  O  O349  1  0.24176000  0.88335231  0.24283448  1
  O  O350  1  0.24274664  0.87787121  0.74411937  1
  O  O351  1  0.74893864  0.37362994  0.25959198  1
  O  O352  1  0.74676273  0.38471050  0.74229771  1
  O  O353  1  0.74520967  0.87948144  0.23704581  1
  O  O354  1  0.74906432  0.88648493  0.74279565  1
  O  O355  1  0.25201345  0.11200268  0.24240704  1
  O  O356  1  0.25833777  0.12059300  0.75576791  1
  O  O357  1  0.25538897  0.62009027  0.25344275  1
  O  O358  1  0.24829492  0.61829128  0.75887401  1
  O  O359  1  0.76483825  0.12335289  0.25210973  1
  O  O360  1  0.75037157  0.11109716  0.74701135  1
  O  O361  1  0.75306583  0.63669939  0.26063311  1
  O  O362  1  0.76583762  0.61305164  0.74240341  1
  O  O363  1  0.37695731  0.11436511  0.37574695  1
  O  O364  1  0.36572349  0.11682531  0.86682371  1
  O  O365  1  0.36856424  0.61865943  0.36921009  1
  O  O366  1  0.36429032  0.62030895  0.87283383  1
  O  O367  1  0.87441278  0.11913999  0.36770409  1
  O  O368  1  0.87938924  0.11102809  0.87591961  1
  O  O369  1  0.85857052  0.63061471  0.38345424  1
  O  O370  1  0.88857292  0.61239485  0.86156574  1
  O  O371  1  0.13025814  0.37480673  0.13029046  1
  O  O372  1  0.12694377  0.38475251  0.63099913  1
  O  O373  1  0.13464479  0.86623986  0.13305257  1
  O  O374  1  0.12945452  0.87551357  0.63344625  1
  O  O375  1  0.58773805  0.38131146  0.15246960  1
  O  O376  1  0.63431400  0.37995180  0.63059293  1
  O  O377  1  0.63560291  0.87386556  0.12468712  1
  O  O378  1  0.63335164  0.88932873  0.62726192  1
  O  O379  1  0.12063705  0.25211826  0.25597444  1
  O  O380  1  0.12926648  0.26342870  0.73932861  1
  O  O381  1  0.11876441  0.75892664  0.25330091  1
  O  O382  1  0.12721721  0.76097609  0.76065175  1
  O  O383  1  0.62447266  0.24503173  0.26599571  1
  O  O384  1  0.62378300  0.25302565  0.75634092  1
  O  O385  1  0.61338767  0.75560187  0.26002432  1
  O  O386  1  0.61159987  0.75335888  0.75199734  1
  O  O387  1  0.37948356  0.25249448  0.23761257  1
  O  O388  1  0.37961492  0.24431464  0.74233470  1
  O  O389  1  0.37859410  0.74742389  0.24436513  1
  O  O390  1  0.38685315  0.74720639  0.74588758  1
  O  O391  1  0.88171068  0.24324020  0.24642258  1
  O  O392  1  0.87795202  0.24771170  0.74043442  1
  O  O393  1  0.88954320  0.75693172  0.25248998  1
  O  O394  1  0.86855582  0.73431133  0.76037766  1
  O  O395  1  0.38256796  0.49340510  0.49439826  1
  O  O396  1  0.38050324  0.49295080  0.98991579  1
  O  O397  1  0.37910884  0.99574650  0.49577363  1
  O  O398  1  0.38025166  0.99573009  0.99133340  1
  O  O399  1  0.88921669  0.50573725  0.49939320  1
  O  O400  1  0.87042941  0.48502432  0.99247391  1
  O  O401  1  0.88194027  0.99641181  0.49420138  1
  O  O402  1  0.88768332  1.00060473  0.99290813  1
  O  O403  1  0.11194764  0.00410212  -0.00385505  1
  O  O404  1  0.11908335  0.00710364  0.49541290  1
  O  O405  1  0.12529833  0.51210340  0.00034940  1
  O  O406  1  0.12062650  0.50449878  0.50706978  1
  O  O407  1  0.61279494  0.01172345  -0.01222781  1
  O  O408  1  0.61741147  0.00610962  0.50745344  1
  O  O409  1  0.60812249  0.48522706  0.00691729  1
  O  O410  1  0.61919258  0.51078628  0.50398043  1
  O  O411  1  0.36790263  0.36449756  0.11587704  1
  O  O412  1  0.37435690  0.36680958  0.61323066  1
  O  O413  1  0.36640671  0.86946401  0.11739089  1
  O  O414  1  0.36548936  0.87410205  0.61230448  1
  O  O415  1  0.88420306  0.36176691  0.11601734  1
  O  O416  1  0.86998977  0.36438738  0.62674645  1
  O  O417  1  0.86145716  0.86767271  0.12108894  1
  O  O418  1  0.86509330  0.88491991  0.61646957  1
  O  O419  1  0.12043900  0.13714287  0.38439422  1
  O  O420  1  0.13885178  0.11793220  0.87994158  1
  O  O421  1  0.13079759  0.62851655  0.37911512  1
  O  O422  1  0.12685324  0.62995345  0.87978707  1
  O  O423  1  0.62492648  0.12641760  0.39186018  1
  O  O424  1  0.61779506  0.13985633  0.88774175  1
  O  O425  1  0.63763760  0.63527410  0.38332046  1
  O  O426  1  0.62319324  0.64619983  0.86473453  1
