# generated using pymatgen
data_V85Zn86O256
_symmetry_space_group_name_H-M   'P 1'
_cell_length_a   16.96289236
_cell_length_b   16.94991009
_cell_length_c   16.96115793
_cell_angle_alpha   90.03476958
_cell_angle_beta   90.22054044
_cell_angle_gamma   89.88363450
_symmetry_Int_Tables_number   1
_chemical_formula_structural   V85Zn86O256
_chemical_formula_sum   'V85 Zn86 O256'
_cell_volume   4876.61659447
_cell_formula_units_Z   1
loop_
 _symmetry_equiv_pos_site_id
 _symmetry_equiv_pos_as_xyz
  1  'x, y, z'
loop_
 _atom_site_type_symbol
 _atom_site_label
 _atom_site_symmetry_multiplicity
 _atom_site_fract_x
 _atom_site_fract_y
 _atom_site_fract_z
 _atom_site_occupancy
  V  V0  1  0.87998428  0.25132193  0.63013885  1
  V  V1  1  0.24893441  0.12601063  0.87162341  1
  V  V2  1  0.62464413  0.25165744  0.87682850  1
  V  V3  1  0.12030357  0.61995978  0.49872580  1
  V  V4  1  0.50057047  0.87523898  0.37635117  1
  V  V5  1  0.74924318  0.12511401  0.87491149  1
  V  V6  1  0.74941836  0.25051010  0.49577483  1
  V  V7  1  0.63300389  0.63066740  0.00089124  1
  V  V8  1  0.62614769  0.13029644  0.49506535  1
  V  V9  1  0.51829536  0.25667213  0.25156903  1
  V  V10  1  0.37100968  0.25310732  0.62651091  1
  V  V11  1  0.87453221  0.87000516  0.49463441  1
  V  V12  1  0.12931283  0.37678688  0.74376909  1
  V  V13  1  0.37129672  0.37588998  0.00468199  1
  V  V14  1  -0.00198061  -0.00363885  -0.00159697  1
  V  V15  1  0.62297536  0.11213739  0.00367526  1
  V  V16  1  0.37867728  0.00221830  0.88877005  1
  V  V17  1  0.37619505  0.50527407  0.36877732  1
  V  V18  1  -0.00723459  0.00177253  0.49600005  1
  V  V19  1  0.49589750  0.62409195  0.13039574  1
  V  V20  1  0.62964358  0.49388074  0.13797306  1
  V  V21  1  0.24835389  0.48648145  0.24797667  1
  V  V22  1  0.13007298  0.48169139  0.12746966  1
  V  V23  1  0.86941712  0.61032028  0.25381462  1
  V  V24  1  0.00396586  0.74987697  0.75337851  1
  V  V25  1  0.00239546  0.12306486  0.63201516  1
  V  V26  1  0.37440221  0.87643715  0.50081938  1
  V  V27  1  0.62251712  0.00320780  0.62295394  1
  V  V28  1  0.49921816  0.25005468  0.74881445  1
  V  V29  1  0.24980383  -0.00213372  0.24636060  1
  V  V30  1  0.49405544  0.38023764  0.87470410  1
  V  V31  1  0.12922211  0.63306381  -0.00330288  1
  V  V32  1  0.62474296  0.38405726  0.74606321  1
  V  V33  1  -0.00318601  0.61888507  0.12670519  1
  V  V34  1  0.50164724  0.62479843  0.62585394  1
  V  V35  1  0.75647197  0.11725076  0.37755443  1
  V  V36  1  0.75617121  0.86926508  0.62483220  1
  V  V37  1  0.25315784  0.50379668  0.75548969  1
  V  V38  1  0.75454731  0.00354085  0.74903845  1
  V  V39  1  0.49519851  0.74506602  0.24979196  1
  V  V40  1  -0.00628168  0.74898600  0.25156140  1
  V  V41  1  0.86913867  0.86879306  -0.00417899  1
  V  V42  1  0.38137020  0.12906243  0.25429976  1
  V  V43  1  0.87868301  0.24769828  0.12865237  1
  V  V44  1  0.12733552  0.11922472  0.50493321  1
  V  V45  1  0.87198469  0.37406104  -0.00049937  1
  V  V46  1  0.01990848  0.37677237  0.37177290  1
  V  V47  1  0.25081687  0.62347359  0.37152979  1
  V  V48  1  0.12437191  0.87437579  0.24712771  1
  V  V49  1  0.37575306  0.62260093  0.75898740  1
  V  V50  1  -0.00209165  0.37235991  0.86488534  1
  V  V51  1  0.62557105  0.62235263  0.50365709  1
  V  V52  1  0.74515266  0.88006911  0.12344416  1
  V  V53  1  0.11920582  0.25091027  0.86669691  1
  V  V54  1  0.87737321  0.11898534  0.25583059  1
  V  V55  1  0.50025798  0.75325729  0.75483337  1
  V  V56  1  0.75243203  0.61175751  0.37160129  1
  V  V57  1  0.87419159  0.63085654  0.74435090  1
  V  V58  1  0.24164549  0.87955782  0.62234607  1
  V  V59  1  -0.00109775  0.62704500  0.62258678  1
  V  V60  1  0.37455676  0.85474686  0.01096386  1
  V  V61  1  0.51233472  0.37272081  0.37358944  1
  V  V62  1  0.87019604  0.50135252  0.87156563  1
  V  V63  1  0.00019391  0.49699821  0.00044690  1
  V  V64  1  0.62591298  0.88129916  0.24778043  1
  V  V65  1  0.88258372  0.38667484  0.49195924  1
  V  V66  1  0.50206890  0.49934770  0.50468355  1
  V  V67  1  0.50868264  0.11232939  0.12447708  1
  V  V68  1  0.24468944  0.24810916  0.50428478  1
  V  V69  1  0.74776273  0.24996816  0.00147480  1
  V  V70  1  0.49956686  0.50013134  -0.00152983  1
  V  V71  1  0.12806356  0.49980968  0.62309788  1
  V  V72  1  0.12781058  0.86988658  0.75815129  1
  V  V73  1  0.11943646  0.12169866  -0.00638947  1
  V  V74  1  0.24905672  0.75101410  0.49898804  1
  V  V75  1  0.24711276  -0.00096368  0.74460545  1
  V  V76  1  0.74810203  0.38128807  0.62558207  1
  V  V77  1  0.62890280  0.74950089  0.37779792  1
  V  V78  1  0.86518866  0.74726866  0.12122886  1
  V  V79  1  0.37169437  0.00280996  0.37549903  1
  V  V80  1  0.74785497  0.37575533  0.14145497  1
  V  V81  1  0.12195689  0.74929961  0.37461501  1
  V  V82  1  0.37008205  0.37546725  0.50259130  1
  V  V83  1  0.62243314  0.87544046  0.75029107  1
  V  V84  1  0.19568514  0.18206128  0.32588334  1
  Zn  Zn85  1  0.37626232  0.25568564  0.12770022  1
  Zn  Zn86  1  0.33326330  0.67715728  0.19604377  1
  Zn  Zn87  1  0.37695521  0.12203015  0.74851129  1
  Zn  Zn88  1  0.25067140  0.84451950  0.11814764  1
  Zn  Zn89  1  0.75471833  -0.00266297  0.25327186  1
  Zn  Zn90  1  0.00052787  0.12314390  0.12961513  1
  Zn  Zn91  1  0.49968373  0.12735834  0.62181547  1
  Zn  Zn92  1  0.75977423  0.74277902  0.50642265  1
  Zn  Zn93  1  0.12941400  -0.00335234  0.11912863  1
  Zn  Zn94  1  0.74442914  0.50582038  0.74656407  1
  Zn  Zn95  1  0.75433951  0.63518450  0.87760760  1
  Zn  Zn96  1  0.25010100  0.63944251  0.87982577  1
  Zn  Zn97  1  0.50375613  0.88555739  0.88743363  1
  Zn  Zn98  1  0.88006197  0.13170206  0.75405884  1
  Zn  Zn99  1  -0.01084917  0.88123584  0.36842127  1
  Zn  Zn100  1  0.00393281  0.86851808  0.87792917  1
  Zn  Zn101  1  0.37374105  0.75254923  0.62652852  1
  Zn  Zn102  1  0.01179182  0.24786267  0.26191090  1
  Zn  Zn103  1  0.63192436  0.75882535  0.88605328  1
  Zn  Zn104  1  0.24557835  0.26311319  -0.00111923  1
  Zn  Zn105  1  0.49921261  0.00294835  0.49951237  1
  Zn  Zn106  1  0.87635195  -0.00091872  0.87308453  1
  Zn  Zn107  1  0.18706395  0.19628454  0.16141298  1
  Zn  Zn108  1  0.18601003  0.18866195  0.68553172  1
  Zn  Zn109  1  0.17135978  0.67589686  0.18799883  1
  Zn  Zn110  1  0.19007768  0.69046254  0.68798850  1
  Zn  Zn111  1  0.69300811  0.18591826  0.18865998  1
  Zn  Zn112  1  0.68826652  0.19290086  0.68511805  1
  Zn  Zn113  1  0.68442131  0.68584092  0.18904216  1
  Zn  Zn114  1  0.68700165  0.68845932  0.69019863  1
  Zn  Zn115  1  0.32490793  0.31736511  0.31540713  1
  Zn  Zn116  1  0.31000454  0.31519608  0.81412902  1
  Zn  Zn117  1  0.30888526  0.81670897  0.31506256  1
  Zn  Zn118  1  0.31498234  0.81272878  0.81850801  1
  Zn  Zn119  1  0.81666880  0.30571499  0.31643316  1
  Zn  Zn120  1  0.80916145  0.31291615  0.81129940  1
  Zn  Zn121  1  0.80850375  0.80689047  0.31252748  1
  Zn  Zn122  1  0.81139433  0.80915877  0.81199757  1
  Zn  Zn123  1  0.19041413  0.43836026  0.43719182  1
  Zn  Zn124  1  0.18665228  0.44663246  0.93236148  1
  Zn  Zn125  1  0.18438728  0.93952719  0.43400856  1
  Zn  Zn126  1  0.19545350  0.93290367  0.93766360  1
  Zn  Zn127  1  0.69112986  0.43659550  0.44066344  1
  Zn  Zn128  1  0.68481141  0.43904177  0.94182005  1
  Zn  Zn129  1  0.68936003  0.93829613  0.43877730  1
  Zn  Zn130  1  0.69212002  0.93612804  0.93572155  1
  Zn  Zn131  1  0.30938767  0.08464285  0.06785110  1
  Zn  Zn132  1  0.31348004  0.06546443  0.56309804  1
  Zn  Zn133  1  0.30958884  0.55585838  0.05831258  1
  Zn  Zn134  1  0.31163363  0.56384499  0.56576381  1
  Zn  Zn135  1  0.81220249  0.06037784  0.06354394  1
  Zn  Zn136  1  0.81580346  0.06027994  0.56379168  1
  Zn  Zn137  1  0.81181114  0.55693143  0.06648116  1
  Zn  Zn138  1  0.81308639  0.56226359  0.56126413  1
  Zn  Zn139  1  0.44034875  0.43911271  0.18630718  1
  Zn  Zn140  1  0.43536731  0.43868485  0.68683000  1
  Zn  Zn141  1  0.43756005  0.93504880  0.18648666  1
  Zn  Zn142  1  0.43293699  0.93945792  0.68869302  1
  Zn  Zn143  1  0.94285846  0.42830455  0.19220859  1
  Zn  Zn144  1  0.93837189  0.44284892  0.68158899  1
  Zn  Zn145  1  0.93619197  0.93703300  0.17990160  1
  Zn  Zn146  1  0.94140555  0.93634443  0.68180715  1
  Zn  Zn147  1  0.05698820  0.05782329  0.31212886  1
  Zn  Zn148  1  0.06336547  0.05339308  0.81166514  1
  Zn  Zn149  1  0.05992760  0.55518256  0.31225100  1
  Zn  Zn150  1  0.06026310  0.56076660  0.81149241  1
  Zn  Zn151  1  0.56332468  0.06426736  0.31655300  1
  Zn  Zn152  1  0.56416143  0.06405800  0.81358381  1
  Zn  Zn153  1  0.56361970  0.56149009  0.31663498  1
  Zn  Zn154  1  0.56151946  0.56534985  0.81663093  1
  Zn  Zn155  1  0.44098438  0.19128597  0.43710960  1
  Zn  Zn156  1  0.44009756  0.18818368  0.93809389  1
  Zn  Zn157  1  0.43687198  0.68998341  0.43662869  1
  Zn  Zn158  1  0.44443844  0.68793640  0.93857648  1
  Zn  Zn159  1  0.93963819  0.19458145  0.44081690  1
  Zn  Zn160  1  0.93474769  0.18846494  0.93549719  1
  Zn  Zn161  1  0.93533094  0.68585785  0.43629388  1
  Zn  Zn162  1  0.94189482  0.68493063  0.93639762  1
  Zn  Zn163  1  0.05787592  0.30891970  0.05506838  1
  Zn  Zn164  1  0.05998436  0.31056548  0.56002999  1
  Zn  Zn165  1  0.05703973  0.81091452  0.06641205  1
  Zn  Zn166  1  0.05956068  0.81047995  0.56508683  1
  Zn  Zn167  1  0.56330914  0.31007813  0.06595681  1
  Zn  Zn168  1  0.56256475  0.31391374  0.56329086  1
  Zn  Zn169  1  0.55556522  0.81414515  0.06700143  1
  Zn  Zn170  1  0.56193268  0.81200230  0.56441536  1
  O  O171  1  0.11887334  0.12222693  0.10582563  1
  O  O172  1  0.11134253  0.13006512  0.61848449  1
  O  O173  1  0.11375355  0.60930085  0.11496677  1
  O  O174  1  0.12028185  0.62055918  0.61672368  1
  O  O175  1  0.61688953  0.12953001  0.11954953  1
  O  O176  1  0.62717251  0.11765865  0.61675936  1
  O  O177  1  0.61865707  0.61660997  0.11775623  1
  O  O178  1  0.61388474  0.63052285  0.61596278  1
  O  O179  1  0.38721321  0.38469865  0.38623119  1
  O  O180  1  0.38894785  0.37385787  0.87985904  1
  O  O181  1  0.37975520  0.88447447  0.38016751  1
  O  O182  1  0.37449313  0.89051541  0.88916657  1
  O  O183  1  0.86894985  0.37323215  0.39176989  1
  O  O184  1  0.88010481  0.38027506  0.87637365  1
  O  O185  1  0.87089452  0.87164714  0.38897603  1
  O  O186  1  0.87564381  0.87488931  0.88563068  1
  O  O187  1  0.26204539  -0.00516569  0.36315749  1
  O  O188  1  0.25986923  0.00711936  0.86548158  1
  O  O189  1  0.25785142  0.50308804  0.36871500  1
  O  O190  1  0.24320306  0.51565335  0.85926568  1
  O  O191  1  0.75194770  0.01250739  0.37632549  1
  O  O192  1  0.75085206  0.00593500  0.86349072  1
  O  O193  1  0.74369618  0.51280158  0.37632496  1
  O  O194  1  0.76218482  0.50135345  0.87523345  1
  O  O195  1  0.23761467  0.49904192  0.13139445  1
  O  O196  1  0.23678539  0.50563934  0.63512615  1
  O  O197  1  0.24940835  1.01415395  0.14205399  1
  O  O198  1  0.25623730  0.99267846  0.63316687  1
  O  O199  1  0.74199430  0.48718638  0.12205116  1
  O  O200  1  0.75337203  0.48521783  0.62592737  1
  O  O201  1  0.75401865  0.98450866  0.13005239  1
  O  O202  1  0.74094906  0.99409273  0.63137689  1
  O  O203  1  0.00159189  0.36469357  0.26410971  1
  O  O204  1  0.01010920  0.38400415  0.75923404  1
  O  O205  1  0.00427519  0.86764840  0.24765405  1
  O  O206  1  0.00954832  0.86816245  0.74597075  1
  O  O207  1  0.49620275  0.36318516  0.25677466  1
  O  O208  1  0.50467672  0.37060632  0.75469564  1
  O  O209  1  0.50742224  0.86579803  0.25465012  1
  O  O210  1  0.50703388  0.86957269  0.74862234  1
  O  O211  1  0.50130027  0.13609713  0.24556548  1
  O  O212  1  0.50079537  0.14084875  0.74955166  1
  O  O213  1  0.50672813  0.63242007  0.24357665  1
  O  O214  1  0.49764021  0.63057112  0.74402211  1
  O  O215  1  0.99410387  0.13042141  0.24978757  1
  O  O216  1  1.00055890  0.11654862  0.73592306  1
  O  O217  1  0.99180124  0.63126444  0.24808700  1
  O  O218  1  0.99532779  0.63090681  0.74349381  1
  O  O219  1  0.38147696  0.26889345  -0.00335389  1
  O  O220  1  0.36849290  0.25483205  0.50562418  1
  O  O221  1  0.37369183  0.75556332  -0.00160480  1
  O  O222  1  0.36715163  0.75858524  0.49825532  1
  O  O223  1  0.86918621  0.25318371  0.00831143  1
  O  O224  1  0.86568056  0.25777820  0.51177186  1
  O  O225  1  0.88403146  0.75629766  0.01128812  1
  O  O226  1  0.87734411  0.76386766  0.50259345  1
  O  O227  1  0.13701049  0.24082107  0.50617392  1
  O  O228  1  0.12484735  0.24111716  0.98602801  1
  O  O229  1  0.12883129  0.74264200  0.49424804  1
  O  O230  1  0.11663527  0.73177306  1.01018994  1
  O  O231  1  0.63653111  0.24052579  0.51044921  1
  O  O232  1  0.62908487  0.24242461  0.99504621  1
  O  O233  1  0.62231737  0.73938381  0.49218424  1
  O  O234  1  0.61596522  0.73371658  1.00452166  1
  O  O235  1  0.49842564  0.24679700  0.14112798  1
  O  O236  1  0.49190364  0.25183886  0.63371646  1
  O  O237  1  0.50381698  0.73697760  0.13853168  1
  O  O238  1  0.49864323  0.74251384  0.63461551  1
  O  O239  1  0.98827757  0.24906916  0.12565270  1
  O  O240  1  0.99118651  0.23576397  0.61765174  1
  O  O241  1  0.98878798  0.74221760  0.13606911  1
  O  O242  1  1.00378771  0.73592279  0.63512212  1
  O  O243  1  -0.00136310  0.26571637  0.37803118  1
  O  O244  1  0.00718984  0.25977851  0.87607788  1
  O  O245  1  0.00203908  0.75298588  0.36452426  1
  O  O246  1  -0.00280982  0.75080059  0.85926903  1
  O  O247  1  0.49649047  0.25835630  0.36146858  1
  O  O248  1  0.50439788  0.25869673  0.86651367  1
  O  O249  1  0.51078385  0.75297381  0.37077235  1
  O  O250  1  0.50833966  0.75375747  0.86365801  1
  O  O251  1  0.24086622  0.13400322  0.50459196  1
  O  O252  1  0.23335607  0.11485212  0.98024918  1
  O  O253  1  0.24099128  0.63072524  0.49447941  1
  O  O254  1  0.23377156  0.61675837  0.99880056  1
  O  O255  1  0.74738922  0.13063835  0.49699708  1
  O  O256  1  0.74225599  0.12922427  0.99687285  1
  O  O257  1  0.74214678  0.62528306  0.49511314  1
  O  O258  1  0.73560245  0.62072604  1.00448795  1
  O  O259  1  0.26754899  0.38080529  -0.01405399  1
  O  O260  1  0.26261697  0.36401769  0.49255493  1
  O  O261  1  0.26804096  0.88198914  0.00749643  1
  O  O262  1  0.25162854  0.87297821  0.50447568  1
  O  O263  1  0.75555694  0.36751688  0.00377287  1
  O  O264  1  0.75593305  0.36866793  0.50740115  1
  O  O265  1  0.75896076  0.87736699  0.00824985  1
  O  O266  1  0.76006919  0.87480362  0.50646502  1
  O  O267  1  0.13121445  0.49992033  0.23488650  1
  O  O268  1  0.13192425  0.49614389  0.74326528  1
  O  O269  1  0.13105224  0.99120846  0.25009590  1
  O  O270  1  0.13944413  0.98955950  0.75247439  1
  O  O271  1  0.61991662  0.50232734  0.23706741  1
  O  O272  1  0.62375241  0.48833547  0.75530881  1
  O  O273  1  0.62578127  0.98395627  0.25907539  1
  O  O274  1  0.63156620  0.99489867  0.74277590  1
  O  O275  1  0.36985905  0.00742767  0.25588879  1
  O  O276  1  0.36347819  0.00189168  0.75883366  1
  O  O277  1  0.37081403  0.49502424  0.26229292  1
  O  O278  1  0.36547882  0.50913658  0.74188386  1
  O  O279  1  0.87798850  0.01419890  0.24374615  1
  O  O280  1  0.86262733  -0.00001887  0.74739609  1
  O  O281  1  0.88027596  0.51238892  0.24274797  1
  O  O282  1  0.87566474  0.50879486  0.75792749  1
  O  O283  1  0.11973180  0.37002784  0.38271102  1
  O  O284  1  0.11713407  0.37035023  0.86780523  1
  O  O285  1  0.12245421  0.86864153  0.36176155  1
  O  O286  1  0.12562231  0.87807009  0.86208812  1
  O  O287  1  0.61129483  0.37999263  0.38183164  1
  O  O288  1  0.61644076  0.37077216  0.86852420  1
  O  O289  1  0.62268499  0.86669698  0.37133237  1
  O  O290  1  0.62063317  0.88021367  0.86331383  1
  O  O291  1  0.39551652  0.12270346  0.13968259  1
  O  O292  1  0.37918348  0.13808695  0.62793918  1
  O  O293  1  0.39111010  0.61057692  0.12339629  1
  O  O294  1  0.38750520  0.62894528  0.63116604  1
  O  O295  1  0.87496929  0.13313819  0.13157777  1
  O  O296  1  0.88447152  0.13261095  0.62605210  1
  O  O297  1  0.87608906  0.63005746  0.13210607  1
  O  O298  1  0.88581831  0.61513149  0.63364081  1
  O  O299  1  0.27287444  0.21308753  0.09770907  1
  O  O300  1  0.26032572  0.24910653  0.61817942  1
  O  O301  1  0.25319736  0.73691391  0.14538680  1
  O  O302  1  0.25228432  0.76082847  0.61693476  1
  O  O303  1  0.75823358  0.25589665  0.12041521  1
  O  O304  1  0.75833669  0.25973761  0.61780189  1
  O  O305  1  0.76012317  0.75714383  0.13088990  1
  O  O306  1  0.74065512  0.76477338  0.62241905  1
  O  O307  1  0.25393213  0.24601663  0.38233332  1
  O  O308  1  0.24047575  0.24216519  0.87645516  1
  O  O309  1  0.24191675  0.74444956  0.37793479  1
  O  O310  1  0.24207918  0.74830190  0.86598138  1
  O  O311  1  0.75285405  0.23969412  0.39003696  1
  O  O312  1  0.74428617  0.24517344  0.88056077  1
  O  O313  1  0.73852833  0.74228872  0.38088125  1
  O  O314  1  0.74260032  0.74724998  0.87239022  1
  O  O315  1  0.00651359  0.11560716  -0.00662266  1
  O  O316  1  0.00681925  0.11969879  0.50512285  1
  O  O317  1  0.00294624  0.61515604  0.00801328  1
  O  O318  1  0.01143911  0.63197444  0.50634883  1
  O  O319  1  0.50650401  0.13138931  0.01719480  1
  O  O320  1  0.51197093  0.12557088  0.50073880  1
  O  O321  1  0.50710420  0.61696719  0.00906867  1
  O  O322  1  0.50501721  0.61954706  0.50582296  1
  O  O323  1  0.49401797  0.38110602  0.49512162  1
  O  O324  1  0.49619537  0.38136558  0.99332347  1
  O  O325  1  0.49436073  0.87750151  0.49462103  1
  O  O326  1  0.48319013  0.87292530  1.00093110  1
  O  O327  1  0.98841921  0.37138703  0.49184986  1
  O  O328  1  0.99211354  0.37800456  0.98694520  1
  O  O329  1  0.98856841  0.88122665  0.50395771  1
  O  O330  1  0.99061642  0.87978959  1.00057039  1
  O  O331  1  0.49339784  0.49587832  0.38407546  1
  O  O332  1  0.50648258  0.49119925  0.88639172  1
  O  O333  1  0.48915662  0.99347974  0.37420220  1
  O  O334  1  0.48212530  1.00520697  0.86849845  1
  O  O335  1  1.00367946  0.47884458  0.37231034  1
  O  O336  1  0.98954287  0.49074121  0.87897986  1
  O  O337  1  1.00252145  0.99583258  0.38942676  1
  O  O338  1  0.99659034  0.99322604  0.88454946  1
  O  O339  1  0.00396254  0.00187525  0.11022672  1
  O  O340  1  -0.00492269  0.01514559  0.61284799  1
  O  O341  1  0.00911386  0.49731065  0.12144479  1
  O  O342  1  0.01546959  0.51465830  0.63092387  1
  O  O343  1  0.50612858  0.01384288  0.13517299  1
  O  O344  1  0.51105819  0.00356304  0.62618622  1
  O  O345  1  0.50991898  0.50366602  0.11838316  1
  O  O346  1  0.49516827  0.50865523  0.61322292  1
  O  O347  1  0.25541337  0.38618901  0.25529921  1
  O  O348  1  0.23810032  0.38648659  0.75716239  1
  O  O349  1  0.24234898  0.88276760  0.24523063  1
  O  O350  1  0.24619269  0.88033602  0.74148693  1
  O  O351  1  0.75530885  0.36650463  0.23999526  1
  O  O352  1  0.74080786  0.37722339  0.74319975  1
  O  O353  1  0.74302414  0.87477216  0.24432050  1
  O  O354  1  0.74213775  0.88327976  0.74334475  1
  O  O355  1  0.25679828  0.12250134  0.26212192  1
  O  O356  1  0.24746137  0.11850310  0.75729321  1
  O  O357  1  0.24948184  0.61075592  0.25721815  1
  O  O358  1  0.26204101  0.62133080  0.74578782  1
  O  O359  1  0.75724306  0.12210152  0.26029261  1
  O  O360  1  0.74697456  0.11733074  0.75416427  1
  O  O361  1  0.75782732  0.63077954  0.25928350  1
  O  O362  1  0.75932663  0.62218074  0.74860832  1
  O  O363  1  0.38568311  0.11546274  0.36520713  1
  O  O364  1  0.36578482  0.12192946  0.87237795  1
  O  O365  1  0.36869326  0.61263402  0.38360613  1
  O  O366  1  0.38121655  0.62644887  0.86135722  1
  O  O367  1  0.86845554  0.13283359  0.36736027  1
  O  O368  1  0.86618635  0.12269237  0.87101999  1
  O  O369  1  0.86395009  0.63107918  0.36652060  1
  O  O370  1  0.87671750  0.61610960  0.86624252  1
  O  O371  1  0.12380011  0.38196867  0.11726914  1
  O  O372  1  0.11486304  0.38390048  0.63445825  1
  O  O373  1  0.12825749  0.87424101  0.13594806  1
  O  O374  1  0.13680794  0.87314051  0.63098093  1
  O  O375  1  0.63559246  0.38174238  0.11960827  1
  O  O376  1  0.63424931  0.36959417  0.63477907  1
  O  O377  1  0.63407473  0.86410892  0.13580072  1
  O  O378  1  0.63085521  0.88495614  0.63090823  1
  O  O379  1  0.13882599  0.23376233  0.25701671  1
  O  O380  1  0.13058103  0.26105858  0.75828302  1
  O  O381  1  0.11095843  0.75425468  0.25398969  1
  O  O382  1  0.11622129  0.75832047  0.74429452  1
  O  O383  1  0.61650184  0.24906127  0.25082795  1
  O  O384  1  0.61686521  0.26007142  0.75461380  1
  O  O385  1  0.61789733  0.75634819  0.26128402  1
  O  O386  1  0.61624547  0.76247087  0.74689309  1
  O  O387  1  0.37928374  0.23948434  0.24975213  1
  O  O388  1  0.38169777  0.25451499  0.74285361  1
  O  O389  1  0.39069752  0.75054039  0.26494890  1
  O  O390  1  0.38712006  0.74437052  0.74873928  1
  O  O391  1  0.87394559  0.23801646  0.24021504  1
  O  O392  1  0.87020589  0.25061334  0.73602431  1
  O  O393  1  0.88085357  0.74505102  0.24249002  1
  O  O394  1  0.88317954  0.73757197  0.74996961  1
  O  O395  1  0.38074450  0.49326811  0.49484447  1
  O  O396  1  0.38899176  0.48934427  1.00224835  1
  O  O397  1  0.37512468  0.99754812  0.49083820  1
  O  O398  1  0.36985698  1.01531032  0.98784653  1
  O  O399  1  0.87439929  0.48551932  0.50365215  1
  O  O400  1  0.87978765  0.49458061  0.99209912  1
  O  O401  1  0.88232947  0.98847462  0.50230430  1
  O  O402  1  0.88152471  0.98907029  0.99977598  1
  O  O403  1  0.11666098  0.00397212  -0.00463656  1
  O  O404  1  0.11929835  0.01305718  0.49660759  1
  O  O405  1  0.11944961  0.50130539  0.01129899  1
  O  O406  1  0.13411964  0.51148680  0.50811890  1
  O  O407  1  0.62677411  0.01305232  -0.00648181  1
  O  O408  1  0.62527714  0.00838353  0.50888466  1
  O  O409  1  0.61615329  0.50804212  0.00910936  1
  O  O410  1  0.61375876  0.51178132  0.49510064  1
  O  O411  1  0.37857157  0.37566700  0.10951932  1
  O  O412  1  0.38122916  0.36605179  0.61277419  1
  O  O413  1  0.37531085  0.87184930  0.11541239  1
  O  O414  1  0.36445829  0.87527479  0.61807944  1
  O  O415  1  0.86869894  0.36693788  0.12039796  1
  O  O416  1  0.87174510  0.37009167  0.61732206  1
  O  O417  1  0.86651989  0.86555234  0.11759767  1
  O  O418  1  0.86343140  0.88013559  0.61593125  1
  O  O419  1  0.13128700  0.12573030  0.38151521  1
  O  O420  1  0.12690482  0.13224397  0.87363245  1
  O  O421  1  0.12808537  0.62751332  0.38079271  1
  O  O422  1  0.11518050  0.61722864  0.89510786  1
  O  O423  1  0.63575019  0.12126526  0.38828112  1
  O  O424  1  0.62850951  0.13156754  0.88345614  1
  O  O425  1  0.63073597  0.63131936  0.38302875  1
  O  O426  1  0.62584570  0.62273325  0.89293524  1
