# generated using pymatgen
data_V85Zn86O256
_symmetry_space_group_name_H-M   'P 1'
_cell_length_a   16.97638658
_cell_length_b   16.96017888
_cell_length_c   16.97394787
_cell_angle_alpha   89.99488986
_cell_angle_beta   90.00942145
_cell_angle_gamma   89.83439262
_symmetry_Int_Tables_number   1
_chemical_formula_structural   V85Zn86O256
_chemical_formula_sum   'V85 Zn86 O256'
_cell_volume   4887.16190759
_cell_formula_units_Z   1
loop_
 _symmetry_equiv_pos_site_id
 _symmetry_equiv_pos_as_xyz
  1  'x, y, z'
loop_
 _atom_site_type_symbol
 _atom_site_label
 _atom_site_symmetry_multiplicity
 _atom_site_fract_x
 _atom_site_fract_y
 _atom_site_fract_z
 _atom_site_occupancy
  V  V0  1  0.62710292  0.49547181  0.13672323  1
  V  V1  1  0.38659917  0.49461465  0.37466232  1
  V  V2  1  0.49668976  0.75191038  0.24356767  1
  V  V3  1  0.62563572  -0.00002669  0.12329564  1
  V  V4  1  0.24887903  -0.00276331  0.25073301  1
  V  V5  1  0.61814039  0.87201293  0.74807431  1
  V  V6  1  -0.00103872  -0.00583051  0.48868293  1
  V  V7  1  0.87387456  0.62313655  0.74893170  1
  V  V8  1  0.74343082  -0.00128964  0.74529588  1
  V  V9  1  0.50598449  -0.00048441  0.51056123  1
  V  V10  1  0.25082218  0.87364914  0.63344865  1
  V  V11  1  0.62633527  0.12578458  0.50066686  1
  V  V12  1  0.61821955  0.75073849  0.87146512  1
  V  V13  1  0.25510560  0.74539026  0.00645093  1
  V  V14  1  0.50016317  0.62620455  0.11855428  1
  V  V15  1  -0.00364261  0.50690701  0.00595986  1
  V  V16  1  0.25598657  0.86834022  0.12776667  1
  V  V17  1  0.37755639  -0.00121852  0.38089030  1
  V  V18  1  0.87388418  0.12700919  0.74554328  1
  V  V19  1  0.87881100  0.87803832  0.48665709  1
  V  V20  1  0.50014041  0.12585336  0.12418701  1
  V  V21  1  0.25386710  0.25676382  0.51514355  1
  V  V22  1  0.24759614  0.49976051  0.24820846  1
  V  V23  1  0.87637402  -0.00438660  0.87227583  1
  V  V24  1  0.25101653  0.62056150  0.87615125  1
  V  V25  1  0.00164437  0.62406676  0.62723352  1
  V  V26  1  0.12713081  0.37499466  0.74841254  1
  V  V27  1  0.11544439  0.50859530  0.12733641  1
  V  V28  1  0.13044904  0.49670853  0.62828847  1
  V  V29  1  0.49834600  0.49537721  -0.00582605  1
  V  V30  1  -0.00159579  0.12531270  0.12557284  1
  V  V31  1  0.37571887  0.12711814  0.25151030  1
  V  V32  1  0.86289851  0.50700744  0.37425940  1
  V  V33  1  -0.00293548  0.37522061  0.87731175  1
  V  V34  1  0.37593040  0.37815381  -0.00625424  1
  V  V35  1  0.51122185  0.25561397  0.25841893  1
  V  V36  1  0.13057861  -0.00574636  0.63682630  1
  V  V37  1  0.75282360  -0.00123438  0.25419331  1
  V  V38  1  0.88005354  0.87315001  -0.00423546  1
  V  V39  1  0.74427778  0.87793948  0.62097236  1
  V  V40  1  0.75236347  0.74317741  0.49402903  1
  V  V41  1  0.11834507  0.37609870  0.25657660  1
  V  V42  1  0.88278488  0.36714893  0.49716843  1
  V  V43  1  0.00329173  0.49900362  0.49171882  1
  V  V44  1  0.50082973  0.87499597  0.37537931  1
  V  V45  1  0.48793870  0.62336955  0.63970338  1
  V  V46  1  0.37375947  0.25385208  0.12743687  1
  V  V47  1  0.12683235  0.12172931  0.50057399  1
  V  V48  1  0.37397999  0.62944040  0.24210266  1
  V  V49  1  0.25082783  0.62644897  0.37589598  1
  V  V50  1  0.25027767  0.11875295  0.87270730  1
  V  V51  1  0.74939862  0.74706234  -0.00370235  1
  V  V52  1  -0.00120251  -0.00175054  -0.00064422  1
  V  V53  1  0.75806535  0.36552879  0.62582720  1
  V  V54  1  0.87496925  0.75162532  0.62244624  1
  V  V55  1  0.86508872  0.62449111  0.25321199  1
  V  V56  1  0.49588830  -0.00124112  -0.00465458  1
  V  V57  1  0.74543892  0.37781257  0.13599150  1
  V  V58  1  -0.00184433  0.12583971  0.62531189  1
  V  V59  1  0.00614625  0.76464010  0.75277866  1
  V  V60  1  0.12171983  0.24964078  0.87746439  1
  V  V61  1  -0.00329416  0.24880086  0.74891452  1
  V  V62  1  0.74989786  0.87478586  0.12303403  1
  V  V63  1  0.12100821  0.75955121  0.37762467  1
  V  V64  1  0.61623216  0.62191438  0.50056224  1
  V  V65  1  0.24830724  0.25093339  0.00212726  1
  V  V66  1  0.74509538  0.12700401  0.37593859  1
  V  V67  1  0.12832267  0.62645640  0.50071489  1
  V  V68  1  0.74816381  0.25050737  -0.00173108  1
  V  V69  1  0.25910313  0.74938574  0.50323367  1
  V  V70  1  0.87385394  0.37483792  0.00127366  1
  V  V71  1  0.50431173  0.14352635  0.63050437  1
  V  V72  1  0.62953665  0.74597403  0.37118013  1
  V  V73  1  0.37079293  0.13469306  0.74291698  1
  V  V74  1  0.74855326  0.49828801  0.74651511  1
  V  V75  1  -0.00168458  0.25330484  0.25883701  1
  V  V76  1  0.88375778  0.74133388  0.12299988  1
  V  V77  1  0.87264847  0.25094845  0.12853022  1
  V  V78  1  0.61246551  0.25862745  0.86878437  1
  V  V79  1  0.62484421  0.12582108  -0.00257850  1
  V  V80  1  -0.00034561  0.75103865  0.25390516  1
  V  V81  1  0.25593921  0.50018412  0.75956141  1
  V  V82  1  0.87510585  0.12047689  0.25759319  1
  V  V83  1  0.25086525  0.12939332  0.37765750  1
  V  V84  1  0.12296469  0.12615714  0.00135557  1
  Zn  Zn85  1  0.62490025  0.87558579  0.24804746  1
  Zn  Zn86  1  0.62425268  0.49592269  0.61714150  1
  Zn  Zn87  1  0.37667913  0.86928262  0.00203219  1
  Zn  Zn88  1  0.62557378  0.62056992  -0.00415700  1
  Zn  Zn89  1  0.11859705  0.75940282  0.88136373  1
  Zn  Zn90  1  0.11636857  0.63232548  0.00261553  1
  Zn  Zn91  1  0.39341000  0.36511596  0.50034128  1
  Zn  Zn92  1  0.54122746  0.38042102  0.37354975  1
  Zn  Zn93  1  0.48825163  0.87430851  0.86748838  1
  Zn  Zn94  1  0.75099220  0.24931182  0.49830209  1
  Zn  Zn95  1  0.38145567  0.86938288  0.51083918  1
  Zn  Zn96  1  0.24640298  0.37703280  0.12511457  1
  Zn  Zn97  1  0.60944376  0.37112371  0.74359875  1
  Zn  Zn98  1  0.44216647  0.43236540  0.82639498  1
  Zn  Zn99  1  0.37057498  -0.00008308  0.87133114  1
  Zn  Zn100  1  0.11549837  0.87981594  0.25482887  1
  Zn  Zn101  1  0.74794833  0.62227327  0.87272919  1
  Zn  Zn102  1  0.12268478  0.25766847  0.38034500  1
  Zn  Zn103  1  0.12577441  -0.00076006  0.12637070  1
  Zn  Zn104  1  0.74774424  0.12549968  0.87089070  1
  Zn  Zn105  1  0.87313128  0.49965935  0.87670470  1
  Zn  Zn106  1  0.41714628  0.77774505  0.68954936  1
  Zn  Zn107  1  0.18509760  0.18750237  0.18901609  1
  Zn  Zn108  1  0.18459366  0.18621424  0.69000428  1
  Zn  Zn109  1  0.18378134  0.68971250  0.18881041  1
  Zn  Zn110  1  0.19291265  0.68737276  0.69045310  1
  Zn  Zn111  1  0.68845236  0.18572030  0.18590484  1
  Zn  Zn112  1  0.68486010  0.18759656  0.68548506  1
  Zn  Zn113  1  0.68677876  0.68563220  0.18317516  1
  Zn  Zn114  1  0.68603119  0.69034628  0.68269100  1
  Zn  Zn115  1  0.31197883  0.31503721  0.31395288  1
  Zn  Zn116  1  0.30863974  0.30672869  0.81089074  1
  Zn  Zn117  1  0.31318514  0.81258082  0.31645537  1
  Zn  Zn118  1  0.28166423  0.82957566  0.83189300  1
  Zn  Zn119  1  0.80259506  0.31796441  0.32268850  1
  Zn  Zn120  1  0.81078791  0.31174016  0.81420706  1
  Zn  Zn121  1  0.81294554  0.81194299  0.30893950  1
  Zn  Zn122  1  0.81194499  0.81157816  0.80936207  1
  Zn  Zn123  1  0.18997334  0.44035885  0.43579036  1
  Zn  Zn124  1  0.18221769  0.43619210  0.94191065  1
  Zn  Zn125  1  0.19108181  0.93641301  0.44522300  1
  Zn  Zn126  1  0.18145038  0.93223238  0.94157433  1
  Zn  Zn127  1  0.69300281  0.43845223  0.43694406  1
  Zn  Zn128  1  0.68496408  0.43830809  0.93840195  1
  Zn  Zn129  1  0.68592637  0.93709316  0.43612117  1
  Zn  Zn130  1  0.68676740  0.93619203  0.93321911  1
  Zn  Zn131  1  0.31132657  0.06424809  0.06409099  1
  Zn  Zn132  1  0.31545039  0.06392555  0.56703981  1
  Zn  Zn133  1  0.31153011  0.56291155  0.05937645  1
  Zn  Zn134  1  0.33203704  0.52889481  0.57771391  1
  Zn  Zn135  1  0.81249625  0.06383250  0.06496404  1
  Zn  Zn136  1  0.81412006  0.05763899  0.56020847  1
  Zn  Zn137  1  0.81167226  0.56224675  0.06596646  1
  Zn  Zn138  1  0.81296881  0.55852824  0.56218439  1
  Zn  Zn139  1  0.44114175  0.43604575  0.18905084  1
  Zn  Zn140  1  0.44671643  0.42646952  0.65677838  1
  Zn  Zn141  1  0.43641878  0.93887618  0.18609359  1
  Zn  Zn142  1  0.43066387  0.95113039  0.69235017  1
  Zn  Zn143  1  0.93348277  0.43731847  0.19072388  1
  Zn  Zn144  1  0.93889596  0.43685130  0.68504245  1
  Zn  Zn145  1  0.93528355  0.93335799  0.18574802  1
  Zn  Zn146  1  0.93428853  0.94102052  0.67586814  1
  Zn  Zn147  1  0.06379451  0.06603148  0.31283157  1
  Zn  Zn148  1  0.06195637  0.05923724  0.81587031  1
  Zn  Zn149  1  0.05929538  0.57234834  0.31029748  1
  Zn  Zn150  1  0.06483426  0.56402492  0.82006522  1
  Zn  Zn151  1  0.56387568  0.06495046  0.31259799  1
  Zn  Zn152  1  0.56140503  0.06744289  0.81166857  1
  Zn  Zn153  1  0.56468676  0.56749389  0.31194130  1
  Zn  Zn154  1  0.56702095  0.56432689  0.80908903  1
  Zn  Zn155  1  0.43973068  0.19036837  0.44332008  1
  Zn  Zn156  1  0.43442548  0.18871565  0.93637409  1
  Zn  Zn157  1  0.43869884  0.68233996  0.43184617  1
  Zn  Zn158  1  0.41160075  0.70747389  0.86600365  1
  Zn  Zn159  1  0.93774209  0.18000243  0.43652068  1
  Zn  Zn160  1  0.93353649  0.18546183  0.93532343  1
  Zn  Zn161  1  0.93971190  0.68770029  0.43674030  1
  Zn  Zn162  1  0.93745193  0.68772293  0.93026089  1
  Zn  Zn163  1  0.06033809  0.31668551  0.06925423  1
  Zn  Zn164  1  0.06505160  0.31072766  0.56308715  1
  Zn  Zn165  1  0.06853560  0.81580422  0.06954986  1
  Zn  Zn166  1  0.06315484  0.81269288  0.56389677  1
  Zn  Zn167  1  0.56112686  0.31372108  0.06319121  1
  Zn  Zn168  1  0.57216720  0.31593139  0.55327414  1
  Zn  Zn169  1  0.56285576  0.81362816  0.05916969  1
  Zn  Zn170  1  0.56156579  0.80590338  0.56215833  1
  O  O171  1  0.11741472  0.12236776  0.11946731  1
  O  O172  1  0.12115585  0.11336843  0.61848549  1
  O  O173  1  0.12269710  0.61180003  0.12731707  1
  O  O174  1  0.11660147  0.61826337  0.62211757  1
  O  O175  1  0.62018885  0.11968816  0.11654685  1
  O  O176  1  0.61154235  0.12456554  0.62056430  1
  O  O177  1  0.61858606  0.61368363  0.12105642  1
  O  O178  1  0.62057966  0.63109171  0.60935352  1
  O  O179  1  0.36659819  0.39161845  0.37950200  1
  O  O180  1  0.37061186  0.36798162  0.88924122  1
  O  O181  1  0.38122049  0.88611473  0.37782079  1
  O  O182  1  0.37217256  0.88526983  0.88472030  1
  O  O183  1  0.86937329  0.38962120  0.38923168  1
  O  O184  1  0.88004191  0.37473984  0.88293543  1
  O  O185  1  0.87106646  0.87141668  0.38763165  1
  O  O186  1  0.86966629  0.88367652  0.88402389  1
  O  O187  1  0.25839060  0.00778269  0.37283140  1
  O  O188  1  0.24630083  0.01776388  0.88614419  1
  O  O189  1  0.25212250  0.50781077  0.36230142  1
  O  O190  1  0.23329684  0.50982366  0.87157487  1
  O  O191  1  0.74601827  0.00579904  0.36081773  1
  O  O192  1  0.75967050  0.00124686  0.86511699  1
  O  O193  1  0.76552486  0.50963776  0.37913802  1
  O  O194  1  0.75291630  0.49999199  0.86317356  1
  O  O195  1  0.23983723  0.50154407  0.13719994  1
  O  O196  1  0.23266090  0.51205155  0.64103521  1
  O  O197  1  0.25095207  0.99605069  0.13778122  1
  O  O198  1  0.23911449  0.99093121  0.61712550  1
  O  O199  1  0.73507378  0.49313666  0.11862264  1
  O  O200  1  0.74990147  0.49045200  0.63105876  1
  O  O201  1  0.74540603  0.99581300  0.13121938  1
  O  O202  1  0.75493976  0.98898329  0.63403069  1
  O  O203  1  0.00467681  0.36342755  0.24660349  1
  O  O204  1  0.00438628  0.36910345  0.75523228  1
  O  O205  1  -0.00248024  0.85974047  0.24702071  1
  O  O206  1  -0.00762291  0.86271544  0.73819004  1
  O  O207  1  0.49690626  0.35972435  0.25628692  1
  O  O208  1  0.49830918  0.38544595  0.74311204  1
  O  O209  1  0.50065652  0.86703899  0.25336442  1
  O  O210  1  0.51221442  0.88074747  0.74508699  1
  O  O211  1  0.49373238  0.13007405  0.24281509  1
  O  O212  1  0.49537013  0.12623403  0.73583608  1
  O  O213  1  0.49376875  0.63264438  0.24047407  1
  O  O214  1  0.50086602  0.62713851  0.74086485  1
  O  O215  1  0.99262230  0.12934077  0.24590955  1
  O  O216  1  0.99319155  0.12640236  0.74419840  1
  O  O217  1  0.98721732  0.64139763  0.25273447  1
  O  O218  1  0.99106514  0.62498192  0.74046576  1
  O  O219  1  0.37045062  0.25697128  0.00984234  1
  O  O220  1  0.35718053  0.24961242  0.49695536  1
  O  O221  1  0.35624696  0.74844816  -0.00730298  1
  O  O222  1  0.36299931  0.74793573  0.49090249  1
  O  O223  1  0.86693127  0.25279055  0.00677266  1
  O  O224  1  0.87945651  0.26446800  0.49214100  1
  O  O225  1  0.87165051  0.75466324  0.00302384  1
  O  O226  1  0.87016802  0.75625848  0.50239976  1
  O  O227  1  0.13036581  0.23655350  0.49921875  1
  O  O228  1  0.12656797  0.24660542  0.99812797  1
  O  O229  1  0.13200458  0.74626885  0.49481953  1
  O  O230  1  0.13199407  0.74991018  1.00285486  1
  O  O231  1  0.63336787  0.22958345  0.50427008  1
  O  O232  1  0.63105501  0.24740290  0.99347883  1
  O  O233  1  0.63339355  0.74272462  0.49040323  1
  O  O234  1  0.63550861  0.75021927  0.99175068  1
  O  O235  1  0.49029338  0.24641501  0.13267379  1
  O  O236  1  0.50268230  0.24142215  0.62047297  1
  O  O237  1  0.50900888  0.74096828  0.13399658  1
  O  O238  1  0.49524592  0.73584396  0.62141477  1
  O  O239  1  0.99274900  0.24439258  0.13523169  1
  O  O240  1  1.00896357  0.23291262  0.63102226  1
  O  O241  1  0.98851262  0.75323871  0.13109213  1
  O  O242  1  0.99531401  0.74024807  0.63029554  1
  O  O243  1  0.00397519  0.23978215  0.36262042  1
  O  O244  1  0.00292746  0.25362501  0.86981382  1
  O  O245  1  0.01169174  0.74755751  0.37057702  1
  O  O246  1  -0.00179317  0.75192408  0.85737846  1
  O  O247  1  0.49648796  0.23890939  0.35764351  1
  O  O248  1  0.51374554  0.24923123  0.88011781  1
  O  O249  1  0.50771487  0.75415678  0.36434806  1
  O  O250  1  0.51427008  0.75507282  0.87992542  1
  O  O251  1  0.24478728  0.13125356  0.49616229  1
  O  O252  1  0.24281632  0.13227128  0.99589292  1
  O  O253  1  0.24359560  0.63380014  0.49560379  1
  O  O254  1  0.24139792  0.62755254  0.99822953  1
  O  O255  1  0.74536312  0.11909843  0.49350151  1
  O  O256  1  0.74509996  0.13560671  1.00137265  1
  O  O257  1  0.74751010  0.64008270  0.50581558  1
  O  O258  1  0.75153481  0.63674427  0.99767915  1
  O  O259  1  0.25640794  0.36984147  0.00422238  1
  O  O260  1  0.23613935  0.35462224  0.49419779  1
  O  O261  1  0.24905681  0.86646825  0.01491786  1
  O  O262  1  0.25743240  0.86597012  0.50795031  1
  O  O263  1  0.75370790  0.36642286  0.00828188  1
  O  O264  1  0.76495865  0.37457201  0.51122391  1
  O  O265  1  0.75962567  0.86744959  0.00242576  1
  O  O266  1  0.75503492  0.87002375  0.50467170  1
  O  O267  1  0.12623410  0.49719261  0.24688265  1
  O  O268  1  0.12280075  0.49107806  0.74519419  1
  O  O269  1  0.13752495  1.00007880  0.25314169  1
  O  O270  1  0.12247670  1.00443781  0.73530774  1
  O  O271  1  0.62248185  0.50420764  0.23536538  1
  O  O272  1  0.64014952  0.49538071  0.74708193  1
  O  O273  1  0.63449584  1.00034997  0.24208162  1
  O  O274  1  0.63767227  0.99107719  0.75792565  1
  O  O275  1  0.36848196  0.00604116  0.26100253  1
  O  O276  1  0.37821397  0.02422213  0.75807951  1
  O  O277  1  0.36537416  0.50544003  0.25392423  1
  O  O278  1  0.35434511  0.48500917  0.75753000  1
  O  O279  1  0.86443461  0.00946471  0.23988162  1
  O  O280  1  0.86901772  0.00454498  0.75521348  1
  O  O281  1  0.88371793  0.50767299  0.26699796  1
  O  O282  1  0.86852431  0.50823517  0.74740019  1
  O  O283  1  0.12647822  0.37607392  0.36100068  1
  O  O284  1  0.11549305  0.36847984  0.86940393  1
  O  O285  1  0.13372599  0.86363552  0.37525085  1
  O  O286  1  0.16851168  0.85979963  0.86092520  1
  O  O287  1  0.65152489  0.36409945  0.37065625  1
  O  O288  1  0.62791147  0.36177570  0.87350886  1
  O  O289  1  0.61859609  0.86470479  0.37198062  1
  O  O290  1  0.62415168  0.86749000  0.86422940  1
  O  O291  1  0.37869450  0.13571226  0.13027037  1
  O  O292  1  0.38501354  0.12634075  0.63462390  1
  O  O293  1  0.38343090  0.61726744  0.13603879  1
  O  O294  1  0.38823884  0.61732005  0.62471275  1
  O  O295  1  0.87777988  0.13171999  0.13542191  1
  O  O296  1  0.88710214  0.11421335  0.63410600  1
  O  O297  1  0.87163504  0.63481520  0.13310861  1
  O  O298  1  0.88353532  0.62860901  0.62887004  1
  O  O299  1  0.25873973  0.24954815  0.12196119  1
  O  O300  1  0.24400823  0.24668625  0.61404003  1
  O  O301  1  0.24673210  0.75714874  0.12225184  1
  O  O302  1  0.24273930  0.76225701  0.61680396  1
  O  O303  1  0.75148286  0.25671959  0.11662088  1
  O  O304  1  0.75353004  0.26173714  0.62377216  1
  O  O305  1  0.75733179  0.75423179  0.11420381  1
  O  O306  1  0.75583564  0.75878861  0.61409325  1
  O  O307  1  0.24740515  0.23741591  0.37773623  1
  O  O308  1  0.24008658  0.24111034  0.88314167  1
  O  O309  1  0.24304180  0.74523922  0.38231835  1
  O  O310  1  0.24283549  0.72871683  0.88942465  1
  O  O311  1  0.75743630  0.23093077  0.37953788  1
  O  O312  1  0.74517489  0.24871486  0.88772674  1
  O  O313  1  0.74009270  0.75691020  0.38178066  1
  O  O314  1  0.74467756  0.75074739  0.88347560  1
  O  O315  1  0.00147782  0.11845124  0.00523306  1
  O  O316  1  0.00665651  0.11737946  0.50696574  1
  O  O317  1  -0.00552657  0.61076501  -0.00405095  1
  O  O318  1  0.00597157  0.61927789  0.50992048  1
  O  O319  1  0.50540807  0.11990282  0.00518611  1
  O  O320  1  0.50579240  0.12043543  0.51052001  1
  O  O321  1  0.49788580  0.61405512  0.01457018  1
  O  O322  1  0.51408050  0.62847813  0.50013832  1
  O  O323  1  0.50347400  0.35904555  0.47903441  1
  O  O324  1  0.48952739  0.38373068  1.00540623  1
  O  O325  1  0.50027071  0.88194733  0.49567736  1
  O  O326  1  0.49783781  0.88687948  0.99973607  1
  O  O327  1  0.99019475  0.38317404  0.50742249  1
  O  O328  1  0.99240898  0.38043233  0.99725972  1
  O  O329  1  0.99049727  0.88224993  0.50866959  1
  O  O330  1  0.98918111  0.88435469  1.00704086  1
  O  O331  1  0.48956592  0.49403621  0.35901719  1
  O  O332  1  0.50339934  0.50651942  0.88906620  1
  O  O333  1  0.49293909  0.99747256  0.38147129  1
  O  O334  1  0.50254867  1.00058207  0.88616890  1
  O  O335  1  1.00197102  0.50587421  0.38969055  1
  O  O336  1  0.99699944  0.49195126  0.88624147  1
  O  O337  1  1.00821566  1.00267070  0.38955452  1
  O  O338  1  0.98848410  1.00423019  0.88689289  1
  O  O339  1  -0.00266241  0.00588358  0.11490032  1
  O  O340  1  0.01327170  0.00767552  0.61757985  1
  O  O341  1  0.00364508  0.49374737  0.11771539  1
  O  O342  1  0.00776734  0.50793226  0.61702693  1
  O  O343  1  0.50557749  0.00613240  0.11848822  1
  O  O344  1  0.49422610  0.00589538  0.61205017  1
  O  O345  1  0.51032799  0.50437405  0.12105942  1
  O  O346  1  0.51220655  0.52039443  0.62265611  1
  O  O347  1  0.24064553  0.38534381  0.24896900  1
  O  O348  1  0.23192577  0.38074432  0.76147316  1
  O  O349  1  0.25297216  0.88470339  0.24758687  1
  O  O350  1  0.24590022  0.87699220  0.72946783  1
  O  O351  1  0.75641976  0.37054775  0.23441209  1
  O  O352  1  0.76112630  0.38130378  0.73592337  1
  O  O353  1  0.75064543  0.88352317  0.24214673  1
  O  O354  1  0.74485371  0.88072304  0.74064310  1
  O  O355  1  0.25378050  0.11786147  0.25885074  1
  O  O356  1  0.25970584  0.13107808  0.75768480  1
  O  O357  1  0.25586372  0.62028539  0.25331237  1
  O  O358  1  0.24025092  0.61543009  0.76615424  1
  O  O359  1  0.75587250  0.11903368  0.25532197  1
  O  O360  1  0.75766094  0.11540168  0.74459696  1
  O  O361  1  0.76483766  0.63180863  0.24875761  1
  O  O362  1  0.75923632  0.61740967  0.74267401  1
  O  O363  1  0.36789463  0.11646422  0.37345624  1
  O  O364  1  0.36482380  0.12779863  0.86853028  1
  O  O365  1  0.37279037  0.61818177  0.35663892  1
  O  O366  1  0.35133062  0.61372032  0.88421760  1
  O  O367  1  0.86815386  0.12144967  0.36317449  1
  O  O368  1  0.87161159  0.11375232  0.86452250  1
  O  O369  1  0.87965172  0.61492720  0.37120924  1
  O  O370  1  0.87084486  0.62292298  0.85959919  1
  O  O371  1  0.12586658  0.38575382  0.13843537  1
  O  O372  1  0.11607974  0.38496064  0.63665660  1
  O  O373  1  0.13797203  0.88159819  0.13520118  1
  O  O374  1  0.13347200  0.88803662  0.61821066  1
  O  O375  1  0.62962425  0.38697569  0.12237795  1
  O  O376  1  0.64376210  0.37590828  0.62344267  1
  O  O377  1  0.63293358  0.88103124  0.12511024  1
  O  O378  1  0.63699282  0.86553605  0.63160744  1
  O  O379  1  0.11649169  0.25781908  0.25086742  1
  O  O380  1  0.11749877  0.25654432  0.75582735  1
  O  O381  1  0.11663493  0.75030241  0.26050451  1
  O  O382  1  0.10585990  0.74618357  0.74269674  1
  O  O383  1  0.60936518  0.24370470  0.24261234  1
  O  O384  1  0.63245376  0.25256955  0.76500724  1
  O  O385  1  0.61719793  0.74902376  0.25554491  1
  O  O386  1  0.63544066  0.76096986  0.75947090  1
  O  O387  1  0.37789341  0.24637139  0.24300822  1
  O  O388  1  0.37667906  0.23567443  0.75519128  1
  O  O389  1  0.38568201  0.74199239  0.25555606  1
  O  O390  1  0.35980764  0.75850696  0.77910927  1
  O  O391  1  0.88039572  0.24189912  0.24856238  1
  O  O392  1  0.87893193  0.23445500  0.75652856  1
  O  O393  1  0.87927646  0.74500115  0.24243845  1
  O  O394  1  0.88146878  0.74171031  0.74264818  1
  O  O395  1  0.37321243  0.52152394  0.46942424  1
  O  O396  1  0.38338673  0.48749466  1.01026246  1
  O  O397  1  0.38356288  1.00187483  0.49165618  1
  O  O398  1  0.38876347  1.00705992  1.00069709  1
  O  O399  1  0.88453711  0.49748607  0.49055877  1
  O  O400  1  0.87979983  0.49308918  1.00179504  1
  O  O401  1  0.88724113  0.98989284  0.50536114  1
  O  O402  1  0.87828041  0.99387372  0.99344779  1
  O  O403  1  0.11263057  0.00541506  0.00037547  1
  O  O404  1  0.12067107  0.00833822  0.50683214  1
  O  O405  1  0.11240438  0.49705664  0.01278182  1
  O  O406  1  0.12236472  0.50367644  0.50881270  1
  O  O407  1  0.61978332  0.00500458  0.00319486  1
  O  O408  1  0.61531582  0.00894697  0.49590969  1
  O  O409  1  0.61425725  0.50084338  0.00730283  1
  O  O410  1  0.63869709  0.52087383  0.49655016  1
  O  O411  1  0.37220688  0.36557881  0.12050800  1
  O  O412  1  0.36026857  0.41767608  0.59278218  1
  O  O413  1  0.36186303  0.87909230  0.12338797  1
  O  O414  1  0.36438553  0.87563452  0.62891395  1
  O  O415  1  0.86584560  0.37053240  0.12053724  1
  O  O416  1  0.86921693  0.38047833  0.61083264  1
  O  O417  1  0.86872905  0.86475421  0.11360644  1
  O  O418  1  0.86281613  0.86956086  0.61567748  1
  O  O419  1  0.13572411  0.12374266  0.38596372  1
  O  O420  1  0.12838388  0.13055830  0.88069482  1
  O  O421  1  0.13148214  0.63449087  0.38146746  1
  O  O422  1  0.12733728  0.63259978  0.88320839  1
  O  O423  1  0.63504371  0.11989401  0.38439014  1
  O  O424  1  0.62878244  0.13738306  0.87925400  1
  O  O425  1  0.62114293  0.63724610  0.38390509  1
  O  O426  1  0.62984262  0.63640148  0.87607532  1
