# generated using pymatgen
data_V85Zn86O256
_symmetry_space_group_name_H-M   'P 1'
_cell_length_a   16.98166105
_cell_length_b   16.97145325
_cell_length_c   16.98279677
_cell_angle_alpha   90.00954614
_cell_angle_beta   89.77548658
_cell_angle_gamma   89.95326180
_symmetry_Int_Tables_number   1
_chemical_formula_structural   V85Zn86O256
_chemical_formula_sum   'V85 Zn86 O256'
_cell_volume   4894.46162622
_cell_formula_units_Z   1
loop_
 _symmetry_equiv_pos_site_id
 _symmetry_equiv_pos_as_xyz
  1  'x, y, z'
loop_
 _atom_site_type_symbol
 _atom_site_label
 _atom_site_symmetry_multiplicity
 _atom_site_fract_x
 _atom_site_fract_y
 _atom_site_fract_z
 _atom_site_occupancy
  V  V0  1  0.74493109  0.89099812  0.62216806  1
  V  V1  1  -0.00492211  0.62330374  0.13261183  1
  V  V2  1  0.50689424  0.25520262  0.24813303  1
  V  V3  1  0.49797308  0.76180159  0.75604683  1
  V  V4  1  0.37820765  0.23601489  0.62740034  1
  V  V5  1  0.36256064  0.75283194  0.11072499  1
  V  V6  1  0.12625613  0.37485993  0.74962330  1
  V  V7  1  0.38493399  0.87554696  0.49546933  1
  V  V8  1  0.37508650  0.75272159  0.62766513  1
  V  V9  1  0.87007156  0.36982383  0.49974555  1
  V  V10  1  0.37570886  0.50003497  0.87570954  1
  V  V11  1  0.62793400  0.24853468  0.37536772  1
  V  V12  1  0.50258285  0.37716219  0.37451531  1
  V  V13  1  0.13358141  0.24825544  0.87592538  1
  V  V14  1  0.85939284  0.50828200  0.36663235  1
  V  V15  1  0.73395695  0.23201390  0.52128348  1
  V  V16  1  0.25428327  -0.00471892  0.24100718  1
  V  V17  1  0.25153248  0.24875811  0.49907715  1
  V  V18  1  -0.00179954  0.75618782  0.25568444  1
  V  V19  1  0.88688633  0.87570210  0.49352955  1
  V  V20  1  0.24986274  0.12336064  0.37637926  1
  V  V21  1  0.75144975  0.25266982  -0.00062035  1
  V  V22  1  0.24832650  0.62823863  0.87949067  1
  V  V23  1  0.88299817  0.24583374  0.62781535  1
  V  V24  1  0.36648971  0.37828108  0.00558824  1
  V  V25  1  0.49768691  0.23041611  0.74922382  1
  V  V26  1  0.74899825  0.12324942  0.38022272  1
  V  V27  1  0.63305957  0.62500274  0.49687981  1
  V  V28  1  0.12566357  -0.00012172  0.12239795  1
  V  V29  1  0.62136609  0.76098042  0.87582141  1
  V  V30  1  0.12800835  0.37502090  0.24361967  1
  V  V31  1  0.49915680  0.62540826  0.12514642  1
  V  V32  1  0.61981621  0.37466457  0.75455387  1
  V  V33  1  0.62478819  0.74910708  0.37443915  1
  V  V34  1  0.75391501  0.62873256  0.87125888  1
  V  V35  1  0.87636236  0.11411759  0.75560793  1
  V  V36  1  0.37436263  0.62781959  0.75206108  1
  V  V37  1  -0.00297131  0.37494838  0.37208492  1
  V  V38  1  0.63035465  -0.00804368  0.12706022  1
  V  V39  1  0.37503828  0.49989127  0.37603144  1
  V  V40  1  -0.00537339  0.37519037  0.87853231  1
  V  V41  1  0.87568975  0.12439124  0.24677998  1
  V  V42  1  0.87346473  0.25541321  0.12135405  1
  V  V43  1  0.50284803  0.49935011  0.00119710  1
  V  V44  1  0.50991546  0.01459453  0.51033098  1
  V  V45  1  0.24666491  0.62564534  0.37592840  1
  V  V46  1  0.25033128  0.74939372  0.49831969  1
  V  V47  1  -0.00251293  0.49781189  0.49965676  1
  V  V48  1  0.25009216  0.87726799  0.62235117  1
  V  V49  1  -0.00545260  0.49847676  0.00063566  1
  V  V50  1  0.25113571  0.49984989  0.74869707  1
  V  V51  1  0.12436704  0.62479545  0.49883577  1
  V  V52  1  0.38418526  -0.00422562  0.37206165  1
  V  V53  1  0.86969211  0.74635306  0.62988810  1
  V  V54  1  0.12233886  0.87100002  0.74432424  1
  V  V55  1  0.12083985  0.74892724  0.87360837  1
  V  V56  1  0.24823698  0.49628658  0.24305541  1
  V  V57  1  0.62437390  0.50096485  0.62757247  1
  V  V58  1  0.11419416  0.00771172  0.61539892  1
  V  V59  1  0.74404406  0.38493661  0.12827336  1
  V  V60  1  0.50008591  0.50040761  0.50127054  1
  V  V61  1  0.62270190  0.12485428  0.00174271  1
  V  V62  1  0.74892202  0.75517883  0.00776957  1
  V  V63  1  0.88737401  -0.00522025  0.37434422  1
  V  V64  1  0.49992324  0.62634567  0.62744680  1
  V  V65  1  0.49552276  -0.01951865  0.00226012  1
  V  V66  1  0.87521375  0.50339851  0.87107230  1
  V  V67  1  0.00097951  0.24571563  0.74915972  1
  V  V68  1  0.12444800  0.24946804  0.37422090  1
  V  V69  1  0.75021653  0.50359946  0.75249005  1
  V  V70  1  0.61636022  0.87388154  0.25622151  1
  V  V71  1  0.12494230  0.49915649  0.62315732  1
  V  V72  1  -0.00580942  0.62457624  0.63009929  1
  V  V73  1  0.75101177  -0.01037758  0.24906678  1
  V  V74  1  0.37209795  0.62867840  0.25047834  1
  V  V75  1  0.12839348  0.13045712  0.00055786  1
  V  V76  1  0.25229514  0.01588416  0.75119673  1
  V  V77  1  0.25257825  0.37397386  0.62336025  1
  V  V78  1  0.36889492  0.25914419  0.12721458  1
  V  V79  1  0.12461102  0.62967256  0.00161471  1
  V  V80  1  0.87947327  0.87777749  -0.00162911  1
  V  V81  1  0.75309080  0.37651662  0.63045719  1
  V  V82  1  0.62471708  0.62204361  0.00230019  1
  V  V83  1  0.37897822  0.12755108  0.24689955  1
  V  V84  1  0.87123720  0.74905650  0.12966008  1
  Zn  Zn85  1  0.10313413  0.12182405  0.49514355  1
  Zn  Zn86  1  0.25146478  0.25555364  -0.00046092  1
  Zn  Zn87  1  0.49221173  0.75900570  0.25475378  1
  Zn  Zn88  1  0.12632522  0.49597852  0.12092307  1
  Zn  Zn89  1  0.37761042  0.37353090  0.50164457  1
  Zn  Zn90  1  0.50271836  0.12512108  0.12533302  1
  Zn  Zn91  1  0.63400022  0.40504664  0.24976642  1
  Zn  Zn92  1  0.12716182  0.87508476  0.24863477  1
  Zn  Zn93  1  0.61732166  0.88518293  0.74144495  1
  Zn  Zn94  1  -0.00550510  0.00612010  -0.00742303  1
  Zn  Zn95  1  0.73751155  -0.00166386  0.76172588  1
  Zn  Zn96  1  0.75067693  0.75003773  0.49517729  1
  Zn  Zn97  1  0.26046953  0.88588431  0.08686587  1
  Zn  Zn98  1  0.11652017  0.75963583  0.37863134  1
  Zn  Zn99  1  0.62540932  0.24476674  0.87540009  1
  Zn  Zn100  1  -0.00203047  0.12457595  0.12339818  1
  Zn  Zn101  1  -0.00780019  0.74302682  0.75260955  1
  Zn  Zn102  1  0.00026662  0.24980242  0.24639038  1
  Zn  Zn103  1  0.49909950  0.36836628  0.87862080  1
  Zn  Zn104  1  0.36698864  0.00514056  0.88013739  1
  Zn  Zn105  1  -0.01074068  0.88170045  0.86615371  1
  Zn  Zn106  1  0.75758446  0.11616315  0.88244743  1
  Zn  Zn107  1  0.18807125  0.18558999  0.18672386  1
  Zn  Zn108  1  0.18482843  0.18951683  0.68210090  1
  Zn  Zn109  1  0.18385573  0.68702906  0.18652232  1
  Zn  Zn110  1  0.18654156  0.68609177  0.68621884  1
  Zn  Zn111  1  0.69161853  0.18427470  0.18603595  1
  Zn  Zn112  1  0.69311651  0.18574223  0.69380865  1
  Zn  Zn113  1  0.68448275  0.67976073  0.19298422  1
  Zn  Zn114  1  0.68466151  0.69357407  0.68778813  1
  Zn  Zn115  1  0.31353012  0.31407750  0.31376523  1
  Zn  Zn116  1  0.31876793  0.31253941  0.81167717  1
  Zn  Zn117  1  0.30890293  0.81360489  0.31376179  1
  Zn  Zn118  1  0.30471592  0.81973786  0.82058839  1
  Zn  Zn119  1  0.80884756  0.31311050  0.31019960  1
  Zn  Zn120  1  0.81259687  0.31130650  0.81563387  1
  Zn  Zn121  1  0.80967964  0.80659831  0.31392005  1
  Zn  Zn122  1  0.80759461  0.81697472  0.81193237  1
  Zn  Zn123  1  0.18768190  0.43629637  0.43512016  1
  Zn  Zn124  1  0.18398962  0.43960800  0.93597495  1
  Zn  Zn125  1  0.18757190  0.93603837  0.43264284  1
  Zn  Zn126  1  0.16102108  0.95015727  0.92243461  1
  Zn  Zn127  1  0.68468555  0.42813256  0.44289343  1
  Zn  Zn128  1  0.68949432  0.43518279  0.93941339  1
  Zn  Zn129  1  0.69130255  0.93637009  0.43795772  1
  Zn  Zn130  1  0.69207187  0.94171550  0.93869541  1
  Zn  Zn131  1  0.32447990  0.07660663  0.04060970  1
  Zn  Zn132  1  0.31360396  0.05793150  0.55912216  1
  Zn  Zn133  1  0.31327060  0.56433265  0.06230772  1
  Zn  Zn134  1  0.31387210  0.56347857  0.56284661  1
  Zn  Zn135  1  0.80928087  0.06260749  0.06337045  1
  Zn  Zn136  1  0.92874972  0.06273969  0.56140823  1
  Zn  Zn137  1  0.81395296  0.56641375  0.05998323  1
  Zn  Zn138  1  0.81426311  0.55917942  0.55989461  1
  Zn  Zn139  1  0.43946048  0.44020761  0.18859776  1
  Zn  Zn140  1  0.43662781  0.43378788  0.68734735  1
  Zn  Zn141  1  0.43727335  0.93692035  0.17635654  1
  Zn  Zn142  1  0.43454154  0.94922964  0.68742613  1
  Zn  Zn143  1  0.93142931  0.43796273  0.18832536  1
  Zn  Zn144  1  0.93821882  0.43622686  0.68957107  1
  Zn  Zn145  1  0.93606646  0.93410799  0.18200662  1
  Zn  Zn146  1  0.93583710  0.92887365  0.68225553  1
  Zn  Zn147  1  0.06479462  0.06167195  0.30695956  1
  Zn  Zn148  1  0.06618606  0.06239485  0.81152556  1
  Zn  Zn149  1  0.06029163  0.56157509  0.31414099  1
  Zn  Zn150  1  0.06335824  0.56096514  0.81164508  1
  Zn  Zn151  1  0.56552665  0.06411078  0.31554411  1
  Zn  Zn152  1  0.56186237  0.05123215  0.82590618  1
  Zn  Zn153  1  0.55812935  0.57106963  0.31706140  1
  Zn  Zn154  1  0.56296350  0.56789230  0.81562053  1
  Zn  Zn155  1  0.43858310  0.18852186  0.43750405  1
  Zn  Zn156  1  0.43617394  0.18195718  0.93553183  1
  Zn  Zn157  1  0.44145014  0.68855899  0.43777641  1
  Zn  Zn158  1  0.43816182  0.68928326  0.93624752  1
  Zn  Zn159  1  0.92910190  0.19074501  0.43234992  1
  Zn  Zn160  1  0.94073155  0.18763092  0.93819341  1
  Zn  Zn161  1  0.93226247  0.68448553  0.44047100  1
  Zn  Zn162  1  0.93703652  0.68887269  0.94082252  1
  Zn  Zn163  1  0.05820139  0.31206870  0.06244883  1
  Zn  Zn164  1  0.06440047  0.31087027  0.55831346  1
  Zn  Zn165  1  0.06333914  0.81344158  0.06791979  1
  Zn  Zn166  1  0.06157649  0.80874961  0.56291043  1
  Zn  Zn167  1  0.56529127  0.31569790  0.06623319  1
  Zn  Zn168  1  0.55991646  0.31006098  0.56677061  1
  Zn  Zn169  1  0.56486666  0.80686179  0.07332974  1
  Zn  Zn170  1  0.56402474  0.81244634  0.56177481  1
  O  O171  1  0.11952832  0.11978517  0.12206045  1
  O  O172  1  0.12559685  0.11066092  0.62023638  1
  O  O173  1  0.11531435  0.62204278  0.11549401  1
  O  O174  1  0.11838750  0.61828557  0.61814597  1
  O  O175  1  0.62617349  0.11474870  0.11961167  1
  O  O176  1  0.67179131  0.17796323  0.58154276  1
  O  O177  1  0.61124228  0.63582617  0.11039462  1
  O  O178  1  0.61827037  0.62049605  0.62091497  1
  O  O179  1  0.38366916  0.38223558  0.37621999  1
  O  O180  1  0.37862250  0.38222815  0.88586196  1
  O  O181  1  0.36819830  0.88464874  0.38415882  1
  O  O182  1  0.32641647  0.89114338  0.91287845  1
  O  O183  1  0.88243409  0.37450726  0.37987325  1
  O  O184  1  0.88687946  0.38420471  0.87242618  1
  O  O185  1  0.86824078  0.87889732  0.38695893  1
  O  O186  1  0.87584738  0.86483195  0.89232153  1
  O  O187  1  0.26123939  0.00876701  0.36511964  1
  O  O188  1  0.22876559  0.00787850  0.84891714  1
  O  O189  1  0.25487731  0.50643416  0.36727433  1
  O  O190  1  0.25369608  0.50854256  0.86813690  1
  O  O191  1  0.75864391  0.00573162  0.36626614  1
  O  O192  1  0.75846124  0.00231684  0.87462892  1
  O  O193  1  0.76194137  0.48585934  0.38270492  1
  O  O194  1  0.75710190  0.50770192  0.87452366  1
  O  O195  1  0.24807639  0.50584692  0.13909140  1
  O  O196  1  0.24532932  0.49548251  0.62926942  1
  O  O197  1  0.24715377  1.00397099  0.12914550  1
  O  O198  1  0.24578356  0.99114258  0.63000927  1
  O  O199  1  0.76092488  0.48238563  0.11292283  1
  O  O200  1  0.74510818  0.49587842  0.63277976  1
  O  O201  1  0.74081778  1.00475981  0.13798413  1
  O  O202  1  0.75270215  0.98799640  0.62488947  1
  O  O203  1  0.00760765  0.37585636  0.25906851  1
  O  O204  1  0.00635910  0.36889269  0.75943626  1
  O  O205  1  0.00171998  0.85903115  0.24306437  1
  O  O206  1  0.01221273  0.87113434  0.74722794  1
  O  O207  1  0.50680146  0.37153846  0.25406362  1
  O  O208  1  0.51102204  0.37333834  0.75386382  1
  O  O209  1  0.51079002  0.87590478  0.24515152  1
  O  O210  1  0.49427095  0.86414572  0.74481244  1
  O  O211  1  0.49217148  0.13511636  0.25181039  1
  O  O212  1  0.50338634  0.13298059  0.75529309  1
  O  O213  1  0.48594597  0.62215768  0.24064472  1
  O  O214  1  0.49321917  0.63490890  0.74699229  1
  O  O215  1  0.98696485  0.12643950  0.24738412  1
  O  O216  1  0.99612282  0.13892093  0.75533611  1
  O  O217  1  1.00498507  0.63061305  0.23748563  1
  O  O218  1  1.00445665  0.62206735  0.73440903  1
  O  O219  1  0.37613627  0.26279156  0.01028627  1
  O  O220  1  0.37071905  0.25228733  0.50746760  1
  O  O221  1  0.37349176  0.74276116  0.01182030  1
  O  O222  1  0.37149483  0.75643685  0.50563713  1
  O  O223  1  0.86461755  0.24087852  0.01042707  1
  O  O224  1  0.86224437  0.25128801  0.51250473  1
  O  O225  1  0.86681034  0.75391765  0.00836920  1
  O  O226  1  0.87137931  0.75932801  0.50545306  1
  O  O227  1  0.13299785  0.24424846  0.49243019  1
  O  O228  1  0.12474848  0.24994764  0.99230629  1
  O  O229  1  0.13218316  0.74317013  0.49946428  1
  O  O230  1  0.11699904  0.73761496  0.99054330  1
  O  O231  1  0.62598466  0.26555700  0.47960206  1
  O  O232  1  0.63109223  0.24154178  1.00228356  1
  O  O233  1  0.62393737  0.74131230  0.49310145  1
  O  O234  1  0.63085763  0.74366255  0.99594161  1
  O  O235  1  0.49320900  0.25135971  0.13629315  1
  O  O236  1  0.49355130  0.25068211  0.63923086  1
  O  O237  1  0.48626251  0.73906277  0.12935621  1
  O  O238  1  0.49379755  0.74599341  0.63500973  1
  O  O239  1  0.98660211  0.24953189  0.12691027  1
  O  O240  1  0.99385172  0.26217149  0.63746594  1
  O  O241  1  0.99266103  0.74132340  0.13286083  1
  O  O242  1  0.99073055  0.73965450  0.62478282  1
  O  O243  1  0.00337153  0.26086810  0.37172795  1
  O  O244  1  0.00687097  0.26034687  0.86881166  1
  O  O245  1  -0.00462701  0.73985597  0.35812379  1
  O  O246  1  0.00943887  0.74806348  0.87050391  1
  O  O247  1  0.50652665  0.25602911  0.36611395  1
  O  O248  1  0.49934217  0.24890366  0.86220437  1
  O  O249  1  0.51413339  0.74356567  0.36924594  1
  O  O250  1  0.50817154  0.74559179  0.86676412  1
  O  O251  1  0.25443552  0.12790236  0.48443057  1
  O  O252  1  0.23021084  0.13933175  1.01467929  1
  O  O253  1  0.24486408  0.62928754  0.49633531  1
  O  O254  1  0.23731961  0.61440290  0.98952282  1
  O  O255  1  0.76754744  0.12874571  0.47988998  1
  O  O256  1  0.74106227  0.13397218  1.00385380  1
  O  O257  1  0.73550409  0.62558909  0.50910722  1
  O  O258  1  0.74209639  0.63216406  0.99213620  1
  O  O259  1  0.26224621  0.38016916  -0.00094741  1
  O  O260  1  0.25094658  0.36744862  0.50465825  1
  O  O261  1  0.25840763  0.89068719  -0.03322028  1
  O  O262  1  0.25892308  0.87106660  0.50811371  1
  O  O263  1  0.74260622  0.36140645  0.01083112  1
  O  O264  1  0.74905928  0.35763097  0.51449646  1
  O  O265  1  0.75862659  0.86030040  0.00019736  1
  O  O266  1  0.75794135  0.87255822  0.50986977  1
  O  O267  1  0.13190196  0.49262263  0.25000426  1
  O  O268  1  0.13106441  0.49419675  0.74364652  1
  O  O269  1  0.13676694  1.00122955  0.23821257  1
  O  O270  1  0.13152492  0.99234427  0.73149752  1
  O  O271  1  0.63493167  0.52805545  0.23974731  1
  O  O272  1  0.62877346  0.49421691  0.74827165  1
  O  O273  1  0.63137624  0.99370998  0.24807071  1
  O  O274  1  0.62292451  0.99682978  0.75205860  1
  O  O275  1  0.37370971  0.00877487  0.25108690  1
  O  O276  1  0.35630695  -0.01034528  0.76021756  1
  O  O277  1  0.36733766  0.50828292  0.25435257  1
  O  O278  1  0.37095042  0.50650285  0.75511698  1
  O  O279  1  0.86823301  0.00234167  0.25170126  1
  O  O280  1  0.88809818  0.01483575  0.74400591  1
  O  O281  1  0.87613438  0.49737759  0.26743373  1
  O  O282  1  0.86824640  0.49701102  0.76270013  1
  O  O283  1  0.11553899  0.37052564  0.36766284  1
  O  O284  1  0.11554902  0.37059533  0.86897109  1
  O  O285  1  0.13392834  0.87019239  0.36354077  1
  O  O286  1  0.12985216  0.85745259  0.85949270  1
  O  O287  1  0.62101556  0.36997640  0.36374277  1
  O  O288  1  0.62388142  0.37126245  0.86566518  1
  O  O289  1  0.62818923  0.86675293  0.36411831  1
  O  O290  1  0.63245054  0.86123150  0.87652766  1
  O  O291  1  0.37848384  0.13719586  0.13611613  1
  O  O292  1  0.36901334  0.13715160  0.62144723  1
  O  O293  1  0.37829134  0.63314842  0.13146100  1
  O  O294  1  0.37866236  0.63283960  0.63230470  1
  O  O295  1  0.87320804  0.13107389  0.13350298  1
  O  O296  1  0.88211106  0.13783301  0.64054393  1
  O  O297  1  0.88585074  0.63481473  0.11750143  1
  O  O298  1  0.88375350  0.63257133  0.61663627  1
  O  O299  1  0.26629384  0.25201278  0.13077846  1
  O  O300  1  0.25687682  0.25497034  0.61950037  1
  O  O301  1  0.26025003  0.74631899  0.12391636  1
  O  O302  1  0.25470310  0.75775038  0.61974068  1
  O  O303  1  0.75542950  0.25610939  0.11842383  1
  O  O304  1  0.77114223  0.26123028  0.63617751  1
  O  O305  1  0.75778971  0.73391307  0.11833378  1
  O  O306  1  0.76012128  0.75030308  0.62195431  1
  O  O307  1  0.24652196  0.24152924  0.37740972  1
  O  O308  1  0.23670142  0.26059656  0.87517233  1
  O  O309  1  0.25095249  0.74063715  0.38208878  1
  O  O310  1  0.23794046  0.73438655  0.86869344  1
  O  O311  1  0.74325197  0.24318582  0.38015875  1
  O  O312  1  0.74931691  0.24567326  0.88662699  1
  O  O313  1  0.73315673  0.74822186  0.37566806  1
  O  O314  1  0.74311885  0.74359946  0.88344681  1
  O  O315  1  0.01012654  0.12390641  0.00404398  1
  O  O316  1  -0.00780948  0.12883448  0.49813227  1
  O  O317  1  0.00659717  0.61755411  0.00657206  1
  O  O318  1  0.00522313  0.61797929  0.50885366  1
  O  O319  1  0.51319464  0.12047132  0.00627395  1
  O  O320  1  0.49988140  0.11416236  0.49514110  1
  O  O321  1  0.50493608  0.61928907  0.00503434  1
  O  O322  1  0.50668541  0.61936326  0.50891013  1
  O  O323  1  0.50141508  0.38305948  0.49393491  1
  O  O324  1  0.49567673  0.38638648  1.00012700  1
  O  O325  1  0.48667668  0.87919171  0.50491385  1
  O  O326  1  0.51164249  0.88204394  1.00628789  1
  O  O327  1  0.99437604  0.37681808  0.49047061  1
  O  O328  1  1.00642585  0.38686456  0.98929900  1
  O  O329  1  0.98574466  0.86811790  0.50111473  1
  O  O330  1  0.98592700  0.87002074  0.99981741  1
  O  O331  1  0.49506061  0.49676364  0.37992083  1
  O  O332  1  0.49330396  0.50442438  0.88654249  1
  O  O333  1  0.48659787  1.00531840  0.37785290  1
  O  O334  1  0.48854261  0.99883945  0.89862443  1
  O  O335  1  0.99241658  0.49020240  0.38067946  1
  O  O336  1  0.99416994  0.49559930  0.87873748  1
  O  O337  1  0.98613515  0.99839959  0.36281961  1
  O  O338  1  1.03668128  0.98377815  0.88696258  1
  O  O339  1  0.01417028  -0.00237896  0.12184764  1
  O  O340  1  0.01125092  -0.00377573  0.62105580  1
  O  O341  1  -0.00408306  0.50555252  0.11619834  1
  O  O342  1  0.00404569  0.50398437  0.61987164  1
  O  O343  1  0.51726136  0.00354468  0.12244784  1
  O  O344  1  0.49529643  0.00175939  0.60976630  1
  O  O345  1  0.49226494  0.51379839  0.11334905  1
  O  O346  1  0.50462363  0.50577802  0.62279040  1
  O  O347  1  0.24010554  0.38508517  0.25898683  1
  O  O348  1  0.24626648  0.38047128  0.74440441  1
  O  O349  1  0.25695060  0.89180089  0.24692798  1
  O  O350  1  0.23915095  0.87611014  0.73713664  1
  O  O351  1  0.74809177  0.37291457  0.23435678  1
  O  O352  1  0.74106904  0.38137001  0.74990367  1
  O  O353  1  0.74366439  0.88595131  0.25464898  1
  O  O354  1  0.75225110  0.87883895  0.73410302  1
  O  O355  1  0.26046646  0.11912669  0.25659084  1
  O  O356  1  0.25003281  0.11422773  0.73721029  1
  O  O357  1  0.25501695  0.61761850  0.25502865  1
  O  O358  1  0.25433617  0.61934951  0.75689947  1
  O  O359  1  0.75903388  0.11571656  0.25699392  1
  O  O360  1  0.76715754  0.12117555  0.75203284  1
  O  O361  1  0.70385555  0.57461496  0.24330922  1
  O  O362  1  0.73832366  0.62035602  0.76462470  1
  O  O363  1  0.36909300  0.12037159  0.36382284  1
  O  O364  1  0.35551536  0.10621085  0.92945334  1
  O  O365  1  0.37009654  0.62045040  0.36741709  1
  O  O366  1  0.36563778  0.62127378  0.87220207  1
  O  O367  1  0.86911785  0.11610365  0.36221519  1
  O  O368  1  0.87978853  0.13015888  0.85933189  1
  O  O369  1  0.87072177  0.60688634  0.38547478  1
  O  O370  1  0.86335305  0.61983184  0.87939276  1
  O  O371  1  0.11785134  0.37628383  0.13928119  1
  O  O372  1  0.13126303  0.37937651  0.62936119  1
  O  O373  1  0.14037444  0.88438697  0.11880518  1
  O  O374  1  0.13180809  0.88046096  0.62630077  1
  O  O375  1  0.63763972  0.37790561  0.13033452  1
  O  O376  1  0.63046194  0.37988074  0.63628839  1
  O  O377  1  0.62752143  0.88313007  0.13780686  1
  O  O378  1  0.64144824  0.86749969  0.62384500  1
  O  O379  1  0.12505226  0.25776759  0.25605005  1
  O  O380  1  0.11915399  0.25413172  0.75546763  1
  O  O381  1  0.10960627  0.75031519  0.24784876  1
  O  O382  1  0.12152004  0.75482054  0.75289713  1
  O  O383  1  0.61553731  0.24555804  0.25631086  1
  O  O384  1  0.61377902  0.25437817  0.74950408  1
  O  O385  1  0.62355187  0.75694447  0.25458536  1
  O  O386  1  0.61450280  0.75486016  0.75898887  1
  O  O387  1  0.38519880  0.24766221  0.24725389  1
  O  O388  1  0.38967838  0.25151158  0.74424896  1
  O  O389  1  0.37174883  0.73843002  0.24626844  1
  O  O390  1  0.37806801  0.74941643  0.75074462  1
  O  O391  1  0.87216739  0.23901549  0.24189930  1
  O  O392  1  0.88524804  0.24815701  0.74606627  1
  O  O393  1  0.88405798  0.75326441  0.24167730  1
  O  O394  1  0.87659682  0.75836365  0.73549288  1
  O  O395  1  0.38197648  0.49978302  0.49421065  1
  O  O396  1  0.38239853  0.49616304  0.99656369  1
  O  O397  1  0.38278536  0.99354719  0.49052725  1
  O  O398  1  0.39873991  0.98797366  1.03402082  1
  O  O399  1  0.87924221  0.48822923  0.49387831  1
  O  O400  1  0.88698315  0.50657026  0.98588712  1
  O  O401  1  0.87781838  0.98463488  0.49109044  1
  O  O402  1  0.87484509  0.98161223  1.01173072  1
  O  O403  1  0.13125472  0.01399504  0.01268146  1
  O  O404  1  0.13360660  0.00030442  0.51270403  1
  O  O405  1  0.11281902  0.50916213  -0.00078814  1
  O  O406  1  0.11873251  0.50316789  0.50438164  1
  O  O407  1  0.62074640  0.00349291  0.00997917  1
  O  O408  1  0.60586926  -0.00727264  0.48873074  1
  O  O409  1  0.61636503  0.51172160  -0.00787300  1
  O  O410  1  0.62002674  0.50503956  0.50799704  1
  O  O411  1  0.38184440  0.37124865  0.11722586  1
  O  O412  1  0.36870945  0.36540141  0.62368625  1
  O  O413  1  0.36977947  0.85680613  0.12767063  1
  O  O414  1  0.36572286  0.87223383  0.61725842  1
  O  O415  1  0.86485476  0.36180581  0.12992392  1
  O  O416  1  0.87269663  0.37106976  0.61955170  1
  O  O417  1  0.87641110  0.85853618  0.11378824  1
  O  O418  1  0.86698049  0.86796215  0.61226034  1
  O  O419  1  0.13535038  0.12809902  0.37255379  1
  O  O420  1  0.11885351  0.14035797  0.88500965  1
  O  O421  1  0.12933921  0.62700455  0.38227413  1
  O  O422  1  0.12907408  0.62905056  0.88030177  1
  O  O423  1  0.63690206  0.13565723  0.36962564  1
  O  O424  1  0.62850928  0.12454006  0.89118789  1
  O  O425  1  0.62109931  0.63074567  0.38976244  1
  O  O426  1  0.63168126  0.63553155  0.88559510  1
