# generated using pymatgen
data_V85Zn86O256
_symmetry_space_group_name_H-M   'P 1'
_cell_length_a   16.98108339
_cell_length_b   17.00086949
_cell_length_c   16.99944749
_cell_angle_alpha   90.17046899
_cell_angle_beta   89.98663050
_cell_angle_gamma   90.00528163
_symmetry_Int_Tables_number   1
_chemical_formula_structural   V85Zn86O256
_chemical_formula_sum   'V85 Zn86 O256'
_cell_volume   4907.60271837
_cell_formula_units_Z   1
loop_
 _symmetry_equiv_pos_site_id
 _symmetry_equiv_pos_as_xyz
  1  'x, y, z'
loop_
 _atom_site_type_symbol
 _atom_site_label
 _atom_site_symmetry_multiplicity
 _atom_site_fract_x
 _atom_site_fract_y
 _atom_site_fract_z
 _atom_site_occupancy
  V  V0  1  0.87723380  0.50032114  0.87270479  1
  V  V1  1  0.63037863  0.25045806  0.37727432  1
  V  V2  1  0.62661137  0.75090150  0.37510882  1
  V  V3  1  0.85946974  0.25298757  0.61865143  1
  V  V4  1  0.00334328  0.50190027  -0.00305537  1
  V  V5  1  0.88302809  0.74704609  0.62832101  1
  V  V6  1  0.11496811  0.11764740  0.50559333  1
  V  V7  1  0.62585508  0.25098349  0.87407907  1
  V  V8  1  0.11393151  0.11857441  0.00102364  1
  V  V9  1  0.88194855  0.12354500  0.74364300  1
  V  V10  1  0.62192321  0.74775097  0.87238799  1
  V  V11  1  0.61644316  0.50543692  0.62547047  1
  V  V12  1  0.25058672  0.12617491  0.37621834  1
  V  V13  1  0.62576831  0.12554272  0.00042253  1
  V  V14  1  0.49666932  0.24707019  0.74773921  1
  V  V15  1  0.62630685  -0.00202918  0.12652683  1
  V  V16  1  0.37464516  0.62743764  0.24838405  1
  V  V17  1  0.12280105  0.25098217  0.37876957  1
  V  V18  1  0.62206000  0.87433037  0.74789112  1
  V  V19  1  0.61912768  -0.00075460  0.61778548  1
  V  V20  1  0.74945724  0.62402188  0.87431709  1
  V  V21  1  0.00205214  0.24907822  0.74089594  1
  V  V22  1  0.12295178  0.75183049  0.37606868  1
  V  V23  1  0.11686659  0.86906738  0.75510473  1
  V  V24  1  0.25332091  0.64457863  0.87370780  1
  V  V25  1  0.24301657  0.88165017  0.62522013  1
  V  V26  1  0.00012995  0.39133248  0.38978434  1
  V  V27  1  -0.00375500  0.74851126  0.25174458  1
  V  V28  1  0.61754042  0.62566017  0.50288099  1
  V  V29  1  0.14409512  0.49853267  0.62686763  1
  V  V30  1  0.88190765  0.87937388  0.49658984  1
  V  V31  1  0.49026615  0.87615168  0.87455523  1
  V  V32  1  0.24692965  0.75112103  0.50021081  1
  V  V33  1  0.62793252  0.87606232  0.24634468  1
  V  V34  1  0.00078000  0.62262328  0.12469331  1
  V  V35  1  0.75012855  0.75667354  0.00350226  1
  V  V36  1  0.00441235  0.36823538  0.87037553  1
  V  V37  1  -0.01201830  0.87490142  0.87854047  1
  V  V38  1  0.75173545  0.37913668  0.12540450  1
  V  V39  1  0.50194017  0.37511265  0.87777735  1
  V  V40  1  0.12620221  0.37527011  0.25369147  1
  V  V41  1  0.75471069  0.61150602  0.36985158  1
  V  V42  1  0.12730433  0.50026536  0.12212230  1
  V  V43  1  0.25536368  0.37399379  0.11839377  1
  V  V44  1  0.49522185  0.62384201  0.12632241  1
  V  V45  1  0.86406132  0.38525025  0.50311582  1
  V  V46  1  0.74898260  0.87281826  0.62435647  1
  V  V47  1  0.25077294  0.00999467  0.75777344  1
  V  V48  1  0.13922494  0.37488127  0.74750520  1
  V  V49  1  0.25315230  0.25705474  0.50510730  1
  V  V50  1  0.74587818  0.00032770  0.74956861  1
  V  V51  1  -0.00777714  -0.00063092  0.01462870  1
  V  V52  1  0.74606977  0.12488330  0.87083446  1
  V  V53  1  0.24414195  0.23874469  -0.00764954  1
  V  V54  1  0.37658808  0.74669515  0.62393583  1
  V  V55  1  0.63162958  0.37241176  0.25213605  1
  V  V56  1  0.37517491  0.25204682  0.12301552  1
  V  V57  1  0.63117855  0.37511567  0.74191263  1
  V  V58  1  0.37740101  0.88207091  0.50048343  1
  V  V59  1  0.49569341  0.75056502  0.24781301  1
  V  V60  1  0.75113654  0.49731553  0.74280579  1
  V  V61  1  0.75237352  0.74691207  0.49874623  1
  V  V62  1  0.88313666  0.62690996  0.74968296  1
  V  V63  1  0.12445491  0.88207166  0.24005356  1
  V  V64  1  0.25264025  0.50216573  0.24834154  1
  V  V65  1  0.37947803  0.00277551  0.37722039  1
  V  V66  1  0.37382702  0.25513089  0.62413950  1
  V  V67  1  0.36768108  0.49275066  0.86815856  1
  V  V68  1  0.00015046  0.61253038  0.61988092  1
  V  V69  1  0.25103322  0.62524489  0.37358303  1
  V  V70  1  0.50168486  0.12603665  0.12721608  1
  V  V71  1  0.62494241  0.62262572  -0.00065801  1
  V  V72  1  0.75186655  0.25214448  -0.00268265  1
  V  V73  1  0.37529446  0.12647721  0.25085885  1
  V  V74  1  0.49789944  0.74144985  0.74357837  1
  V  V75  1  0.26687575  0.87256790  0.11935662  1
  V  V76  1  0.49214771  -0.00321931  -0.00057375  1
  V  V77  1  0.75730534  0.12483351  0.37711989  1
  V  V78  1  0.87446921  0.60315472  0.25146908  1
  V  V79  1  0.49657578  0.49364872  0.00023026  1
  V  V80  1  0.62846662  0.12980381  0.50126295  1
  V  V81  1  0.49980751  0.87831175  0.37701780  1
  V  V82  1  0.49528315  0.12276621  0.62089745  1
  V  V83  1  0.62841675  0.49966071  0.13219178  1
  V  V84  1  0.87596265  0.37484836  -0.00324401  1
  Zn  Zn85  1  0.33224917  0.81378789  -0.02660621  1
  Zn  Zn86  1  0.13718477  0.63385657  0.00489542  1
  Zn  Zn87  1  0.50349838  0.25089320  0.25131686  1
  Zn  Zn88  1  0.87037395  -0.00018429  0.87995680  1
  Zn  Zn89  1  0.11252885  0.74895451  0.87928576  1
  Zn  Zn90  1  0.37128626  0.61253553  0.73743772  1
  Zn  Zn91  1  0.89301493  0.11877353  0.23370816  1
  Zn  Zn92  1  0.10010291  0.01144581  0.63527504  1
  Zn  Zn93  1  0.75592974  -0.00190053  0.25197206  1
  Zn  Zn94  1  0.50008662  0.37621258  0.37677377  1
  Zn  Zn95  1  0.37868253  0.37812228  0.49899436  1
  Zn  Zn96  1  0.88493080  0.24353166  0.12535857  1
  Zn  Zn97  1  0.87838400  0.75123604  0.12186553  1
  Zn  Zn98  1  0.49633791  0.50031414  0.50014705  1
  Zn  Zn99  1  -0.00114013  0.24850328  0.24670910  1
  Zn  Zn100  1  0.11911566  0.61612204  0.49606297  1
  Zn  Zn101  1  0.35951045  0.02542675  0.87943908  1
  Zn  Zn102  1  0.01079528  0.88998843  0.38243802  1
  Zn  Zn103  1  0.75905066  0.87999187  0.11837414  1
  Zn  Zn104  1  0.24336011  0.00550498  0.24378648  1
  Zn  Zn105  1  0.88215894  0.00458331  0.37472085  1
  Zn  Zn106  1  0.38042538  0.49624500  0.37614068  1
  Zn  Zn107  1  0.18217421  0.18672900  0.18482995  1
  Zn  Zn108  1  0.18609371  0.19025346  0.68754057  1
  Zn  Zn109  1  0.18768547  0.69385560  0.18430760  1
  Zn  Zn110  1  0.18803384  0.68633225  0.69079055  1
  Zn  Zn111  1  0.71298346  0.18253101  0.18315260  1
  Zn  Zn112  1  0.68506404  0.18634496  0.68681148  1
  Zn  Zn113  1  0.68685698  0.68439554  0.18989910  1
  Zn  Zn114  1  0.68992453  0.68548529  0.68713069  1
  Zn  Zn115  1  0.31363002  0.31282916  0.31244490  1
  Zn  Zn116  1  0.31817500  0.30802018  0.81394653  1
  Zn  Zn117  1  0.30924867  0.81496537  0.30971668  1
  Zn  Zn118  1  0.31290805  0.81990491  0.79960588  1
  Zn  Zn119  1  0.81743222  0.31288343  0.31468371  1
  Zn  Zn120  1  0.81579691  0.31111741  0.80981283  1
  Zn  Zn121  1  0.81238701  0.80925529  0.31287044  1
  Zn  Zn122  1  0.80948760  0.80977153  0.81282923  1
  Zn  Zn123  1  0.19029095  0.44047774  0.44109239  1
  Zn  Zn124  1  0.18455349  0.43193673  0.93818515  1
  Zn  Zn125  1  0.18964731  0.94069233  0.43525521  1
  Zn  Zn126  1  0.18137116  0.94057049  0.94154329  1
  Zn  Zn127  1  0.68474996  0.43693802  0.44197717  1
  Zn  Zn128  1  0.68742228  0.43941531  0.93584767  1
  Zn  Zn129  1  0.69125438  0.93856404  0.43748018  1
  Zn  Zn130  1  0.67716824  0.93751779  0.93405823  1
  Zn  Zn131  1  0.30622819  0.06016002  0.06837615  1
  Zn  Zn132  1  0.30769129  0.06641745  0.56538503  1
  Zn  Zn133  1  0.31492181  0.56125438  0.05579666  1
  Zn  Zn134  1  0.31108561  0.56258355  0.55668031  1
  Zn  Zn135  1  0.81298060  0.06349554  0.06186850  1
  Zn  Zn136  1  0.81319646  0.06313252  0.56455531  1
  Zn  Zn137  1  0.81571343  0.56482416  0.06300610  1
  Zn  Zn138  1  0.80869131  0.56286813  0.56185628  1
  Zn  Zn139  1  0.44031795  0.43620696  0.19408744  1
  Zn  Zn140  1  0.43995559  0.43249078  0.68730980  1
  Zn  Zn141  1  0.43720218  0.94120391  0.19061903  1
  Zn  Zn142  1  0.43432956  0.93845337  0.68923111  1
  Zn  Zn143  1  0.95116231  0.41544249  0.17863079  1
  Zn  Zn144  1  0.93939193  0.43424383  0.68402613  1
  Zn  Zn145  1  0.93219568  0.93110517  0.19406009  1
  Zn  Zn146  1  0.93585065  0.93666373  0.68682294  1
  Zn  Zn147  1  0.05285046  0.06339025  0.31293840  1
  Zn  Zn148  1  0.06685325  0.05995227  0.82279409  1
  Zn  Zn149  1  0.06295653  0.56253605  0.30984484  1
  Zn  Zn150  1  0.07056204  0.55933357  0.81042070  1
  Zn  Zn151  1  0.56409362  0.06528234  0.31356339  1
  Zn  Zn152  1  0.52503970  0.08328917  0.82932954  1
  Zn  Zn153  1  0.56468363  0.56271027  0.31627557  1
  Zn  Zn154  1  0.56072616  0.56103958  0.81096140  1
  Zn  Zn155  1  0.44345613  0.19000057  0.44044004  1
  Zn  Zn156  1  0.43277898  0.18895660  0.94290144  1
  Zn  Zn157  1  0.43512572  0.69249804  0.43562817  1
  Zn  Zn158  1  0.43784818  0.67548636  0.92936260  1
  Zn  Zn159  1  0.93933103  0.19572097  0.43981243  1
  Zn  Zn160  1  0.93668830  0.18412112  0.93260644  1
  Zn  Zn161  1  0.93668580  0.68095679  0.43607500  1
  Zn  Zn162  1  0.93712779  0.68844528  0.93895804  1
  Zn  Zn163  1  0.06702515  0.30923451  0.06090126  1
  Zn  Zn164  1  0.06448966  0.31275883  0.56695022  1
  Zn  Zn165  1  0.06303011  0.81078186  0.05962803  1
  Zn  Zn166  1  0.06133413  0.80979650  0.56673682  1
  Zn  Zn167  1  0.56554248  0.31122959  0.06484431  1
  Zn  Zn168  1  0.56305695  0.31333349  0.55995618  1
  Zn  Zn169  1  0.51854992  0.79060035  0.04173070  1
  Zn  Zn170  1  0.56076292  0.81179135  0.56087007  1
  O  O171  1  0.12469242  0.13562399  0.10423036  1
  O  O172  1  0.13030208  0.12506484  0.60916890  1
  O  O173  1  0.12059013  0.61672747  0.12670364  1
  O  O174  1  0.11876526  0.61319249  0.63198962  1
  O  O175  1  0.62356228  0.11649912  0.12193594  1
  O  O176  1  0.62160868  0.11817602  0.61712121  1
  O  O177  1  0.61595619  0.61499713  0.12315542  1
  O  O178  1  0.63123023  0.61878811  0.61404468  1
  O  O179  1  0.37926006  0.37647882  0.37666561  1
  O  O180  1  0.39191630  0.38301232  0.86833984  1
  O  O181  1  0.37633130  0.88340283  0.38111842  1
  O  O182  1  0.38505928  0.87352943  0.87552299  1
  O  O183  1  0.89154530  0.37055026  0.39009120  1
  O  O184  1  0.88345035  0.38122475  0.87656851  1
  O  O185  1  0.87276688  0.87053289  0.39204433  1
  O  O186  1  0.88429057  0.87880239  0.86609643  1
  O  O187  1  0.26046768  0.01186003  0.37273806  1
  O  O188  1  0.24864468  -0.00418532  0.86369439  1
  O  O189  1  0.24680661  0.51308598  0.36807309  1
  O  O190  1  0.26833388  0.48553317  0.87763499  1
  O  O191  1  0.75549379  0.01173459  0.37787694  1
  O  O192  1  0.74574317  0.00425343  0.86495987  1
  O  O193  1  0.74304527  0.51354291  0.37767298  1
  O  O194  1  0.75577758  0.50558958  0.86584723  1
  O  O195  1  0.24937248  0.49308617  0.12715649  1
  O  O196  1  0.24264511  0.50879851  0.63385676  1
  O  O197  1  0.25175350  0.98372680  0.13145056  1
  O  O198  1  0.24682066  0.98954483  0.63164652  1
  O  O199  1  0.73682987  0.49283091  0.11393099  1
  O  O200  1  0.74019417  0.50476951  0.63832892  1
  O  O201  1  0.73564914  0.99685595  0.12470509  1
  O  O202  1  0.74120046  0.99353126  0.63112648  1
  O  O203  1  0.01632936  0.37990996  0.27024268  1
  O  O204  1  0.00264715  0.36732493  0.75512986  1
  O  O205  1  0.01136389  0.86499504  0.25759368  1
  O  O206  1  0.01018474  0.87985611  0.76095577  1
  O  O207  1  0.51766044  0.37113865  0.25093593  1
  O  O208  1  0.51211181  0.36654824  0.75699469  1
  O  O209  1  0.50720556  0.86839801  0.25588255  1
  O  O210  1  0.50292930  0.86843657  0.75595024  1
  O  O211  1  0.49422258  0.12705961  0.24364757  1
  O  O212  1  0.51772209  0.14171904  0.73215343  1
  O  O213  1  0.49636442  0.63132952  0.24501888  1
  O  O214  1  0.49434108  0.63813676  0.75451518  1
  O  O215  1  1.00534242  0.13517934  0.24493605  1
  O  O216  1  0.98938645  0.13364267  0.75962323  1
  O  O217  1  0.99345499  0.62890437  0.24565885  1
  O  O218  1  0.98742153  0.61979750  0.74478767  1
  O  O219  1  0.36432140  0.24332278  0.01613188  1
  O  O220  1  0.36886132  0.24917495  0.50726152  1
  O  O221  1  0.41363173  0.74970672  0.00744710  1
  O  O222  1  0.36754135  0.76084820  0.50458720  1
  O  O223  1  0.86935696  0.25726689  -0.00080334  1
  O  O224  1  0.87712137  0.25515175  0.51585955  1
  O  O225  1  0.85317299  0.74417145  -0.00115245  1
  O  O226  1  0.86665597  0.75224905  0.50816847  1
  O  O227  1  0.13412069  0.24372986  0.49640350  1
  O  O228  1  0.13809916  0.24664680  0.99800189  1
  O  O229  1  0.12964432  0.74978684  0.49179766  1
  O  O230  1  0.12179603  0.74497488  0.99231664  1
  O  O231  1  0.62500679  0.24018522  0.49281331  1
  O  O232  1  0.63067162  0.24581627  0.99298172  1
  O  O233  1  0.63401041  0.74475478  0.49725391  1
  O  O234  1  0.62418330  0.73975906  0.99094056  1
  O  O235  1  0.49201550  0.24474171  0.12432105  1
  O  O236  1  0.49514030  0.24356632  0.62987887  1
  O  O237  1  0.51181128  0.73494878  0.14006678  1
  O  O238  1  0.48899385  0.75805064  0.63233709  1
  O  O239  1  0.98790198  0.29623601  0.13749822  1
  O  O240  1  0.99094457  0.25341759  0.63691682  1
  O  O241  1  1.00273741  0.74121482  0.13684419  1
  O  O242  1  0.98742331  0.74000417  0.62648066  1
  O  O243  1  0.01577566  0.26099102  0.37717958  1
  O  O244  1  -0.00760474  0.26232430  0.86286877  1
  O  O245  1  0.01114356  0.74522441  0.36869876  1
  O  O246  1  -0.00580509  0.76899593  0.88025565  1
  O  O247  1  0.51709717  0.24886352  0.37191250  1
  O  O248  1  0.50619176  0.25929800  0.86854310  1
  O  O249  1  0.50654205  0.75663291  0.36653936  1
  O  O250  1  0.50376411  0.75622967  0.86212761  1
  O  O251  1  0.24618544  0.13436244  0.49006741  1
  O  O252  1  0.24351864  0.13351903  1.00216056  1
  O  O253  1  0.24518202  0.63336654  0.48858380  1
  O  O254  1  0.25334113  0.61701267  0.97829429  1
  O  O255  1  0.73812165  0.11921509  0.49181318  1
  O  O256  1  0.74328146  0.13096486  0.98907665  1
  O  O257  1  0.74542311  0.63272419  0.49240252  1
  O  O258  1  0.74281461  0.63034759  0.99340139  1
  O  O259  1  0.24309659  0.36438668  0.01419096  1
  O  O260  1  0.25124084  0.35942412  0.49679456  1
  O  O261  1  0.25217176  0.88252553  0.01212191  1
  O  O262  1  0.25545874  0.87153346  0.50665298  1
  O  O263  1  0.75507533  0.37207347  0.00116493  1
  O  O264  1  0.76596256  0.37322232  0.49124052  1
  O  O265  1  0.73741908  0.85921509  -0.00316186  1
  O  O266  1  0.75567326  0.86240920  0.50449620  1
  O  O267  1  0.13293734  0.49328242  0.24386205  1
  O  O268  1  0.12457183  0.48566091  0.74013079  1
  O  O269  1  0.12431084  0.98290549  0.26181652  1
  O  O270  1  0.13269581  0.99039417  0.74951210  1
  O  O271  1  0.62127941  0.49274516  0.23814401  1
  O  O272  1  0.63134648  0.49552503  0.74471048  1
  O  O273  1  0.62307473  0.99208910  0.24328146  1
  O  O274  1  0.63570966  0.99405406  0.73811111  1
  O  O275  1  0.37184434  0.00841467  0.26179352  1
  O  O276  1  0.35449429  -0.00751477  0.75082497  1
  O  O277  1  0.36916773  0.50918545  0.25243527  1
  O  O278  1  0.38521665  0.49880787  0.76333430  1
  O  O279  1  0.87145437  0.00535057  0.25564955  1
  O  O280  1  0.85936451  0.00685150  0.74673501  1
  O  O281  1  0.88561460  0.50581777  0.24187050  1
  O  O282  1  0.86801059  0.50603711  0.75163293  1
  O  O283  1  0.12243215  0.37092455  0.37396167  1
  O  O284  1  0.11498201  0.38260607  0.85882074  1
  O  O285  1  0.12901388  0.86334897  0.37067986  1
  O  O286  1  0.11692588  0.87596450  0.86487504  1
  O  O287  1  0.63247514  0.36621664  0.36728246  1
  O  O288  1  0.61890937  0.37264860  0.86483778  1
  O  O289  1  0.62007385  0.87206044  0.36957229  1
  O  O290  1  0.61498054  0.86664796  0.86530093  1
  O  O291  1  0.37943903  0.13151366  0.13260111  1
  O  O292  1  0.38815929  0.13216201  0.61871942  1
  O  O293  1  0.38933116  0.61542220  0.12967668  1
  O  O294  1  0.36549925  0.64288625  0.62232355  1
  O  O295  1  0.83063548  0.14213316  0.13852278  1
  O  O296  1  0.86786440  0.13787386  0.63443206  1
  O  O297  1  0.88071457  0.62959324  0.13492332  1
  O  O298  1  0.88049561  0.62803105  0.63047965  1
  O  O299  1  0.25721364  0.25650350  0.11990686  1
  O  O300  1  0.26370726  0.24001498  0.61709466  1
  O  O301  1  0.24468757  0.77232784  0.12794124  1
  O  O302  1  0.25444761  0.76215611  0.62169089  1
  O  O303  1  0.74229111  0.26975748  0.11255034  1
  O  O304  1  0.76022371  0.25307438  0.62973224  1
  O  O305  1  0.73997087  0.74782606  0.10808433  1
  O  O306  1  0.75703612  0.75136559  0.61591577  1
  O  O307  1  0.24364882  0.24348278  0.38291100  1
  O  O308  1  0.26460378  0.25348630  0.89607035  1
  O  O309  1  0.24237171  0.74379364  0.37728226  1
  O  O310  1  0.26672994  0.74660081  0.88216756  1
  O  O311  1  0.74031463  0.23741419  0.37403429  1
  O  O312  1  0.74465101  0.24569458  0.87682912  1
  O  O313  1  0.74579957  0.74375636  0.38500785  1
  O  O314  1  0.74169486  0.74399186  0.88228831  1
  O  O315  1  0.00242774  0.11499889  -0.00000845  1
  O  O316  1  0.01756513  0.13243459  0.49378514  1
  O  O317  1  -0.00240699  0.61698737  0.00708578  1
  O  O318  1  0.00365336  0.62943273  0.51359140  1
  O  O319  1  0.50873799  0.11818221  0.00887822  1
  O  O320  1  0.51308345  0.12696818  0.51146074  1
  O  O321  1  0.50673021  0.61168703  0.00779919  1
  O  O322  1  0.51538899  0.63017903  0.49279571  1
  O  O323  1  0.50060184  0.38003881  0.49608645  1
  O  O324  1  0.51055735  0.38160733  0.98891897  1
  O  O325  1  0.48589351  0.86914365  0.49315794  1
  O  O326  1  0.50737353  0.88779583  0.98802657  1
  O  O327  1  1.00061821  0.37347226  0.49194154  1
  O  O328  1  0.99829608  0.38110526  0.98676992  1
  O  O329  1  0.98444409  0.86385537  0.49986290  1
  O  O330  1  1.00520828  0.88883899  0.98787265  1
  O  O331  1  0.49979203  0.49786629  0.37914027  1
  O  O332  1  0.49817114  0.49267069  0.88165885  1
  O  O333  1  0.48689819  0.99644321  0.37187875  1
  O  O334  1  0.50665933  0.98592495  0.88390656  1
  O  O335  1  1.01122355  0.49034097  0.38266411  1
  O  O336  1  0.99603058  0.49372292  0.87632951  1
  O  O337  1  0.99419831  1.00011498  0.38264542  1
  O  O338  1  0.99393726  0.98828119  0.87998820  1
  O  O339  1  -0.00714053  -0.00859421  0.11229570  1
  O  O340  1  -0.00719828  -0.00061943  0.61990319  1
  O  O341  1  0.00846387  0.50127285  0.11731943  1
  O  O342  1  0.00617662  0.50958812  0.62935026  1
  O  O343  1  0.50694953  0.00444313  0.11895584  1
  O  O344  1  0.50959616  0.00908019  0.63545896  1
  O  O345  1  0.50737338  0.50281947  0.11876969  1
  O  O346  1  0.51332219  0.50181140  0.62808161  1
  O  O347  1  0.24242976  0.38132502  0.24484578  1
  O  O348  1  0.23715437  0.36514886  0.75556710  1
  O  O349  1  0.23677112  0.87557087  0.24387244  1
  O  O350  1  0.23635365  0.88285893  0.74257326  1
  O  O351  1  0.74223677  0.37310137  0.23920779  1
  O  O352  1  0.74162208  0.38592816  0.75804911  1
  O  O353  1  0.73608414  0.87378004  0.25241891  1
  O  O354  1  0.74375948  0.88028155  0.74448849  1
  O  O355  1  0.25320307  0.12762543  0.26168456  1
  O  O356  1  0.24054009  0.10837518  0.74547437  1
  O  O357  1  0.25490017  0.62379121  0.25421049  1
  O  O358  1  0.25793152  0.63300284  0.76678481  1
  O  O359  1  0.74132201  0.11808873  0.27312081  1
  O  O360  1  0.75342994  0.11704833  0.75223022  1
  O  O361  1  0.76168807  0.63036352  0.25787481  1
  O  O362  1  0.75812129  0.61623467  0.75494693  1
  O  O363  1  0.37035157  0.12172307  0.37328929  1
  O  O364  1  0.41699380  0.11851388  0.86021906  1
  O  O365  1  0.36251483  0.62874623  0.36885595  1
  O  O366  1  0.36592014  0.60871527  0.87060594  1
  O  O367  1  0.86036056  0.13073379  0.38561860  1
  O  O368  1  0.86444465  0.12424886  0.86034800  1
  O  O369  1  0.86699364  0.62532987  0.36510801  1
  O  O370  1  0.87145634  0.62061933  0.86616294  1
  O  O371  1  0.13637786  0.38041717  0.13554886  1
  O  O372  1  0.12538492  0.38727752  0.63531104  1
  O  O373  1  0.12085517  0.87604584  0.13974268  1
  O  O374  1  0.12886873  0.87407949  0.63625889  1
  O  O375  1  0.63126681  0.38217755  0.13103073  1
  O  O376  1  0.62244708  0.38386382  0.63700724  1
  O  O377  1  0.62285161  0.88530285  0.13681568  1
  O  O378  1  0.62795993  0.88068877  0.62703667  1
  O  O379  1  0.13153179  0.26234025  0.26221886  1
  O  O380  1  0.11587156  0.26550388  0.73917807  1
  O  O381  1  0.11708355  0.75755094  0.25831596  1
  O  O382  1  0.12907354  0.76576249  0.75596277  1
  O  O383  1  0.62968455  0.25807545  0.25710197  1
  O  O384  1  0.62093825  0.25937641  0.75317378  1
  O  O385  1  0.61767042  0.75683661  0.25612812  1
  O  O386  1  0.61780574  0.75362075  0.74995704  1
  O  O387  1  0.37616361  0.24331239  0.24045631  1
  O  O388  1  0.38983444  0.25476671  0.74166300  1
  O  O389  1  0.38871938  0.74571207  0.25730310  1
  O  O390  1  0.38287216  0.75319853  0.73769978  1
  O  O391  1  0.87951405  0.24719097  0.24845303  1
  O  O392  1  0.87973942  0.24407042  0.73896756  1
  O  O393  1  0.89032101  0.74575794  0.25532898  1
  O  O394  1  0.86314473  0.73700041  0.73905539  1
  O  O395  1  0.37754564  0.49764013  0.49668805  1
  O  O396  1  0.39017464  0.50027705  0.98661714  1
  O  O397  1  0.36596322  0.99045553  0.49205288  1
  O  O398  1  0.38921264  1.00958717  0.99854850  1
  O  O399  1  0.87410977  0.48441249  0.51244854  1
  O  O400  1  0.88150262  0.49542097  0.99147693  1
  O  O401  1  0.86600132  0.97975344  0.50459077  1
  O  O402  1  0.88613644  1.00693751  0.99676019  1
  O  O403  1  0.10981807  0.01031115  0.00093161  1
  O  O404  1  0.13197417  0.01608084  0.49804290  1
  O  O405  1  0.12063334  0.50318464  0.00449303  1
  O  O406  1  0.13347578  0.50060307  0.52041151  1
  O  O407  1  0.61720803  0.00558753  0.00869636  1
  O  O408  1  0.62806199  0.00440292  0.51276332  1
  O  O409  1  0.61626886  0.50294874  0.00694704  1
  O  O410  1  0.62696438  0.50969218  0.51093325  1
  O  O411  1  0.36613397  0.36581295  0.13494049  1
  O  O412  1  0.38136640  0.35928857  0.62246734  1
  O  O413  1  0.36735282  0.87289190  0.13176738  1
  O  O414  1  0.36550356  0.87058615  0.61699641  1
  O  O415  1  0.85951790  0.38511647  0.11371249  1
  O  O416  1  0.87755515  0.36396702  0.61519389  1
  O  O417  1  0.86825823  0.86235638  0.13289512  1
  O  O418  1  0.86874227  0.86278473  0.61825321  1
  O  O419  1  0.13471323  0.13452862  0.38287125  1
  O  O420  1  0.12066460  0.12775821  0.89729728  1
  O  O421  1  0.13421650  0.63428115  0.37258633  1
  O  O422  1  0.14332878  0.62983162  0.86914535  1
  O  O423  1  0.63043434  0.12939918  0.38477631  1
  O  O424  1  0.62509931  0.13245396  0.87936613  1
  O  O425  1  0.63498287  0.63254389  0.38136367  1
  O  O426  1  0.62905083  0.62760462  0.87785657  1
