# generated using pymatgen
data_V85Zn86O256
_symmetry_space_group_name_H-M   'P 1'
_cell_length_a   16.94671635
_cell_length_b   16.94540281
_cell_length_c   16.94454299
_cell_angle_alpha   90.03907093
_cell_angle_beta   89.96139002
_cell_angle_gamma   89.94849726
_symmetry_Int_Tables_number   1
_chemical_formula_structural   V85Zn86O256
_chemical_formula_sum   'V85 Zn86 O256'
_cell_volume   4865.94216061
_cell_formula_units_Z   1
loop_
 _symmetry_equiv_pos_site_id
 _symmetry_equiv_pos_as_xyz
  1  'x, y, z'
loop_
 _atom_site_type_symbol
 _atom_site_label
 _atom_site_symmetry_multiplicity
 _atom_site_fract_x
 _atom_site_fract_y
 _atom_site_fract_z
 _atom_site_occupancy
  V  V0  1  0.25478328  0.37695058  0.12107391  1
  V  V1  1  0.62660417  0.63672850  -0.00457187  1
  V  V2  1  0.37544929  0.25047067  0.62572473  1
  V  V3  1  0.12295801  0.25051109  0.88102239  1
  V  V4  1  0.62580762  0.74860014  0.38054663  1
  V  V5  1  0.62522654  0.12393918  0.49995843  1
  V  V6  1  0.12631199  0.00447205  0.11744354  1
  V  V7  1  0.11393729  0.36424176  0.25935370  1
  V  V8  1  0.50005581  0.12445508  0.62436167  1
  V  V9  1  0.62622933  0.12449409  -0.00076984  1
  V  V10  1  0.24572400  0.38274502  0.62781096  1
  V  V11  1  0.49742500  0.48915945  -0.00444762  1
  V  V12  1  0.74977662  0.87039832  0.11718234  1
  V  V13  1  0.24329921  0.13062107  0.37464153  1
  V  V14  1  0.12001457  0.50231269  0.12305035  1
  V  V15  1  0.11820334  0.61718232  0.50628627  1
  V  V16  1  0.37418947  0.12688460  0.25137910  1
  V  V17  1  0.25035185  0.00213005  0.25015582  1
  V  V18  1  0.75313180  0.25064166  -0.00062043  1
  V  V19  1  0.88087427  -0.00943577  0.87458878  1
  V  V20  1  0.75087556  -0.00434746  0.24888394  1
  V  V21  1  0.37632270  0.37726278  0.50080303  1
  V  V22  1  0.50343989  0.86835069  0.87425061  1
  V  V23  1  0.00290210  0.12724904  0.12546140  1
  V  V24  1  0.88205037  0.25103625  0.12944784  1
  V  V25  1  0.87950594  0.74452547  0.61650769  1
  V  V26  1  0.25203238  0.24940863  0.00117947  1
  V  V27  1  0.50058374  0.25220469  0.25053009  1
  V  V28  1  0.10199122  0.61335962  -0.01688992  1
  V  V29  1  0.50080122  0.37615543  0.37707326  1
  V  V30  1  0.11914044  0.38083390  0.75327399  1
  V  V31  1  0.87546230  0.61970067  0.75268380  1
  V  V32  1  0.62200702  0.37404719  0.75322405  1
  V  V33  1  0.75001929  0.49778855  0.75852472  1
  V  V34  1  0.62588558  0.86921464  0.75153309  1
  V  V35  1  0.87035302  0.74903473  0.11766074  1
  V  V36  1  0.62571414  0.50195153  0.12300468  1
  V  V37  1  0.50325713  0.87751647  0.36754390  1
  V  V38  1  0.11763932  0.75341858  0.37349635  1
  V  V39  1  0.25326433  0.87022554  0.12493055  1
  V  V40  1  -0.00077885  0.24966559  0.75617149  1
  V  V41  1  0.11929961  0.87596408  0.25356379  1
  V  V42  1  0.37614086  0.25445775  0.12237744  1
  V  V43  1  0.00042195  -0.00689756  -0.00239522  1
  V  V44  1  0.37374080  -0.00105880  0.87508505  1
  V  V45  1  0.87592296  0.12411760  0.74712205  1
  V  V46  1  0.24581803  0.12305831  0.88126850  1
  V  V47  1  0.24312542  0.25256322  0.49720036  1
  V  V48  1  0.50290189  0.51398444  0.50363711  1
  V  V49  1  0.00121809  0.62870073  0.13662381  1
  V  V50  1  0.74569307  0.63962425  0.87723727  1
  V  V51  1  0.62629541  -0.00506850  0.12859038  1
  V  V52  1  0.12404278  0.12248543  0.50855250  1
  V  V53  1  0.24509554  0.87815267  0.62458457  1
  V  V54  1  0.00190044  -0.01290524  0.49849047  1
  V  V55  1  0.24944018  0.74489919  0.00062407  1
  V  V56  1  0.25044145  0.62826276  0.37625494  1
  V  V57  1  0.62029741  0.51346491  0.62406719  1
  V  V58  1  0.50121071  0.74662199  0.74535445  1
  V  V59  1  0.75068626  0.86735947  0.61429532  1
  V  V60  1  0.50057796  0.12566970  0.12499260  1
  V  V61  1  0.88324385  0.49535868  0.38181914  1
  V  V62  1  0.37461997  0.63499769  0.24349873  1
  V  V63  1  0.24377214  0.00166668  0.74604420  1
  V  V64  1  0.62249210  0.25094536  0.87529906  1
  V  V65  1  0.11622832  0.87612486  0.75221374  1
  V  V66  1  0.75135463  -0.00251170  0.74821387  1
  V  V67  1  0.50024110  -0.00084976  -0.00101703  1
  V  V68  1  0.75359406  0.25308138  0.50230500  1
  V  V69  1  0.86635176  0.62449604  0.25130415  1
  V  V70  1  0.75828088  0.12218811  0.37317821  1
  V  V71  1  0.75071556  0.12289162  0.87519075  1
  V  V72  1  0.75200746  0.37750338  0.12288872  1
  V  V73  1  0.49452231  0.63091359  0.12185262  1
  V  V74  1  0.37670079  0.62463468  0.74848873  1
  V  V75  1  0.25072073  0.50034229  0.25096541  1
  V  V76  1  0.74079666  0.62416024  0.39391349  1
  V  V77  1  0.62532300  0.25037293  0.37419774  1
  V  V78  1  0.49835222  0.25282636  0.75505330  1
  V  V79  1  0.62476614  -0.00203448  0.62316737  1
  V  V80  1  0.89263221  0.38824493  -0.01017063  1
  V  V81  1  0.37436695  0.86858484  0.00174764  1
  V  V82  1  0.11629950  0.75513810  0.87570128  1
  V  V83  1  0.37588947  0.74907793  0.62332208  1
  V  V84  1  0.37827410  0.48694074  0.87642178  1
  Zn  Zn85  1  0.88240348  0.12669175  0.25093155  1
  Zn  Zn86  1  0.87601240  0.25007466  0.62526148  1
  Zn  Zn87  1  0.24870630  0.75334123  0.50037319  1
  Zn  Zn88  1  0.37487236  0.87778546  0.49915873  1
  Zn  Zn89  1  0.89331038  -0.02418879  0.36149921  1
  Zn  Zn90  1  -0.02083357  0.77233235  0.26400086  1
  Zn  Zn91  1  0.74718383  0.49886119  0.25377615  1
  Zn  Zn92  1  0.49777162  -0.00173468  0.50039981  1
  Zn  Zn93  1  0.37397354  -0.00008792  0.37761383  1
  Zn  Zn94  1  0.00854122  0.11955572  0.62886965  1
  Zn  Zn95  1  0.87646213  0.86182985  -0.01084291  1
  Zn  Zn96  1  0.87211589  0.86431528  0.48368333  1
  Zn  Zn97  1  0.88748944  0.38453461  0.50749828  1
  Zn  Zn98  1  0.75013967  0.37470496  0.62516881  1
  Zn  Zn99  1  0.62460085  0.37605795  0.24893208  1
  Zn  Zn100  1  0.37992990  0.50449882  0.37647913  1
  Zn  Zn101  1  -0.00010996  0.74588372  0.75031115  1
  Zn  Zn102  1  0.01692563  0.58109488  0.62934053  1
  Zn  Zn103  1  0.24504637  0.50399080  0.75089125  1
  Zn  Zn104  1  0.37410819  0.12428951  0.75008841  1
  Zn  Zn105  1  0.50481734  0.75683412  0.24251454  1
  Zn  Zn106  1  0.25613956  0.62656309  0.87546934  1
  Zn  Zn107  1  0.18496482  0.18859530  0.18726007  1
  Zn  Zn108  1  0.18890498  0.19159547  0.68973090  1
  Zn  Zn109  1  0.18501158  0.68956398  0.18870493  1
  Zn  Zn110  1  0.18987872  0.69033450  0.68901757  1
  Zn  Zn111  1  0.69059957  0.18710681  0.18754350  1
  Zn  Zn112  1  0.68675080  0.18564814  0.68733534  1
  Zn  Zn113  1  0.68326987  0.69014591  0.19128121  1
  Zn  Zn114  1  0.69170514  0.68826349  0.68613901  1
  Zn  Zn115  1  0.31205296  0.31560353  0.31219334  1
  Zn  Zn116  1  0.30892573  0.31170902  0.81136299  1
  Zn  Zn117  1  0.31236060  0.81474924  0.31221616  1
  Zn  Zn118  1  0.31042490  0.81385375  0.81298870  1
  Zn  Zn119  1  0.81348922  0.31335993  0.31227045  1
  Zn  Zn120  1  0.81193836  0.31464223  0.81583548  1
  Zn  Zn121  1  0.79880414  0.81000449  0.30841197  1
  Zn  Zn122  1  0.81442410  0.80892114  0.80403291  1
  Zn  Zn123  1  0.18547702  0.43742481  0.43727062  1
  Zn  Zn124  1  0.19187051  0.43665477  0.93558381  1
  Zn  Zn125  1  0.18619022  0.94106846  0.43825832  1
  Zn  Zn126  1  0.18645144  0.93385002  0.93611468  1
  Zn  Zn127  1  0.68709284  0.43834070  0.43925600  1
  Zn  Zn128  1  0.68712386  0.43849034  0.93889577  1
  Zn  Zn129  1  0.68457771  0.93724810  0.43372218  1
  Zn  Zn130  1  0.68967680  0.93529558  0.93707023  1
  Zn  Zn131  1  0.31387612  0.06229218  0.06235357  1
  Zn  Zn132  1  0.31411259  0.06260383  0.56109705  1
  Zn  Zn133  1  0.31080222  0.56191432  0.05889158  1
  Zn  Zn134  1  0.31325720  0.56486741  0.56204700  1
  Zn  Zn135  1  0.81700633  0.06204048  0.06116091  1
  Zn  Zn136  1  0.81691330  0.05518566  0.55690988  1
  Zn  Zn137  1  0.81417992  0.56377304  0.05794301  1
  Zn  Zn138  1  0.81090967  0.55879796  0.56840085  1
  Zn  Zn139  1  0.43833326  0.44238757  0.18730482  1
  Zn  Zn140  1  0.43810457  0.43770992  0.68701024  1
  Zn  Zn141  1  0.43536147  0.93936509  0.18798722  1
  Zn  Zn142  1  0.43416814  0.93737444  0.68742767  1
  Zn  Zn143  1  0.93567945  0.43939614  0.18919156  1
  Zn  Zn144  1  0.93488316  0.43303435  0.68671358  1
  Zn  Zn145  1  0.93482955  0.93970101  0.18070045  1
  Zn  Zn146  1  0.93698858  0.93703743  0.67780275  1
  Zn  Zn147  1  0.06455316  0.06376853  0.31293267  1
  Zn  Zn148  1  0.06309930  0.06347886  0.81604722  1
  Zn  Zn149  1  0.06314875  0.56069749  0.31441494  1
  Zn  Zn150  1  0.06246766  0.56822595  0.81439395  1
  Zn  Zn151  1  0.56573759  0.06460892  0.31174101  1
  Zn  Zn152  1  0.56226712  0.06099032  0.81026253  1
  Zn  Zn153  1  0.56105606  0.56433437  0.31119680  1
  Zn  Zn154  1  0.56177463  0.56302956  0.81423555  1
  Zn  Zn155  1  0.43480003  0.18830414  0.43835790  1
  Zn  Zn156  1  0.43417868  0.18764786  0.93740446  1
  Zn  Zn157  1  0.43655137  0.69391587  0.43404435  1
  Zn  Zn158  1  0.43717427  0.68424784  0.93709180  1
  Zn  Zn159  1  0.94127032  0.18897843  0.44035103  1
  Zn  Zn160  1  0.93833624  0.18342497  0.94391867  1
  Zn  Zn161  1  0.93784720  0.67871463  0.43659118  1
  Zn  Zn162  1  0.93989118  0.66688474  0.93513602  1
  Zn  Zn163  1  0.06615601  0.31553616  0.06533425  1
  Zn  Zn164  1  0.06043355  0.31508181  0.57083795  1
  Zn  Zn165  1  0.05871115  0.80742431  0.06670623  1
  Zn  Zn166  1  0.06543604  0.80527796  0.56375770  1
  Zn  Zn167  1  0.56458617  0.31212213  0.06223194  1
  Zn  Zn168  1  0.56506583  0.31509058  0.56482530  1
  Zn  Zn169  1  0.56358306  0.81332512  0.06184400  1
  Zn  Zn170  1  0.56066041  0.81155112  0.55747604  1
  O  O171  1  0.12113493  0.11230264  0.12761460  1
  O  O172  1  0.13012730  0.12690680  0.61430016  1
  O  O173  1  0.11806974  0.61846488  0.12536455  1
  O  O174  1  0.12686805  0.63114821  0.61185903  1
  O  O175  1  0.62090748  0.11792261  0.11812892  1
  O  O176  1  0.62029577  0.11750455  0.62057206  1
  O  O177  1  0.61942790  0.61768472  0.11620491  1
  O  O178  1  0.62451074  0.61227475  0.63220250  1
  O  O179  1  0.38145056  0.37909466  0.38235909  1
  O  O180  1  0.37402069  0.38797641  0.86914572  1
  O  O181  1  0.38712551  0.87563477  0.37566228  1
  O  O182  1  0.38357730  0.87985219  0.88023937  1
  O  O183  1  0.86605070  0.39327442  0.37415709  1
  O  O184  1  0.87427541  0.37105777  0.89131462  1
  O  O185  1  0.87472826  0.86383406  0.37043247  1
  O  O186  1  0.87015624  0.88570930  0.87078051  1
  O  O187  1  0.25021805  0.01146328  0.36771856  1
  O  O188  1  0.25296700  0.00584681  0.87085120  1
  O  O189  1  0.25111738  0.51158006  0.36537547  1
  O  O190  1  0.26558997  0.50262361  0.87317752  1
  O  O191  1  0.74684480  0.00776306  0.36419062  1
  O  O192  1  0.75819021  0.00345232  0.86854497  1
  O  O193  1  0.74895660  0.51365854  0.37392796  1
  O  O194  1  0.74250999  0.50624336  0.86184754  1
  O  O195  1  0.24473324  0.49519084  0.13188952  1
  O  O196  1  0.25568762  0.48653523  0.62846256  1
  O  O197  1  0.24328024  0.99362355  0.12742430  1
  O  O198  1  0.25593621  0.99251194  0.63676521  1
  O  O199  1  0.74110923  0.49425206  0.12107333  1
  O  O200  1  0.73495291  0.49932935  0.63585746  1
  O  O201  1  0.74465898  0.99538352  0.12857868  1
  O  O202  1  0.74666283  0.98985677  0.62969382  1
  O  O203  1  0.01528740  0.38007702  0.24440689  1
  O  O204  1  0.01100912  0.36412760  0.75321140  1
  O  O205  1  0.01480776  0.88385136  0.24638303  1
  O  O206  1  0.01364829  0.87707534  0.74147502  1
  O  O207  1  0.50026187  0.37040972  0.25661189  1
  O  O208  1  0.50766445  0.36209624  0.74565241  1
  O  O209  1  0.49523488  0.87445334  0.26074097  1
  O  O210  1  0.50637027  0.86913565  0.75612892  1
  O  O211  1  0.49530316  0.13162346  0.24454086  1
  O  O212  1  0.49953051  0.13449108  0.74357542  1
  O  O213  1  0.48922298  0.62164923  0.23932708  1
  O  O214  1  0.49345359  0.63879473  0.75559235  1
  O  O215  1  0.99996319  0.11770086  0.23299660  1
  O  O216  1  0.99272690  0.12917723  0.74994991  1
  O  O217  1  0.98654087  0.62542170  0.24681837  1
  O  O218  1  0.98968790  0.61792515  0.74067485  1
  O  O219  1  0.36276150  0.24801140  0.00621019  1
  O  O220  1  0.36644296  0.25698464  0.50701798  1
  O  O221  1  0.36233604  0.75486726  -0.00602709  1
  O  O222  1  0.37256591  0.75189178  0.51174979  1
  O  O223  1  0.87076970  0.25739300  0.00875732  1
  O  O224  1  0.86052624  0.24546483  0.50286662  1
  O  O225  1  0.87992942  0.74401215  0.01389842  1
  O  O226  1  0.87943507  0.74578435  0.51300149  1
  O  O227  1  0.13927305  0.24470814  0.50759891  1
  O  O228  1  0.13835709  0.25592449  0.99227335  1
  O  O229  1  0.12908248  0.74125851  0.48948735  1
  O  O230  1  0.12629229  0.73992440  0.99342110  1
  O  O231  1  0.63252033  0.24375702  0.49439954  1
  O  O232  1  0.63087574  0.24394025  0.99543957  1
  O  O233  1  0.61556600  0.74559543  0.48187681  1
  O  O234  1  0.62245305  0.73607014  1.00090594  1
  O  O235  1  0.49638813  0.24553201  0.12884715  1
  O  O236  1  0.49588227  0.24488389  0.63350833  1
  O  O237  1  0.50499746  0.73561256  0.12449789  1
  O  O238  1  0.48881632  0.75996478  0.63567326  1
  O  O239  1  0.99412849  0.23940488  0.11484398  1
  O  O240  1  0.99854681  0.24416180  0.64360996  1
  O  O241  1  0.98759031  0.74903629  0.14239167  1
  O  O242  1  0.98484116  0.75157354  0.62934446  1
  O  O243  1  -0.00078664  0.28867562  0.41427165  1
  O  O244  1  0.01153178  0.23774158  0.86888447  1
  O  O245  1  0.01241683  0.74265688  0.37231879  1
  O  O246  1  0.01215379  0.74150106  0.87379951  1
  O  O247  1  0.50497250  0.25531396  0.37051681  1
  O  O248  1  0.50585847  0.24175365  0.86439631  1
  O  O249  1  0.50589417  0.75992363  0.37010324  1
  O  O250  1  0.49483470  0.76249591  0.86529639  1
  O  O251  1  0.24464768  0.13214569  0.49427054  1
  O  O252  1  0.25252216  0.13301943  0.99178440  1
  O  O253  1  0.24561943  0.62786565  0.48928461  1
  O  O254  1  0.24184749  0.63556969  1.00113307  1
  O  O255  1  0.74580579  0.12797719  0.49112399  1
  O  O256  1  0.74621617  0.12967034  0.99498733  1
  O  O257  1  0.74856095  0.62411786  0.49188169  1
  O  O258  1  0.74379212  0.62019781  0.98406552  1
  O  O259  1  0.24705594  0.36738659  0.01292886  1
  O  O260  1  0.25296895  0.37049127  0.50699677  1
  O  O261  1  0.25292814  0.86773793  0.00750928  1
  O  O262  1  0.25004427  0.87597104  0.51136655  1
  O  O263  1  0.75426080  0.37069947  0.00890190  1
  O  O264  1  0.74929360  0.36151692  0.49968000  1
  O  O265  1  0.75594228  0.87917891  0.01162688  1
  O  O266  1  0.75010256  0.87852263  0.51106439  1
  O  O267  1  0.13586737  0.49922133  0.24191309  1
  O  O268  1  0.12317423  0.48496503  0.76273800  1
  O  O269  1  0.13243509  0.99415065  0.24157217  1
  O  O270  1  0.13590593  0.99259738  0.75814450  1
  O  O271  1  0.62444753  0.50018314  0.23415952  1
  O  O272  1  0.62580358  0.49330462  0.74279733  1
  O  O273  1  0.63427760  1.00802237  0.23542598  1
  O  O274  1  0.63052431  0.98962836  0.74365007  1
  O  O275  1  0.36722458  0.00994603  0.25020202  1
  O  O276  1  0.36311656  -0.00021685  0.75785767  1
  O  O277  1  0.36391162  0.50968647  0.25121934  1
  O  O278  1  0.38058286  0.50823631  0.75967764  1
  O  O279  1  0.86488447  0.00414695  0.24891800  1
  O  O280  1  0.87263207  0.00486726  0.75484393  1
  O  O281  1  0.87000273  0.50856255  0.25970528  1
  O  O282  1  0.86164104  0.50873291  0.74134335  1
  O  O283  1  0.13077646  0.38167320  0.35759307  1
  O  O284  1  0.13434051  0.36236521  0.86484501  1
  O  O285  1  0.13514198  0.86589814  0.36477533  1
  O  O286  1  0.12721206  0.86644447  0.86541736  1
  O  O287  1  0.61948127  0.36879326  0.37215008  1
  O  O288  1  0.62943540  0.36780976  0.86289985  1
  O  O289  1  0.61525265  0.86331523  0.37510764  1
  O  O290  1  0.61627863  0.88100454  0.86375768  1
  O  O291  1  0.38102041  0.13190787  0.13014721  1
  O  O292  1  0.38047480  0.13336882  0.62713260  1
  O  O293  1  0.38378790  0.61785714  0.12998244  1
  O  O294  1  0.37040186  0.63620160  0.63582763  1
  O  O295  1  0.88241539  0.13424150  0.12481543  1
  O  O296  1  0.87170709  0.12422302  0.64033059  1
  O  O297  1  0.87867947  0.62881915  0.13275627  1
  O  O298  1  0.86867516  0.63533092  0.63359049  1
  O  O299  1  0.25439923  0.25629227  0.11881452  1
  O  O300  1  0.25649717  0.25980821  0.61901789  1
  O  O301  1  0.23972307  0.76113364  0.11488874  1
  O  O302  1  0.26025661  0.76038206  0.62648093  1
  O  O303  1  0.75715770  0.25780995  0.11910995  1
  O  O304  1  0.74772786  0.24748348  0.61360720  1
  O  O305  1  0.75569783  0.75961669  0.13106189  1
  O  O306  1  0.76258915  0.75752904  0.63010596  1
  O  O307  1  0.25752117  0.24339742  0.38654037  1
  O  O308  1  0.24598308  0.24280721  0.88225540  1
  O  O309  1  0.24226805  0.74086159  0.37312833  1
  O  O310  1  0.24089188  0.75579839  0.88750185  1
  O  O311  1  0.74578708  0.24201251  0.37990257  1
  O  O312  1  0.74296502  0.24219921  0.87964202  1
  O  O313  1  0.73619984  0.73678191  0.37410392  1
  O  O314  1  0.74804067  0.73871705  0.86954513  1
  O  O315  1  -0.00339752  0.10896978  0.01251759  1
  O  O316  1  0.01245184  0.12531319  0.50354401  1
  O  O317  1  0.00472103  0.64768026  0.03216622  1
  O  O318  1  0.01531593  0.62566069  0.50328057  1
  O  O319  1  0.50460559  0.11935716  0.00498620  1
  O  O320  1  0.50751249  0.12634207  0.50633700  1
  O  O321  1  0.50664793  0.61775034  0.00449661  1
  O  O322  1  0.49404428  0.61246962  0.49437424  1
  O  O323  1  0.49516469  0.38042934  0.49583497  1
  O  O324  1  0.50322954  0.38954318  1.00478250  1
  O  O325  1  0.49790344  0.87732790  0.48458938  1
  O  O326  1  0.49621923  0.87822574  0.99239478  1
  O  O327  1  0.99599182  0.34207574  0.47716348  1
  O  O328  1  0.99214568  0.37542639  1.00230833  1
  O  O329  1  1.00565183  0.88499872  0.50167172  1
  O  O330  1  0.99453208  0.88678899  1.00845710  1
  O  O331  1  0.50266383  0.49424290  0.38473118  1
  O  O332  1  0.48853297  0.50374624  0.88130180  1
  O  O333  1  0.50413537  0.98769862  0.37266870  1
  O  O334  1  0.49535126  0.99085499  0.87857615  1
  O  O335  1  0.98222365  0.50779244  0.37477072  1
  O  O336  1  1.02441164  0.57020049  0.92148678  1
  O  O337  1  1.00121117  1.00871565  0.38989067  1
  O  O338  1  0.99177057  1.00509762  0.88424556  1
  O  O339  1  0.00811714  0.00522649  0.11740595  1
  O  O340  1  -0.00619042  0.00553938  0.60563230  1
  O  O341  1  0.01238841  0.51129746  0.13208603  1
  O  O342  1  -0.00030868  0.47471694  0.60784608  1
  O  O343  1  0.50743631  0.00430555  0.11998852  1
  O  O344  1  0.50657388  0.00567471  0.62700767  1
  O  O345  1  0.50664861  0.50847330  0.11625643  1
  O  O346  1  0.51197356  0.49724628  0.62008079  1
  O  O347  1  0.24485503  0.38431811  0.24222955  1
  O  O348  1  0.23921133  0.37544936  0.74363938  1
  O  O349  1  0.24439242  0.88081272  0.24156555  1
  O  O350  1  0.24239221  0.88327356  0.74522368  1
  O  O351  1  0.74836048  0.37772626  0.23444004  1
  O  O352  1  0.74189154  0.38149737  0.75058845  1
  O  O353  1  0.74875696  0.88836666  0.23641012  1
  O  O354  1  0.74153329  0.87740659  0.74160978  1
  O  O355  1  0.25329761  0.12386862  0.25664626  1
  O  O356  1  0.25054387  0.11795759  0.75926542  1
  O  O357  1  0.25482753  0.61987452  0.25350584  1
  O  O358  1  0.26155549  0.62213902  0.75059590  1
  O  O359  1  0.75247805  0.11682590  0.25697881  1
  O  O360  1  0.75613707  0.11827918  0.75530112  1
  O  O361  1  0.75766400  0.62126624  0.25247624  1
  O  O362  1  0.75274515  0.61901774  0.76001536  1
  O  O363  1  0.36488387  0.12527105  0.36859392  1
  O  O364  1  0.36372642  0.11800850  0.87373037  1
  O  O365  1  0.36578043  0.62590209  0.36525368  1
  O  O366  1  0.37423230  0.62122007  0.86267815  1
  O  O367  1  0.86477455  0.13012372  0.37196124  1
  O  O368  1  0.87025129  0.11504439  0.86603663  1
  O  O369  1  0.86001445  0.61953260  0.37123157  1
  O  O370  1  0.85951112  0.62566251  0.86408484  1
  O  O371  1  0.13497770  0.38481074  0.13306303  1
  O  O372  1  0.13380525  0.36792197  0.64214030  1
  O  O373  1  0.13390779  0.88284933  0.13239962  1
  O  O374  1  0.13801295  0.86547146  0.63563024  1
  O  O375  1  0.63403550  0.38433752  0.12264944  1
  O  O376  1  0.62820665  0.37972878  0.63976833  1
  O  O377  1  0.63191694  0.88700248  0.11758291  1
  O  O378  1  0.63091279  0.87713860  0.63084477  1
  O  O379  1  0.12772249  0.26475065  0.24648038  1
  O  O380  1  0.11868524  0.25588756  0.76037451  1
  O  O381  1  0.12460292  0.76090925  0.25716819  1
  O  O382  1  0.12354772  0.75787522  0.75834802  1
  O  O383  1  0.61848542  0.25074066  0.25484947  1
  O  O384  1  0.61834313  0.25480497  0.75471409  1
  O  O385  1  0.61814468  0.74163977  0.26751103  1
  O  O386  1  0.61620196  0.76090451  0.74134482  1
  O  O387  1  0.38042761  0.24620797  0.24326882  1
  O  O388  1  0.38269469  0.24972379  0.74561153  1
  O  O389  1  0.37525377  0.73774291  0.24884961  1
  O  O390  1  0.38093865  0.74514992  0.74468791  1
  O  O391  1  0.87237316  0.25134477  0.23373669  1
  O  O392  1  0.88242540  0.23997014  0.75705131  1
  O  O393  1  0.86828345  0.73858919  0.24299872  1
  O  O394  1  0.87892039  0.73682415  0.74278484  1
  O  O395  1  0.38457075  0.49452609  0.50108560  1
  O  O396  1  0.38152065  0.50618391  0.98471098  1
  O  O397  1  0.37990861  0.99775067  0.49536431  1
  O  O398  1  0.38110737  0.99194927  0.99552502  1
  O  O399  1  0.86754904  0.50065638  0.48695541  1
  O  O400  1  0.87710876  0.48775336  1.00257553  1
  O  O401  1  0.88771087  0.99184903  0.49095793  1
  O  O402  1  0.88136403  0.99699931  0.98913267  1
  O  O403  1  0.11836301  -0.00810085  0.00976139  1
  O  O404  1  0.11415965  0.01010436  0.49702816  1
  O  O405  1  0.13752702  0.50996917  0.01170905  1
  O  O406  1  0.13178122  0.51856915  0.49429947  1
  O  O407  1  0.62040497  0.00510850  0.00670218  1
  O  O408  1  0.62332102  0.00654572  0.50609892  1
  O  O409  1  0.61760813  0.50812045  0.00590808  1
  O  O410  1  0.61914655  0.49519460  0.51736473  1
  O  O411  1  0.36334750  0.37104756  0.13233768  1
  O  O412  1  0.36741003  0.36978363  0.62137312  1
  O  O413  1  0.36160761  0.88042647  0.11912063  1
  O  O414  1  0.36427878  0.86644872  0.62749283  1
  O  O415  1  0.86989007  0.37098502  0.11638284  1
  O  O416  1  0.86648367  0.36641820  0.62157145  1
  O  O417  1  0.86655473  0.86475514  0.12418322  1
  O  O418  1  0.86656428  0.86059639  0.62445017  1
  O  O419  1  0.13815844  0.12629845  0.38328000  1
  O  O420  1  0.13746677  0.13491737  0.87183378  1
  O  O421  1  0.13283684  0.63268086  0.37909093  1
  O  O422  1  0.14043619  0.63998856  0.87499332  1
  O  O423  1  0.63502388  0.13069827  0.37946314  1
  O  O424  1  0.63072134  0.12765375  0.87983310  1
  O  O425  1  0.63413172  0.62871867  0.37576855  1
  O  O426  1  0.63627717  0.62277424  0.87967119  1
