# generated using pymatgen
data_V85Zn86O256
_symmetry_space_group_name_H-M   'P 1'
_cell_length_a   16.97432050
_cell_length_b   16.96343790
_cell_length_c   16.97478958
_cell_angle_alpha   90.06364375
_cell_angle_beta   89.94464966
_cell_angle_gamma   89.95048117
_symmetry_Int_Tables_number   1
_chemical_formula_structural   V85Zn86O256
_chemical_formula_sum   'V85 Zn86 O256'
_cell_volume   4887.76185148
_cell_formula_units_Z   1
loop_
 _symmetry_equiv_pos_site_id
 _symmetry_equiv_pos_as_xyz
  1  'x, y, z'
loop_
 _atom_site_type_symbol
 _atom_site_label
 _atom_site_symmetry_multiplicity
 _atom_site_fract_x
 _atom_site_fract_y
 _atom_site_fract_z
 _atom_site_occupancy
  V  V0  1  0.38885418  0.38670656  0.01726377  1
  V  V1  1  0.00315525  -0.01293770  0.00151075  1
  V  V2  1  0.37820279  0.49983622  0.87832705  1
  V  V3  1  0.49601465  0.87218928  0.87535324  1
  V  V4  1  0.87410072  0.62968202  0.24385713  1
  V  V5  1  0.00394794  0.50172129  0.50040546  1
  V  V6  1  0.25262434  0.37353509  0.61952702  1
  V  V7  1  0.37244731  0.25312034  0.61856224  1
  V  V8  1  0.00002669  0.12608556  0.62419462  1
  V  V9  1  0.25291645  0.24588048  -0.00000311  1
  V  V10  1  0.38332927  0.75052920  0.62578372  1
  V  V11  1  0.47702399  0.49685754  0.50270056  1
  V  V12  1  0.50078458  0.00074234  0.00539118  1
  V  V13  1  0.12182296  0.75680375  0.86451775  1
  V  V14  1  0.62454882  -0.00758148  0.12498979  1
  V  V15  1  0.75033633  0.24922698  0.00118930  1
  V  V16  1  0.00094247  0.62988985  0.63164093  1
  V  V17  1  0.62573836  0.37957802  0.25246053  1
  V  V18  1  0.87419299  0.37489142  -0.00014529  1
  V  V19  1  0.74587040  0.49660720  0.73956277  1
  V  V20  1  0.62002080  0.00229648  0.62482877  1
  V  V21  1  0.87820618  0.75192821  0.63221355  1
  V  V22  1  0.87543117  0.50006223  0.87548310  1
  V  V23  1  0.37240622  0.01201398  0.87475652  1
  V  V24  1  0.87294878  0.25330416  0.62723706  1
  V  V25  1  0.38079653  0.74777952  0.12729867  1
  V  V26  1  0.74923266  0.25408278  0.50567277  1
  V  V27  1  0.00068097  0.25058504  0.75159334  1
  V  V28  1  0.49791674  0.75475861  0.25366644  1
  V  V29  1  0.61806621  0.86916465  0.75022331  1
  V  V30  1  0.00250549  0.37225283  0.37613818  1
  V  V31  1  0.48934939  0.38086604  0.37472389  1
  V  V32  1  0.61920031  0.74768716  0.87628738  1
  V  V33  1  0.74859839  0.62361525  0.87505167  1
  V  V34  1  0.74543548  0.37914375  0.12540143  1
  V  V35  1  0.75958951  0.75228345  0.00459428  1
  V  V36  1  0.39344569  0.23675581  0.13524379  1
  V  V37  1  0.25204222  0.75189514  0.00453428  1
  V  V38  1  0.00153841  0.25031719  0.25311895  1
  V  V39  1  0.62394728  0.25414322  0.37678229  1
  V  V40  1  0.76572494  0.87045131  0.12237036  1
  V  V41  1  0.12140105  0.37981930  0.24898352  1
  V  V42  1  0.62522053  0.24850605  0.87344967  1
  V  V43  1  0.37226091  0.02195260  0.37048153  1
  V  V44  1  0.12413537  0.50079123  0.62745411  1
  V  V45  1  0.25151908  0.62578078  0.87455036  1
  V  V46  1  0.12978274  0.13622907  0.48832437  1
  V  V47  1  0.12572287  0.62252018  0.00246701  1
  V  V48  1  0.24611068  0.37725665  0.13178725  1
  V  V49  1  0.62468672  0.12121251  0.00289340  1
  V  V50  1  0.00153203  0.37488929  0.87694139  1
  V  V51  1  0.61285260  0.61170644  0.01112339  1
  V  V52  1  0.74960302  0.75038966  0.49882610  1
  V  V53  1  -0.00354519  0.74914887  0.24214575  1
  V  V54  1  0.12710988  0.75208897  0.37213937  1
  V  V55  1  0.00135864  0.87492947  0.37359201  1
  V  V56  1  0.50005984  -0.00254393  0.49376115  1
  V  V57  1  0.00615552  0.12328635  0.12065060  1
  V  V58  1  0.87555043  -0.01050685  0.87935772  1
  V  V59  1  0.75188828  0.12399227  0.87524144  1
  V  V60  1  0.13195909  0.24128660  0.87544444  1
  V  V61  1  0.87236275  0.37723385  0.50618852  1
  V  V62  1  0.74880533  0.50320577  0.24918750  1
  V  V63  1  0.12924194  -0.00510595  0.62741201  1
  V  V64  1  0.74852906  0.00057127  0.75035431  1
  V  V65  1  0.61794349  0.75510172  0.37691591  1
  V  V66  1  0.25126515  0.75336827  0.49718691  1
  V  V67  1  0.62800100  0.37780952  0.73778668  1
  V  V68  1  0.74967063  -0.00285768  0.24855069  1
  V  V69  1  0.24622684  0.01584097  0.24968038  1
  V  V70  1  0.62556802  0.61380988  0.50556312  1
  V  V71  1  0.37791930  0.87468986  0.48910501  1
  V  V72  1  0.25231162  0.60920010  0.36959424  1
  V  V73  1  0.25159712  0.49982176  0.74982806  1
  V  V74  1  0.74866805  0.87465683  0.62502608  1
  V  V75  1  0.49813856  0.24514640  0.74833793  1
  V  V76  1  0.87375880  0.00113727  0.37296641  1
  V  V77  1  0.00067578  0.00292376  0.49726278  1
  V  V78  1  0.37907381  0.61123423  0.25107458  1
  V  V79  1  0.50087655  0.37662132  0.87712463  1
  V  V80  1  0.38273044  0.63121525  0.74911134  1
  V  V81  1  0.87446248  0.12541678  0.75034697  1
  V  V82  1  0.12640973  0.37500256  0.75283858  1
  V  V83  1  0.87009626  0.12545840  0.24850309  1
  V  V84  1  0.87209846  0.25070420  0.12526640  1
  Zn  Zn85  1  0.62308076  0.87337006  0.25249554  1
  Zn  Zn86  1  0.49176710  0.12257645  0.62488903  1
  Zn  Zn87  1  0.87452540  0.87580156  0.50008214  1
  Zn  Zn88  1  0.24850639  0.87243678  0.63361164  1
  Zn  Zn89  1  0.12480157  0.50406823  0.12859386  1
  Zn  Zn90  1  -0.00471891  0.62465267  0.12204031  1
  Zn  Zn91  1  0.00092881  0.86961143  0.85026239  1
  Zn  Zn92  1  0.35684360  0.13028542  0.75266067  1
  Zn  Zn93  1  0.74705057  0.12515857  0.37592268  1
  Zn  Zn94  1  0.37603701  0.87574010  0.00405625  1
  Zn  Zn95  1  0.23777542  0.00072074  0.76357465  1
  Zn  Zn96  1  0.12641737  0.88367372  0.23953319  1
  Zn  Zn97  1  0.00249415  0.49953229  0.00311388  1
  Zn  Zn98  1  0.24799224  0.88292571  0.12929971  1
  Zn  Zn99  1  0.12576020  0.62573810  0.49898701  1
  Zn  Zn100  1  0.25687428  0.24523762  0.48659686  1
  Zn  Zn101  1  0.87736470  0.62707955  0.75217061  1
  Zn  Zn102  1  0.13143115  0.11832913  0.00003675  1
  Zn  Zn103  1  0.74989794  0.62535054  0.37320539  1
  Zn  Zn104  1  0.87579494  0.50359636  0.37504891  1
  Zn  Zn105  1  0.50595544  0.61865005  0.63193054  1
  Zn  Zn106  1  0.62508015  0.12734646  0.50119911  1
  Zn  Zn107  1  0.18783399  0.19121788  0.18803202  1
  Zn  Zn108  1  0.18870154  0.18118550  0.68490175  1
  Zn  Zn109  1  0.18991118  0.68816076  0.18932320  1
  Zn  Zn110  1  0.19292082  0.68584380  0.68492713  1
  Zn  Zn111  1  0.65236483  0.16960842  0.20815445  1
  Zn  Zn112  1  0.68650324  0.18900823  0.68694856  1
  Zn  Zn113  1  0.68284304  0.68633096  0.18588228  1
  Zn  Zn114  1  0.68886156  0.68579592  0.68764437  1
  Zn  Zn115  1  0.31395171  0.28918120  0.30744443  1
  Zn  Zn116  1  0.31468694  0.31462075  0.81375727  1
  Zn  Zn117  1  0.31149038  0.81631302  0.30767166  1
  Zn  Zn118  1  0.30710931  0.81691626  0.81116592  1
  Zn  Zn119  1  0.81315787  0.31425462  0.31610441  1
  Zn  Zn120  1  0.81009401  0.31474492  0.81208377  1
  Zn  Zn121  1  0.81171074  0.81308406  0.31231878  1
  Zn  Zn122  1  0.80665671  0.81253972  0.81263934  1
  Zn  Zn123  1  0.21818321  0.40249526  0.40807427  1
  Zn  Zn124  1  0.19481999  0.43387790  0.94030790  1
  Zn  Zn125  1  0.19078606  0.94151248  0.43462361  1
  Zn  Zn126  1  0.18746424  0.93481210  0.94186249  1
  Zn  Zn127  1  0.69115323  0.43721489  0.43500690  1
  Zn  Zn128  1  0.68584048  0.43593523  0.93259624  1
  Zn  Zn129  1  0.68669026  0.93612478  0.43660835  1
  Zn  Zn130  1  0.68900862  0.93355300  0.93721537  1
  Zn  Zn131  1  0.31577185  0.06508641  0.06535073  1
  Zn  Zn132  1  0.31202377  0.06803219  0.56054385  1
  Zn  Zn133  1  0.31190519  0.56442480  0.06836464  1
  Zn  Zn134  1  0.30786534  0.56738714  0.56420667  1
  Zn  Zn135  1  0.81504985  0.05979836  0.06273787  1
  Zn  Zn136  1  0.81076471  0.06538721  0.56187848  1
  Zn  Zn137  1  0.80748300  0.56467197  0.06212443  1
  Zn  Zn138  1  0.81662914  0.56678646  0.56173039  1
  Zn  Zn139  1  0.43363048  0.42371551  0.19211178  1
  Zn  Zn140  1  0.43867945  0.43620160  0.68858081  1
  Zn  Zn141  1  0.43242893  0.93596677  0.19151878  1
  Zn  Zn142  1  0.43089691  0.93432013  0.68781520  1
  Zn  Zn143  1  0.93593345  0.44290331  0.18495554  1
  Zn  Zn144  1  0.93729271  0.43998741  0.68986956  1
  Zn  Zn145  1  0.94125110  0.93818398  0.18670135  1
  Zn  Zn146  1  0.93767428  0.93726296  0.68750014  1
  Zn  Zn147  1  0.06291187  0.06728168  0.30975286  1
  Zn  Zn148  1  0.05785392  0.05947874  0.81324965  1
  Zn  Zn149  1  0.06149191  0.56333528  0.31417295  1
  Zn  Zn150  1  0.06467695  0.56524970  0.81535044  1
  Zn  Zn151  1  0.55361696  0.06742559  0.31099524  1
  Zn  Zn152  1  0.55968187  0.06058436  0.81483188  1
  Zn  Zn153  1  0.56129052  0.56403318  0.31897222  1
  Zn  Zn154  1  0.56402455  0.55897574  0.81554737  1
  Zn  Zn155  1  0.44582471  0.19011096  0.43909846  1
  Zn  Zn156  1  0.43911684  0.19353550  0.94683678  1
  Zn  Zn157  1  0.43685537  0.68204830  0.43582911  1
  Zn  Zn158  1  0.43782658  0.68422665  0.94007391  1
  Zn  Zn159  1  0.93505631  0.18783242  0.43681305  1
  Zn  Zn160  1  0.93926961  0.18466414  0.93768219  1
  Zn  Zn161  1  0.93510832  0.68629376  0.43608501  1
  Zn  Zn162  1  0.94175203  0.68848155  0.93655439  1
  Zn  Zn163  1  0.06253024  0.30930135  0.06106150  1
  Zn  Zn164  1  0.06239315  0.31497440  0.56518161  1
  Zn  Zn165  1  0.06929186  0.81227910  0.06244814  1
  Zn  Zn166  1  0.06138661  0.81336984  0.56247305  1
  Zn  Zn167  1  0.56909530  0.31335948  0.06405447  1
  Zn  Zn168  1  0.55600697  0.31737971  0.55960341  1
  Zn  Zn169  1  0.56392249  0.80675386  0.06184000  1
  Zn  Zn170  1  0.56120810  0.81318690  0.55948385  1
  O  O171  1  0.10890745  0.13059217  0.12443344  1
  O  O172  1  0.11670599  0.11546388  0.61248131  1
  O  O173  1  0.12911798  0.62396705  0.11443640  1
  O  O174  1  0.11853955  0.62063918  0.62175727  1
  O  O175  1  0.63977469  0.10645718  0.10764028  1
  O  O176  1  0.62326542  0.11090113  0.62561269  1
  O  O177  1  0.62656087  0.62380734  0.11015191  1
  O  O178  1  0.62090157  0.63421341  0.61005960  1
  O  O179  1  0.39299263  0.37152097  0.36042579  1
  O  O180  1  0.38260152  0.38267818  0.88531297  1
  O  O181  1  0.37505605  0.87586419  0.38744914  1
  O  O182  1  0.38719100  0.87977554  0.87770659  1
  O  O183  1  0.88570039  0.37784234  0.38629730  1
  O  O184  1  0.87938211  0.38149947  0.88011271  1
  O  O185  1  0.88541878  0.88080673  0.37689482  1
  O  O186  1  0.87514848  0.88601290  0.86801025  1
  O  O187  1  0.26611631  0.00195436  0.36966300  1
  O  O188  1  0.27064534  -0.00555002  0.88465172  1
  O  O189  1  0.24283927  0.51120624  0.38026651  1
  O  O190  1  0.25687713  0.50423003  0.86659407  1
  O  O191  1  0.75548833  -0.00120837  0.36816892  1
  O  O192  1  0.75585117  0.00312203  0.87108119  1
  O  O193  1  0.75513007  0.50238015  0.36314794  1
  O  O194  1  0.75771566  0.50765097  0.86962812  1
  O  O195  1  0.25019151  0.48099707  0.12297822  1
  O  O196  1  0.24471775  0.49647183  0.63196958  1
  O  O197  1  0.26457028  1.00258556  0.14496354  1
  O  O198  1  0.23286621  1.00126806  0.61488338  1
  O  O199  1  0.75545216  0.48804545  0.13380037  1
  O  O200  1  0.75825425  0.50835558  0.64154714  1
  O  O201  1  0.74565915  0.98846013  0.12640626  1
  O  O202  1  0.74075071  0.99514976  0.62883357  1
  O  O203  1  -0.00011959  0.36883754  0.25556846  1
  O  O204  1  0.00579047  0.37039706  0.75678423  1
  O  O205  1  0.00161265  0.86890525  0.25950624  1
  O  O206  1  0.00518289  0.87132493  0.74018191  1
  O  O207  1  0.51405783  0.38810977  0.26435885  1
  O  O208  1  0.50605676  0.36632279  0.75823859  1
  O  O209  1  0.50141965  0.85945956  0.24870707  1
  O  O210  1  0.51018063  0.87990343  0.75985521  1
  O  O211  1  0.54592871  0.14042217  0.23152507  1
  O  O212  1  0.50318995  0.13817840  0.74877455  1
  O  O213  1  0.48447688  0.63221568  0.26000992  1
  O  O214  1  0.48754669  0.61886508  0.75019399  1
  O  O215  1  0.99231028  0.13180185  0.24245681  1
  O  O216  1  0.99337563  0.13115204  0.74475801  1
  O  O217  1  0.99253322  0.63308649  0.25053287  1
  O  O218  1  0.99875844  0.62007592  0.73622200  1
  O  O219  1  0.37211546  0.26491928  0.01074562  1
  O  O220  1  0.37506921  0.24547270  0.51434134  1
  O  O221  1  0.36879184  0.74572960  0.00948998  1
  O  O222  1  0.36988040  0.75459435  0.50311238  1
  O  O223  1  0.86914421  0.25493752  0.00344199  1
  O  O224  1  0.86948402  0.25758583  0.50601078  1
  O  O225  1  0.85791715  0.74254334  -0.00533814  1
  O  O226  1  0.86349296  0.74983135  0.50736231  1
  O  O227  1  0.12221177  0.23782871  0.50652628  1
  O  O228  1  0.13459428  0.25115853  0.99079889  1
  O  O229  1  0.13334062  0.74991394  0.49013153  1
  O  O230  1  0.13521868  0.74034386  0.99319530  1
  O  O231  1  0.63406103  0.25631034  0.49662650  1
  O  O232  1  0.63063025  0.23926840  0.99532000  1
  O  O233  1  0.63088806  0.74473306  0.49493200  1
  O  O234  1  0.63189563  0.73976329  0.99017818  1
  O  O235  1  0.49017063  0.26368024  0.12642500  1
  O  O236  1  0.49080807  0.25187787  0.63255919  1
  O  O237  1  0.48990455  0.74967962  0.13359879  1
  O  O238  1  0.48656347  0.74471031  0.61621021  1
  O  O239  1  0.99110366  0.24448723  0.13140441  1
  O  O240  1  0.99381744  0.24604474  0.63288484  1
  O  O241  1  1.00569324  0.74862776  0.13959553  1
  O  O242  1  0.98970347  0.74100796  0.61360892  1
  O  O243  1  -0.00913608  0.25893062  0.36345273  1
  O  O244  1  0.00779267  0.25580384  0.87071246  1
  O  O245  1  0.00779218  0.75744969  0.37227464  1
  O  O246  1  0.01649991  0.75119478  0.87788928  1
  O  O247  1  0.51272734  0.26922478  0.38822779  1
  O  O248  1  0.50458595  0.25405869  0.86470516  1
  O  O249  1  0.50787369  0.74417700  0.36944728  1
  O  O250  1  0.50942908  0.75894795  0.88163830  1
  O  O251  1  0.23429156  0.12848801  0.49862122  1
  O  O252  1  0.24846460  0.13983078  1.00615330  1
  O  O253  1  0.25070454  0.63539624  0.48648288  1
  O  O254  1  0.24575562  0.63263453  0.99524112  1
  O  O255  1  0.74784490  0.13783763  0.49723305  1
  O  O256  1  0.74541828  0.12816928  0.99337642  1
  O  O257  1  0.74060473  0.63375635  0.50142218  1
  O  O258  1  0.74171918  0.63358623  0.99141754  1
  O  O259  1  0.26258534  0.36960257  0.01267902  1
  O  O260  1  0.24314793  0.38253811  0.52047377  1
  O  O261  1  0.25496998  0.86157164  0.00223697  1
  O  O262  1  0.25790097  0.86570455  0.49937057  1
  O  O263  1  0.75230448  0.37044453  0.00598956  1
  O  O264  1  0.76341409  0.36911674  0.49655249  1
  O  O265  1  0.74634564  0.85947548  0.00413101  1
  O  O266  1  0.74940679  0.86534607  0.50623929  1
  O  O267  1  0.11732275  0.48494180  0.24781139  1
  O  O268  1  0.13114211  0.49598743  0.74706283  1
  O  O269  1  0.14118337  1.00109815  0.26123734  1
  O  O270  1  0.11811275  1.00542991  0.72995071  1
  O  O271  1  0.63698294  0.49347301  0.25817622  1
  O  O272  1  0.63393859  0.49050630  0.75677649  1
  O  O273  1  0.63088305  0.99440326  0.23921014  1
  O  O274  1  0.62753655  0.99160411  0.74389217  1
  O  O275  1  0.37380447  0.00259907  0.26653121  1
  O  O276  1  0.38686341  0.00603400  0.76943342  1
  O  O277  1  0.38124727  0.51267348  0.24483821  1
  O  O278  1  0.37087756  0.50615159  0.75889842  1
  O  O279  1  0.86995945  0.00508873  0.25342180  1
  O  O280  1  0.86782915  0.00671291  0.75588182  1
  O  O281  1  0.86625909  0.50906135  0.25180701  1
  O  O282  1  0.86700533  0.49888656  0.76247424  1
  O  O283  1  0.10723886  0.37989603  0.36587592  1
  O  O284  1  0.12122352  0.36843462  0.87119805  1
  O  O285  1  0.11568997  0.86825493  0.37572759  1
  O  O286  1  0.12737212  0.85928529  0.87859809  1
  O  O287  1  0.62070886  0.37225707  0.37110367  1
  O  O288  1  0.61820086  0.36707394  0.86748418  1
  O  O289  1  0.62749848  0.86013669  0.37348007  1
  O  O290  1  0.61812599  0.86805915  0.86918525  1
  O  O291  1  0.38795948  0.13981863  0.10894219  1
  O  O292  1  0.37392298  0.13581846  0.63137828  1
  O  O293  1  0.36700600  0.63294743  0.14259146  1
  O  O294  1  0.37576256  0.63264928  0.63297010  1
  O  O295  1  0.88073414  0.13104063  0.12995103  1
  O  O296  1  0.87980046  0.13126902  0.63111191  1
  O  O297  1  0.87372273  0.62315609  0.13823171  1
  O  O298  1  0.88365680  0.63450595  0.62780790  1
  O  O299  1  0.24707095  0.25749539  0.11467172  1
  O  O300  1  0.25628804  0.25816813  0.62452502  1
  O  O301  1  0.26037014  0.74689777  0.11697313  1
  O  O302  1  0.25809305  0.74876206  0.61109424  1
  O  O303  1  0.75513184  0.26267263  0.11879854  1
  O  O304  1  0.75676633  0.24659354  0.61525291  1
  O  O305  1  0.74420328  0.75501350  0.11123360  1
  O  O306  1  0.75550848  0.75407005  0.61708920  1
  O  O307  1  0.24287352  0.29360106  0.38769560  1
  O  O308  1  0.24270122  0.26010777  0.88599136  1
  O  O309  1  0.24234646  0.74792102  0.38065081  1
  O  O310  1  0.24643153  0.74519005  0.88518193  1
  O  O311  1  0.74393206  0.25270808  0.38836826  1
  O  O312  1  0.74519327  0.24451240  0.88074811  1
  O  O313  1  0.74268851  0.74940957  0.38547200  1
  O  O314  1  0.74152552  0.74363112  0.88380122  1
  O  O315  1  0.00221976  0.11994828  0.00795803  1
  O  O316  1  0.00397545  0.11954902  0.50326087  1
  O  O317  1  0.01209747  0.62492583  0.00171186  1
  O  O318  1  -0.00018465  0.61668822  0.50730533  1
  O  O319  1  0.51525511  0.11429073  -0.00690201  1
  O  O320  1  0.50426526  0.11199754  0.50532130  1
  O  O321  1  0.51365842  0.62314830  -0.00433599  1
  O  O322  1  0.50952128  0.60991124  0.49695330  1
  O  O323  1  0.49760082  0.38938621  0.49075408  1
  O  O324  1  0.50175819  0.35708964  0.97948224  1
  O  O325  1  0.49215488  0.88823088  0.50342334  1
  O  O326  1  0.50194900  0.88201223  0.99113747  1
  O  O327  1  0.99386587  0.38055780  0.49468733  1
  O  O328  1  0.99230048  0.37553140  0.99417137  1
  O  O329  1  0.99897806  0.88524369  0.48965188  1
  O  O330  1  1.00111855  0.88680344  1.00150755  1
  O  O331  1  0.50320536  0.49060017  0.38929984  1
  O  O332  1  0.48979349  0.48815340  0.86961226  1
  O  O333  1  0.48833116  1.00655946  0.38293988  1
  O  O334  1  0.49541211  0.99156438  0.88589887  1
  O  O335  1  0.99759200  0.49387923  0.38536128  1
  O  O336  1  0.99019994  0.49582591  0.87609406  1
  O  O337  1  0.99560855  0.99379087  0.37857069  1
  O  O338  1  0.99232984  0.99497578  0.88360022  1
  O  O339  1  -0.00851040  0.00828146  0.10974991  1
  O  O340  1  0.00522557  0.00559614  0.61234469  1
  O  O341  1  0.00498115  0.50504827  0.11948395  1
  O  O342  1  0.00330669  0.50816321  0.61997545  1
  O  O343  1  0.50916074  -0.01148169  0.11375496  1
  O  O344  1  0.50662670  -0.00135285  0.61883931  1
  O  O345  1  0.44730136  0.44367335  0.07948658  1
  O  O346  1  0.49276804  0.49974818  0.60807375  1
  O  O347  1  0.23509784  0.36405490  0.23811967  1
  O  O348  1  0.24508309  0.38109093  0.74414297  1
  O  O349  1  0.24765936  0.88951618  0.25169754  1
  O  O350  1  0.25970330  0.89153413  0.74428000  1
  O  O351  1  0.74825414  0.38465818  0.24445327  1
  O  O352  1  0.74003653  0.38383691  0.75579372  1
  O  O353  1  0.74757603  0.87721629  0.23936618  1
  O  O354  1  0.73719434  0.88116444  0.74566719  1
  O  O355  1  0.24533452  0.11679647  0.25217734  1
  O  O356  1  0.24556706  0.11360502  0.75339050  1
  O  O357  1  0.25795212  0.62628255  0.26331979  1
  O  O358  1  0.26185315  0.61865718  0.75460543  1
  O  O359  1  0.75263103  0.11595565  0.25066156  1
  O  O360  1  0.75370857  0.12038800  0.75574783  1
  O  O361  1  0.75496912  0.61939617  0.24834462  1
  O  O362  1  0.74830777  0.61814341  0.76233140  1
  O  O363  1  0.37462750  0.12125753  0.37907592  1
  O  O364  1  0.38262639  0.11430850  0.88043069  1
  O  O365  1  0.36095574  0.62663163  0.36540008  1
  O  O366  1  0.37185572  0.62012464  0.86787373  1
  O  O367  1  0.87306978  0.11867916  0.36646809  1
  O  O368  1  0.87052194  0.11702329  0.86864075  1
  O  O369  1  0.87086977  0.62399917  0.36316508  1
  O  O370  1  0.86674098  0.61865415  0.87401598  1
  O  O371  1  0.13226275  0.37496808  0.12865572  1
  O  O372  1  0.12997362  0.38079961  0.63477625  1
  O  O373  1  0.13373166  0.87445934  0.12696808  1
  O  O374  1  0.12647629  0.89161551  0.61229778  1
  O  O375  1  0.63622856  0.37130819  0.13670013  1
  O  O376  1  0.61853261  0.37211133  0.63908245  1
  O  O377  1  0.63389729  0.88259479  0.12237138  1
  O  O378  1  0.62659681  0.88070891  0.63255995  1
  O  O379  1  0.10744747  0.26056107  0.24341143  1
  O  O380  1  0.12046971  0.25503945  0.75657485  1
  O  O381  1  0.11693951  0.74858930  0.26205795  1
  O  O382  1  0.13732874  0.74309036  0.76656863  1
  O  O383  1  0.64081192  0.27045822  0.26658196  1
  O  O384  1  0.61899680  0.25649799  0.75405542  1
  O  O385  1  0.61517296  0.74554537  0.25893115  1
  O  O386  1  0.63220074  0.75950636  0.76133015  1
  O  O387  1  0.37514819  0.23737701  0.23483124  1
  O  O388  1  0.38385766  0.24915352  0.74637959  1
  O  O389  1  0.38112468  0.74458200  0.24546299  1
  O  O390  1  0.36778312  0.74133276  0.73962478  1
  O  O391  1  0.88045767  0.24656260  0.24485468  1
  O  O392  1  0.87954949  0.24609631  0.74755774  1
  O  O393  1  0.88551770  0.74288265  0.25712901  1
  O  O394  1  0.86393322  0.74776489  0.73602096  1
  O  O395  1  0.37892887  0.50574828  0.49618759  1
  O  O396  1  0.35909090  0.50063648  0.98111706  1
  O  O397  1  0.37949228  0.99616165  0.49013500  1
  O  O398  1  0.38608544  0.99848444  0.99359480  1
  O  O399  1  0.88465915  0.49316700  0.50237272  1
  O  O400  1  0.87122725  0.49567310  0.98813306  1
  O  O401  1  0.88528293  1.00188574  0.49433594  1
  O  O402  1  0.88632017  1.00548291  0.98791537  1
  O  O403  1  0.10829771  0.00362376  -0.01069419  1
  O  O404  1  0.11486094  0.01015648  0.50097097  1
  O  O405  1  0.12849835  0.51213638  -0.00321980  1
  O  O406  1  0.11011922  0.50026765  0.50900118  1
  O  O407  1  0.62028110  0.00202453  0.00325066  1
  O  O408  1  0.61757113  -0.00303693  0.50821832  1
  O  O409  1  0.63087890  0.51340198  -0.00692880  1
  O  O410  1  0.63316634  0.51390442  0.50006457  1
  O  O411  1  0.35372209  0.35476832  0.13446919  1
  O  O412  1  0.36449933  0.36477709  0.63481808  1
  O  O413  1  0.37083658  0.86169088  0.12404707  1
  O  O414  1  0.37308029  0.86683938  0.61284994  1
  O  O415  1  0.86698155  0.37061667  0.11908456  1
  O  O416  1  0.88423312  0.36900394  0.61443980  1
  O  O417  1  0.86474602  0.87616077  0.12582554  1
  O  O418  1  0.86651047  0.86855918  0.62085134  1
  O  O419  1  0.11547875  0.12851468  0.38978984  1
  O  O420  1  0.11834143  0.13893451  0.87559135  1
  O  O421  1  0.13626770  0.63291880  0.37512408  1
  O  O422  1  0.13207118  0.63305462  0.88271970  1
  O  O423  1  0.62597187  0.14151716  0.38081543  1
  O  O424  1  0.63232975  0.12697340  0.88194670  1
  O  O425  1  0.62795642  0.63467279  0.38915864  1
  O  O426  1  0.63174488  0.63161252  0.87840546  1
