# generated using pymatgen
data_V85Zn86O256
_symmetry_space_group_name_H-M   'P 1'
_cell_length_a   16.95901979
_cell_length_b   16.94446642
_cell_length_c   16.94251335
_cell_angle_alpha   90.06473284
_cell_angle_beta   89.99224987
_cell_angle_gamma   90.02034391
_symmetry_Int_Tables_number   1
_chemical_formula_structural   V85Zn86O256
_chemical_formula_sum   'V85 Zn86 O256'
_cell_volume   4868.62329204
_cell_formula_units_Z   1
loop_
 _symmetry_equiv_pos_site_id
 _symmetry_equiv_pos_as_xyz
  1  'x, y, z'
loop_
 _atom_site_type_symbol
 _atom_site_label
 _atom_site_symmetry_multiplicity
 _atom_site_fract_x
 _atom_site_fract_y
 _atom_site_fract_z
 _atom_site_occupancy
  V  V0  1  0.50456422  0.00976543  0.50132150  1
  V  V1  1  0.87300782  0.37275167  0.50565297  1
  V  V2  1  0.24402127  0.12860624  0.87420146  1
  V  V3  1  0.62378395  0.87312910  0.25115328  1
  V  V4  1  0.88395529  0.74226400  0.12799455  1
  V  V5  1  0.12999265  0.50117036  0.63018450  1
  V  V6  1  0.36721170  0.25548634  0.12278342  1
  V  V7  1  0.23732370  0.25091849  -0.00056515  1
  V  V8  1  0.49532691  0.62289370  0.62178254  1
  V  V9  1  0.74970129  0.87464604  0.62720050  1
  V  V10  1  0.62492105  0.87166397  0.75251708  1
  V  V11  1  0.12469631  0.74607403  0.37121077  1
  V  V12  1  0.36517237  0.49684419  0.86804687  1
  V  V13  1  0.25321471  0.38015284  0.62811971  1
  V  V14  1  0.62437053  0.25306813  0.37376795  1
  V  V15  1  0.50314173  0.25915172  0.24891788  1
  V  V16  1  0.37795823  0.24842686  0.62584952  1
  V  V17  1  0.12649731  0.75411827  0.86918231  1
  V  V18  1  0.25114781  0.74733246  -0.00273643  1
  V  V19  1  0.61945622  0.24474337  0.87725632  1
  V  V20  1  0.00241610  0.49863855  0.50029548  1
  V  V21  1  0.62842357  0.49693892  0.62746247  1
  V  V22  1  0.37477435  0.12511821  0.24993387  1
  V  V23  1  0.25070614  0.24964529  0.49903963  1
  V  V24  1  0.00406379  0.25019018  0.75676204  1
  V  V25  1  0.00430534  0.38758850  0.87797831  1
  V  V26  1  0.00183110  0.87833899  0.88137504  1
  V  V27  1  0.74819790  0.87100509  0.12191998  1
  V  V28  1  0.37935823  0.87130016  0.50357489  1
  V  V29  1  0.24730677  0.49380159  0.23573210  1
  V  V30  1  0.25200179  0.12365025  0.37500915  1
  V  V31  1  0.37510559  0.12296405  0.75408492  1
  V  V32  1  0.00121843  0.12527054  0.62617165  1
  V  V33  1  0.00811508  0.37110092  0.37769983  1
  V  V34  1  0.87605304  0.87729997  0.49850141  1
  V  V35  1  0.74882623  0.62410764  0.37573231  1
  V  V36  1  0.12662660  -0.00534115  0.62853283  1
  V  V37  1  0.62440354  0.74881382  0.37499732  1
  V  V38  1  0.12661778  0.87169478  0.24939399  1
  V  V39  1  0.49084731  0.75033600  0.74429898  1
  V  V40  1  0.12836421  0.37298348  0.75143867  1
  V  V41  1  0.00480928  0.75780533  0.74872340  1
  V  V42  1  0.62827166  0.12668556  -0.00208821  1
  V  V43  1  0.36752228  0.62050129  0.74488961  1
  V  V44  1  0.74982581  0.74942551  0.50177742  1
  V  V45  1  0.36922034  0.37461168  -0.00589503  1
  V  V46  1  -0.00072772  0.86951788  0.37079741  1
  V  V47  1  0.62621540  0.00798250  0.62385190  1
  V  V48  1  0.62028578  0.61956646  0.50317572  1
  V  V49  1  0.87543409  0.50087149  0.37753691  1
  V  V50  1  0.86635451  0.50499227  0.87709429  1
  V  V51  1  0.74190978  0.49296828  0.24635151  1
  V  V52  1  0.37376742  0.49913206  0.37346321  1
  V  V53  1  0.12581460  0.37336471  0.23024982  1
  V  V54  1  0.37432300  0.75087376  0.12233664  1
  V  V55  1  0.13177039  0.62276200  0.49181515  1
  V  V56  1  0.12397606  0.11568183  0.00190669  1
  V  V57  1  0.87469868  -0.00286901  0.88145272  1
  V  V58  1  0.88506469  0.62658886  0.24990975  1
  V  V59  1  0.87279998  0.12405549  0.75434667  1
  V  V60  1  0.11644075  0.62177593  0.00945028  1
  V  V61  1  0.38323564  0.37943130  0.49744066  1
  V  V62  1  0.36597388  0.62365987  0.25390204  1
  V  V63  1  0.49997257  0.50043676  -0.00622779  1
  V  V64  1  0.25209287  -0.00285387  0.75444140  1
  V  V65  1  0.75561046  0.00262817  0.25350909  1
  V  V66  1  0.86994366  0.62175439  0.75223623  1
  V  V67  1  0.62373884  0.00085362  0.12609205  1
  V  V68  1  0.49206645  -0.00074655  -0.00509634  1
  V  V69  1  0.50538543  0.62234282  0.11884948  1
  V  V70  1  0.87529092  0.75074859  0.62563049  1
  V  V71  1  -0.00787201  0.23998848  0.25033792  1
  V  V72  1  0.49391363  0.87647849  0.87447705  1
  V  V73  1  0.74275303  0.24546249  0.50599656  1
  V  V74  1  0.75248429  0.12487103  0.37794455  1
  V  V75  1  0.49998031  0.74862427  0.24920852  1
  V  V76  1  0.37800022  0.00077336  0.37515176  1
  V  V77  1  0.00289255  0.62654986  0.62344239  1
  V  V78  1  0.12752207  0.12423565  0.50026043  1
  V  V79  1  0.25448641  0.74836485  0.49781812  1
  V  V80  1  -0.00679758  0.11685325  0.12412008  1
  V  V81  1  0.74368661  0.73047379  -0.00314112  1
  V  V82  1  0.25104286  0.87237897  0.62651520  1
  V  V83  1  0.62297526  0.38074576  0.76321146  1
  V  V84  1  0.50080613  0.12726711  0.12384956  1
  Zn  Zn85  1  0.25158553  -0.00113836  0.24713699  1
  Zn  Zn86  1  0.87843443  0.87348894  0.00314531  1
  Zn  Zn87  1  0.50698576  0.38283869  0.37319894  1
  Zn  Zn88  1  0.48994446  0.25946752  0.76216116  1
  Zn  Zn89  1  0.37061828  0.87868436  -0.00495387  1
  Zn  Zn90  1  0.79071755  0.16641636  0.92312818  1
  Zn  Zn91  1  0.74771984  0.00400388  0.75538726  1
  Zn  Zn92  1  0.50203159  0.87628074  0.37660583  1
  Zn  Zn93  1  0.12432160  -0.00544949  0.12516791  1
  Zn  Zn94  1  0.88114637  0.00762281  0.37152937  1
  Zn  Zn95  1  0.75442187  0.38059281  0.63921031  1
  Zn  Zn96  1  0.87237153  0.25070316  0.63087528  1
  Zn  Zn97  1  0.12835106  0.24651105  0.37267835  1
  Zn  Zn98  1  0.81568562  0.31454610  0.06277779  1
  Zn  Zn99  1  0.24969004  0.87649024  0.12412950  1
  Zn  Zn100  1  0.63094264  0.49427408  0.11628210  1
  Zn  Zn101  1  0.50884713  0.12980180  0.62873866  1
  Zn  Zn102  1  0.00258792  -0.00035080  0.49877161  1
  Zn  Zn103  1  0.81430272  0.18269983  0.19160565  1
  Zn  Zn104  1  0.61990519  0.72990373  0.88615124  1
  Zn  Zn105  1  -0.00161705  0.50616601  0.02446423  1
  Zn  Zn106  1  0.24421184  0.62026887  0.86595314  1
  Zn  Zn107  1  0.18251801  0.18645095  0.18669239  1
  Zn  Zn108  1  0.18912691  0.18829800  0.68606601  1
  Zn  Zn109  1  0.18865077  0.68683645  0.18715840  1
  Zn  Zn110  1  0.18727597  0.69040530  0.68190975  1
  Zn  Zn111  1  0.68065415  0.31923164  0.18677090  1
  Zn  Zn112  1  0.69075388  0.19792244  0.69784336  1
  Zn  Zn113  1  0.68981311  0.68178506  0.18642024  1
  Zn  Zn114  1  0.66461924  0.66046969  0.72425812  1
  Zn  Zn115  1  0.31125206  0.31389688  0.31045693  1
  Zn  Zn116  1  0.30822265  0.31052553  0.81540916  1
  Zn  Zn117  1  0.31248312  0.81248511  0.31552717  1
  Zn  Zn118  1  0.31239230  0.81068642  0.80979179  1
  Zn  Zn119  1  0.81485968  0.31473416  0.32204585  1
  Zn  Zn120  1  0.80832199  0.32680799  0.89831117  1
  Zn  Zn121  1  0.81119259  0.81100593  0.31068807  1
  Zn  Zn122  1  0.81306595  0.81061246  0.81488564  1
  Zn  Zn123  1  0.19618213  0.43970303  0.43467786  1
  Zn  Zn124  1  0.18674785  0.43901738  0.94314980  1
  Zn  Zn125  1  0.18945136  0.93707260  0.43733076  1
  Zn  Zn126  1  0.18831754  0.93613784  0.93595056  1
  Zn  Zn127  1  0.68802486  0.43667541  0.43889492  1
  Zn  Zn128  1  0.68393305  0.43953470  0.93906135  1
  Zn  Zn129  1  0.68630864  0.93787276  0.43902491  1
  Zn  Zn130  1  0.68489125  0.93792958  0.93535547  1
  Zn  Zn131  1  0.30942699  0.06262684  0.06434767  1
  Zn  Zn132  1  0.31523813  0.06018455  0.56305121  1
  Zn  Zn133  1  0.31165570  0.56485758  0.05910827  1
  Zn  Zn134  1  0.31431858  0.56159962  0.55931901  1
  Zn  Zn135  1  0.81441818  0.05273536  0.06369664  1
  Zn  Zn136  1  0.81174568  0.06235565  0.56427450  1
  Zn  Zn137  1  0.81776309  0.55498764  0.06228737  1
  Zn  Zn138  1  0.81083367  0.56287707  0.56577180  1
  Zn  Zn139  1  0.43475245  0.43842723  0.18161952  1
  Zn  Zn140  1  0.44423454  0.43972690  0.68627587  1
  Zn  Zn141  1  0.43848690  0.93736329  0.18675329  1
  Zn  Zn142  1  0.43734809  0.94001662  0.68567857  1
  Zn  Zn143  1  0.92577870  0.44115860  0.18784703  1
  Zn  Zn144  1  0.94099349  0.43973698  0.69033550  1
  Zn  Zn145  1  0.93784822  0.93020406  0.18869941  1
  Zn  Zn146  1  0.93729078  0.93971349  0.69013092  1
  Zn  Zn147  1  0.06502542  0.05625218  0.31392541  1
  Zn  Zn148  1  0.06506135  0.05868261  0.81287890  1
  Zn  Zn149  1  0.06475072  0.55520650  0.30640672  1
  Zn  Zn150  1  0.06294779  0.57011520  0.81179454  1
  Zn  Zn151  1  0.56733396  0.06815583  0.31337022  1
  Zn  Zn152  1  0.55993559  0.06170633  0.81145419  1
  Zn  Zn153  1  0.55767166  0.56435531  0.31097197  1
  Zn  Zn154  1  0.55375491  0.55904711  0.81498113  1
  Zn  Zn155  1  0.43884232  0.19002065  0.43762610  1
  Zn  Zn156  1  0.43359982  0.18658505  0.93656883  1
  Zn  Zn157  1  0.43769543  0.68585035  0.43460460  1
  Zn  Zn158  1  0.43522736  0.68537059  0.92985213  1
  Zn  Zn159  1  0.93621444  0.18847145  0.44029058  1
  Zn  Zn160  1  0.95400662  0.19512506  0.93951815  1
  Zn  Zn161  1  0.93948415  0.68695774  0.43646397  1
  Zn  Zn162  1  0.93479842  0.69072461  0.93842906  1
  Zn  Zn163  1  0.00867519  0.33349902  0.08274657  1
  Zn  Zn164  1  0.06448727  0.30999457  0.56542172  1
  Zn  Zn165  1  0.06493532  0.80729607  0.06069599  1
  Zn  Zn166  1  0.06460950  0.81178879  0.55903259  1
  Zn  Zn167  1  0.55831309  0.31740419  0.05472123  1
  Zn  Zn168  1  0.56374192  0.31395090  0.56453046  1
  Zn  Zn169  1  0.56287862  0.81163748  0.06040165  1
  Zn  Zn170  1  0.56372971  0.81177719  0.56582446  1
  O  O171  1  0.11513223  0.11911362  0.12001296  1
  O  O172  1  0.12000238  0.11694690  0.62096001  1
  O  O173  1  0.12534021  0.63627993  0.10858159  1
  O  O174  1  0.12259875  0.61827026  0.61477571  1
  O  O175  1  0.60898426  0.12016597  0.11502899  1
  O  O176  1  0.62871341  0.11141417  0.63946750  1
  O  O177  1  0.60937749  0.61572933  0.13069797  1
  O  O178  1  0.61829610  0.61870722  0.62224723  1
  O  O179  1  0.37620150  0.37890496  0.38253504  1
  O  O180  1  0.36976724  0.38160898  0.88187156  1
  O  O181  1  0.37845902  0.88130464  0.38560254  1
  O  O182  1  0.38913922  0.86993913  0.87486974  1
  O  O183  1  0.88829357  0.37904859  0.38679973  1
  O  O184  1  0.89342474  0.39557849  0.86206073  1
  O  O185  1  0.88276549  0.86901148  0.38312137  1
  O  O186  1  0.88469755  0.87958959  0.87637496  1
  O  O187  1  0.26031138  0.00610462  0.37483391  1
  O  O188  1  0.24571892  0.00639968  0.86214526  1
  O  O189  1  0.26373693  0.49284086  0.35817460  1
  O  O190  1  0.26040434  0.50231210  0.87645438  1
  O  O191  1  0.74738645  0.00758544  0.37055820  1
  O  O192  1  0.76514945  -0.00743319  0.87171486  1
  O  O193  1  0.75589083  0.50539393  0.37129562  1
  O  O194  1  0.76835325  0.49964325  0.87476308  1
  O  O195  1  0.25538658  0.49897957  0.13553977  1
  O  O196  1  0.24217489  0.48981214  0.61807940  1
  O  O197  1  0.24664651  0.99369060  0.12876050  1
  O  O198  1  0.24430592  0.99282227  0.63008653  1
  O  O199  1  0.75076748  0.50436422  0.14184668  1
  O  O200  1  0.73579324  0.50025049  0.62491625  1
  O  O201  1  0.74528513  0.99110484  0.13482573  1
  O  O202  1  0.74331434  0.99225639  0.62777912  1
  O  O203  1  0.01064428  0.36233921  0.26074983  1
  O  O204  1  0.01064020  0.36932875  0.75153107  1
  O  O205  1  0.00906145  0.87365849  0.26231130  1
  O  O206  1  -0.00378469  0.86275486  0.75604233  1
  O  O207  1  0.48779994  0.36144373  0.25043934  1
  O  O208  1  0.51438408  0.37036711  0.74107336  1
  O  O209  1  0.50671763  0.86741066  0.25070732  1
  O  O210  1  0.50186698  0.87033674  0.75394097  1
  O  O211  1  0.49584259  0.13389120  0.24080896  1
  O  O212  1  0.48528672  0.12563387  0.74845351  1
  O  O213  1  0.48835214  0.62911019  0.23921998  1
  O  O214  1  0.48848036  0.63235264  0.74039035  1
  O  O215  1  1.00653878  0.13356589  0.24668938  1
  O  O216  1  1.00070597  0.13062733  0.74500319  1
  O  O217  1  0.98420240  0.62140319  0.26065028  1
  O  O218  1  0.99550079  0.63699482  0.74154313  1
  O  O219  1  0.36695166  0.25598009  0.00408798  1
  O  O220  1  0.36967324  0.25743782  0.50731902  1
  O  O221  1  0.36772174  0.74760995  0.00545172  1
  O  O222  1  0.36669329  0.75844096  0.49203399  1
  O  O223  1  0.85999785  0.24647861  -0.02685300  1
  O  O224  1  0.86812710  0.25909985  0.50478518  1
  O  O225  1  0.86228456  0.74811843  0.01280587  1
  O  O226  1  0.87156504  0.75741288  0.50500746  1
  O  O227  1  0.13385687  0.24202122  0.50179972  1
  O  O228  1  0.13694105  0.23597979  1.00766905  1
  O  O229  1  0.13214336  0.74107722  0.49269119  1
  O  O230  1  0.13279328  0.74289619  0.98992374  1
  O  O231  1  0.63581527  0.25306755  0.49563666  1
  O  O232  1  0.61597856  0.23957531  0.98969301  1
  O  O233  1  0.63073377  0.74220126  0.49665306  1
  O  O234  1  0.63737235  0.74816009  1.00099627  1
  O  O235  1  0.49085594  0.24331753  0.12827519  1
  O  O236  1  0.48610909  0.24743795  0.62322613  1
  O  O237  1  0.49365850  0.74210526  0.12747795  1
  O  O238  1  0.50312558  0.73895175  0.63402517  1
  O  O239  1  1.00169640  0.23295508  0.14357120  1
  O  O240  1  1.00053950  0.23845321  0.63247573  1
  O  O241  1  0.98171305  0.75316121  0.12117326  1
  O  O242  1  0.99725664  0.74791388  0.62970905  1
  O  O243  1  0.00406247  0.25333893  0.36898512  1
  O  O244  1  0.00243570  0.26868700  0.86382954  1
  O  O245  1  0.01298496  0.75835354  0.38304782  1
  O  O246  1  0.00630226  0.75697205  0.86685055  1
  O  O247  1  0.50747000  0.24790517  0.36603935  1
  O  O248  1  0.50990817  0.24727214  0.87729418  1
  O  O249  1  0.50690658  0.75054278  0.36685838  1
  O  O250  1  0.50320282  0.75636519  0.86484122  1
  O  O251  1  0.24834626  0.12982503  0.49595913  1
  O  O252  1  0.24520456  0.12953399  0.99198136  1
  O  O253  1  0.24117366  0.63392256  0.50582057  1
  O  O254  1  0.24226687  0.63592078  0.99559556  1
  O  O255  1  0.75449274  0.13683963  0.49637580  1
  O  O256  1  0.73239768  0.11186813  1.00572481  1
  O  O257  1  0.74196399  0.63034084  0.49662226  1
  O  O258  1  0.74933358  0.63175871  1.00421876  1
  O  O259  1  0.25633403  0.36320679  -0.00514705  1
  O  O260  1  0.25825930  0.36946337  0.50926072  1
  O  O261  1  0.25163568  0.86189244  0.00002731  1
  O  O262  1  0.25928779  0.86956975  0.50594222  1
  O  O263  1  0.76347471  0.38301029  -0.01142700  1
  O  O264  1  0.76222459  0.36685828  0.49889520  1
  O  O265  1  0.74888717  0.87572645  0.01546093  1
  O  O266  1  0.75784768  0.86987847  0.50466369  1
  O  O267  1  0.13203994  0.48163855  0.25326126  1
  O  O268  1  0.12122173  0.49548672  0.73518222  1
  O  O269  1  0.12898626  0.98386432  0.25127935  1
  O  O270  1  0.13751467  1.00368148  0.73754973  1
  O  O271  1  0.64049252  0.50457965  0.25531207  1
  O  O272  1  0.61726402  0.48714340  0.74499357  1
  O  O273  1  0.63277242  0.99489040  0.24581535  1
  O  O274  1  0.62500767  0.98888461  0.74424378  1
  O  O275  1  0.37817332  0.00707966  0.25673344  1
  O  O276  1  0.36288050  0.01170861  0.74018172  1
  O  O277  1  0.36717630  0.50505803  0.25095322  1
  O  O278  1  0.38177882  0.50767881  0.75709236  1
  O  O279  1  0.85944580  -0.01492978  0.25543891  1
  O  O280  1  0.87531499  0.00839251  0.75860718  1
  O  O281  1  0.86393665  0.50722384  0.25957145  1
  O  O282  1  0.88272150  0.51564810  0.75468824  1
  O  O283  1  0.11456866  0.37251055  0.38066507  1
  O  O284  1  0.11928581  0.38746605  0.85858050  1
  O  O285  1  0.11889660  0.86654456  0.37163651  1
  O  O286  1  0.11811907  0.86296154  0.87769674  1
  O  O287  1  0.62219727  0.36121023  0.38300650  1
  O  O288  1  0.61988833  0.36683381  0.86902501  1
  O  O289  1  0.62497707  0.86667338  0.36946009  1
  O  O290  1  0.61454236  0.87275783  0.86553835  1
  O  O291  1  0.38523889  0.13236505  0.12689315  1
  O  O292  1  0.36884741  0.13621714  0.63445791  1
  O  O293  1  0.38015361  0.63497446  0.13157444  1
  O  O294  1  0.38499911  0.61567924  0.62981183  1
  O  O295  1  0.88778867  0.12043136  0.12386350  1
  O  O296  1  0.88831252  0.12069273  0.63368958  1
  O  O297  1  0.86992470  0.63548990  0.13335572  1
  O  O298  1  0.88440047  0.62916833  0.63030319  1
  O  O299  1  0.26100813  0.23836161  0.11510359  1
  O  O300  1  0.25924459  0.25925634  0.61958201  1
  O  O301  1  0.25922066  0.75045819  0.11543141  1
  O  O302  1  0.24295495  0.76200785  0.61084367  1
  O  O303  1  0.75316475  0.25304727  0.13342845  1
  O  O304  1  0.75237850  0.25562899  0.61808543  1
  O  O305  1  0.75150309  0.75442629  0.11574307  1
  O  O306  1  0.75861938  0.75933176  0.61809845  1
  O  O307  1  0.25044212  0.24301209  0.38213070  1
  O  O308  1  0.24757989  0.23888385  0.88381929  1
  O  O309  1  0.23898157  0.75515770  0.38853668  1
  O  O310  1  0.24293114  0.75022002  0.87945048  1
  O  O311  1  0.74466877  0.24483495  0.38309994  1
  O  O312  1  0.72636748  0.24705916  0.87052262  1
  O  O313  1  0.74413223  0.74393360  0.38085425  1
  O  O314  1  0.75242855  0.75485274  0.89563392  1
  O  O315  1  0.00974734  0.13101368  0.01601903  1
  O  O316  1  0.00538227  0.12339387  0.51071709  1
  O  O317  1  0.01379901  0.62943065  -0.00553340  1
  O  O318  1  0.01026821  0.61934759  0.50393504  1
  O  O319  1  0.50303221  0.11771549  0.00501672  1
  O  O320  1  0.49417566  0.11367810  0.50659446  1
  O  O321  1  0.48716059  0.61346075  0.00697846  1
  O  O322  1  0.51043487  0.63415280  0.50862279  1
  O  O323  1  0.48583248  0.37141616  0.49918810  1
  O  O324  1  0.48238371  0.39083653  1.00181848  1
  O  O325  1  0.49285990  0.88140638  0.50144500  1
  O  O326  1  0.49993377  0.88155390  0.99208448  1
  O  O327  1  0.99405110  0.37667474  0.49752680  1
  O  O328  1  1.01481595  0.38127378  0.97851372  1
  O  O329  1  0.99177955  0.87533853  0.49308513  1
  O  O330  1  0.99823161  0.86651506  0.98639944  1
  O  O331  1  0.48217798  0.49660103  0.36392602  1
  O  O332  1  0.48296998  0.50674855  0.88780967  1
  O  O333  1  0.49857464  1.00112293  0.38422750  1
  O  O334  1  0.50384277  0.99034517  0.88410682  1
  O  O335  1  0.99644211  0.48965512  0.38094650  1
  O  O336  1  0.99986352  0.49308334  0.86861984  1
  O  O337  1  0.99795071  0.98692369  0.37896965  1
  O  O338  1  0.99365700  0.98614072  0.86581491  1
  O  O339  1  0.00120495  0.01292946  0.13645603  1
  O  O340  1  0.01015647  0.00738741  0.62695881  1
  O  O341  1  0.00206230  0.50043749  0.13458440  1
  O  O342  1  0.01131152  0.50455719  0.61841911  1
  O  O343  1  0.50347229  0.00771784  0.11853074  1
  O  O344  1  0.50885255  0.00266481  0.61874084  1
  O  O345  1  0.49107466  0.50861007  0.11027535  1
  O  O346  1  0.51220592  0.51404050  0.62635808  1
  O  O347  1  0.23332309  0.37421414  0.24657617  1
  O  O348  1  0.24288495  0.36883538  0.73709396  1
  O  O349  1  0.23993508  0.87379491  0.24960068  1
  O  O350  1  0.25952967  0.88296195  0.73740189  1
  O  O351  1  0.75406453  0.38910596  0.25782012  1
  O  O352  1  0.72329499  0.36680572  0.74947486  1
  O  O353  1  0.74204845  0.87757882  0.24140360  1
  O  O354  1  0.74115601  0.87203477  0.74466820  1
  O  O355  1  0.25676720  0.12518899  0.25674514  1
  O  O356  1  0.25300746  0.11972165  0.75611281  1
  O  O357  1  0.25979349  0.61531260  0.24454853  1
  O  O358  1  0.26312839  0.63169448  0.74360160  1
  O  O359  1  0.75489043  0.11154097  0.26075126  1
  O  O360  1  0.76861074  0.12663744  0.74775013  1
  O  O361  1  0.75764535  0.61585273  0.25821226  1
  O  O362  1  0.77346126  0.63367711  0.73922718  1
  O  O363  1  0.37195009  0.12077683  0.37015511  1
  O  O364  1  0.36082047  0.12940513  0.86372290  1
  O  O365  1  0.37872700  0.61719465  0.36206849  1
  O  O366  1  0.36960789  0.61709826  0.86217462  1
  O  O367  1  0.86065361  0.12343137  0.38213854  1
  O  O368  1  0.88420225  0.11490262  0.86963465  1
  O  O369  1  0.86885213  0.62162996  0.37206295  1
  O  O370  1  0.88309040  0.61965421  0.86011804  1
  O  O371  1  0.11261613  0.36705279  0.13332353  1
  O  O372  1  0.13301630  0.38263852  0.62928197  1
  O  O373  1  0.12296535  0.87023044  0.13717312  1
  O  O374  1  0.13633235  0.88436728  0.61623291  1
  O  O375  1  0.61517152  0.38359126  0.12347727  1
  O  O376  1  0.62594062  0.38603330  0.62660440  1
  O  O377  1  0.63011208  0.88002156  0.13057387  1
  O  O378  1  0.63018755  0.88433029  0.63227059  1
  O  O379  1  0.11764255  0.26005519  0.25344305  1
  O  O380  1  0.11765183  0.26162596  0.74103899  1
  O  O381  1  0.13259004  0.75418641  0.26319897  1
  O  O382  1  0.11671056  0.74424387  0.75670733  1
  O  O383  1  0.61330576  0.25492441  0.25975480  1
  O  O384  1  0.61395391  0.25396143  0.76199165  1
  O  O385  1  0.62064335  0.75189913  0.25400823  1
  O  O386  1  0.61162659  0.76589140  0.74293639  1
  O  O387  1  0.37918819  0.24442500  0.24114400  1
  O  O388  1  0.37195529  0.24361338  0.74220397  1
  O  O389  1  0.37714293  0.74259425  0.24428948  1
  O  O390  1  0.38452336  0.74045450  0.75146530  1
  O  O391  1  0.88908501  0.24792091  0.26048491  1
  O  O392  1  0.89291592  0.23709573  0.74809479  1
  O  O393  1  0.86619270  0.74123183  0.23715022  1
  O  O394  1  0.88568594  0.74222893  0.74612450  1
  O  O395  1  0.36679025  0.49047897  0.48724358  1
  O  O396  1  0.37332389  0.49235554  0.99101326  1
  O  O397  1  0.38462440  0.99223069  0.49614851  1
  O  O398  1  0.38772141  0.99831917  1.00565129  1
  O  O399  1  0.88075877  0.49297867  0.49779658  1
  O  O400  1  0.88768369  0.51592577  0.98037003  1
  O  O401  1  0.87529949  0.98602851  0.49834563  1
  O  O402  1  0.87649793  0.99489517  0.98770846  1
  O  O403  1  0.12941650  0.01081048  0.00273556  1
  O  O404  1  0.12645814  0.00587226  0.51080152  1
  O  O405  1  0.12427593  0.51860049  -0.00469735  1
  O  O406  1  0.12445290  0.50598510  0.50541829  1
  O  O407  1  0.61325607  0.00594029  0.00512327  1
  O  O408  1  0.61606203  -0.00566059  0.51128637  1
  O  O409  1  0.60296971  0.49967247  -0.00670967  1
  O  O410  1  0.62808816  0.51327664  0.50645103  1
  O  O411  1  0.37517574  0.36221058  0.11361419  1
  O  O412  1  0.36982858  0.37139936  0.61967849  1
  O  O413  1  0.37749259  0.85965316  0.12321277  1
  O  O414  1  0.36589552  0.88023179  0.61274460  1
  O  O415  1  0.90400720  0.36132503  0.11511869  1
  O  O416  1  0.87519784  0.37682337  0.61747539  1
  O  O417  1  0.86546495  0.86165021  0.12675878  1
  O  O418  1  0.87175368  0.87169009  0.61800347  1
  O  O419  1  0.13275739  0.12319069  0.38300830  1
  O  O420  1  0.13371862  0.12017420  0.88416872  1
  O  O421  1  0.11912985  0.62926923  0.38433604  1
  O  O422  1  0.12748000  0.63833769  0.87964568  1
  O  O423  1  0.63882527  0.13899729  0.37252704  1
  O  O424  1  0.62010421  0.13234741  0.88259274  1
  O  O425  1  0.62677378  0.62874496  0.38429858  1
  O  O426  1  0.63374021  0.63332632  0.83199445  1
