# generated using pymatgen
data_V85Zn86O256
_symmetry_space_group_name_H-M   'P 1'
_cell_length_a   17.02520567
_cell_length_b   17.00219280
_cell_length_c   16.98648404
_cell_angle_alpha   90.03726837
_cell_angle_beta   89.92324129
_cell_angle_gamma   89.87865902
_symmetry_Int_Tables_number   1
_chemical_formula_structural   V85Zn86O256
_chemical_formula_sum   'V85 Zn86 O256'
_cell_volume   4916.99020112
_cell_formula_units_Z   1
loop_
 _symmetry_equiv_pos_site_id
 _symmetry_equiv_pos_as_xyz
  1  'x, y, z'
loop_
 _atom_site_type_symbol
 _atom_site_label
 _atom_site_symmetry_multiplicity
 _atom_site_fract_x
 _atom_site_fract_y
 _atom_site_fract_z
 _atom_site_occupancy
  V  V0  1  0.37901541  0.74864890  0.62312599  1
  V  V1  1  0.62645662  0.87350975  0.75041233  1
  V  V2  1  0.88058484  0.24468331  0.62552097  1
  V  V3  1  0.12476657  0.63105971  -0.00100767  1
  V  V4  1  0.25200461  -0.00472781  0.74744724  1
  V  V5  1  0.50297988  0.74920704  0.75154900  1
  V  V6  1  0.49838043  -0.00199809  0.50112390  1
  V  V7  1  0.38387526  0.87862022  0.00406136  1
  V  V8  1  0.37925418  0.62389337  0.75119402  1
  V  V9  1  0.62246829  0.74716763  0.37518624  1
  V  V10  1  0.87902027  0.12495996  0.74608826  1
  V  V11  1  0.38716216  0.00230860  0.87497514  1
  V  V12  1  0.37977307  0.12538266  0.25022326  1
  V  V13  1  -0.00288181  0.48961754  -0.00747175  1
  V  V14  1  0.87196890  0.37288018  0.49786125  1
  V  V15  1  0.87005846  0.26583555  0.12374545  1
  V  V16  1  0.49132536  0.24913034  0.74742831  1
  V  V17  1  0.25491185  0.73378853  0.49192988  1
  V  V18  1  0.87764885  0.87372210  0.49628884  1
  V  V19  1  0.88565726  0.62893719  0.73285368  1
  V  V20  1  0.37064407  0.00464150  0.37663389  1
  V  V21  1  0.49831412  0.87303865  0.37649431  1
  V  V22  1  0.12292699  0.62014045  0.50168834  1
  V  V23  1  0.87306248  0.12318844  0.24374194  1
  V  V24  1  0.50520807  0.25436052  0.24842126  1
  V  V25  1  0.75005485  0.87161820  0.62349075  1
  V  V26  1  0.74706327  0.00450897  0.25175233  1
  V  V27  1  0.36571940  0.87246998  0.50364091  1
  V  V28  1  0.37471949  0.37574180  -0.00075742  1
  V  V29  1  -0.00052225  0.37294140  0.37253613  1
  V  V30  1  0.62960999  0.24903810  0.37151459  1
  V  V31  1  0.12866118  0.37492263  0.25026324  1
  V  V32  1  0.25327637  0.24420566  -0.00010930  1
  V  V33  1  0.25818846  0.12338818  0.87531687  1
  V  V34  1  0.25636899  0.87205304  0.12757054  1
  V  V35  1  0.75804257  0.74739345  0.00417030  1
  V  V36  1  -0.00215620  0.01247034  0.50191062  1
  V  V37  1  0.49675014  0.49488674  0.49893535  1
  V  V38  1  0.62304211  0.87395511  0.24881855  1
  V  V39  1  0.86925985  0.00590828  0.37296348  1
  V  V40  1  0.49577808  0.37501862  0.37618220  1
  V  V41  1  0.50759291  0.61622981  0.62582423  1
  V  V42  1  0.38202240  0.24383471  0.12491347  1
  V  V43  1  0.24495779  0.37563196  0.62231554  1
  V  V44  1  -0.00317951  0.74929248  0.24467324  1
  V  V45  1  0.75348316  0.87249563  0.12606127  1
  V  V46  1  0.74536756  0.50036775  0.74740564  1
  V  V47  1  0.62482756  0.62468039  0.00880804  1
  V  V48  1  0.62359378  0.37628985  0.74517859  1
  V  V49  1  0.63014461  0.12347362  0.49336460  1
  V  V50  1  0.87127794  0.49900614  0.37113739  1
  V  V51  1  0.38014135  0.26018224  0.61422780  1
  V  V52  1  0.49482682  0.74023811  0.23721402  1
  V  V53  1  0.12711893  0.50269521  0.12555684  1
  V  V54  1  0.25376808  0.24673346  0.49493371  1
  V  V55  1  0.25264080  0.62621502  0.87623329  1
  V  V56  1  0.74918903  0.26336599  0.00360233  1
  V  V57  1  0.37628947  0.50095909  0.87818087  1
  V  V58  1  0.61588999  0.12366478  0.00375969  1
  V  V59  1  0.25127806  0.00502511  0.25734750  1
  V  V60  1  0.49640911  0.12649168  0.62804011  1
  V  V61  1  0.49992902  0.50412988  0.00733608  1
  V  V62  1  0.62567166  0.61721841  0.50173489  1
  V  V63  1  0.75416176  0.74836602  0.50001656  1
  V  V64  1  0.08059222  0.17647487  -0.05210185  1
  V  V65  1  0.62788214  0.74888184  0.87561689  1
  V  V66  1  0.74787708  0.48829450  0.24466431  1
  V  V67  1  0.75785011  0.62201976  0.87526284  1
  V  V68  1  0.87209123  0.62898198  0.24184035  1
  V  V69  1  0.24589106  0.49397443  0.75028340  1
  V  V70  1  0.62686264  0.24970514  0.87349154  1
  V  V71  1  -0.00207549  0.50346409  0.50537971  1
  V  V72  1  0.36793444  0.62011198  0.24402864  1
  V  V73  1  0.00610285  -0.00578239  0.00278845  1
  V  V74  1  0.12899099  0.24108245  0.37500662  1
  V  V75  1  0.62908266  0.48272842  0.12812911  1
  V  V76  1  0.12752522  0.00724563  0.12548175  1
  V  V77  1  0.62329828  -0.00070160  0.62493030  1
  V  V78  1  0.25693871  0.75124392  0.00151037  1
  V  V79  1  0.61394347  0.00415576  0.12110154  1
  V  V80  1  0.12946538  0.74052138  0.37373521  1
  V  V81  1  0.74656011  0.37443483  0.62115457  1
  V  V82  1  0.87654411  0.87300615  0.00313363  1
  V  V83  1  0.12751586  0.87485612  0.25690020  1
  V  V84  1  0.87275004  -0.00096728  0.87679496  1
  Zn  Zn85  1  0.11232226  0.00020996  0.63771938  1
  Zn  Zn86  1  0.74876882  0.12512662  0.87534581  1
  Zn  Zn87  1  0.12891823  0.12293078  0.50670348  1
  Zn  Zn88  1  0.11394807  0.49760880  0.63272896  1
  Zn  Zn89  1  0.24100624  0.51096460  0.26680341  1
  Zn  Zn90  1  0.04915778  0.18331658  0.68500846  1
  Zn  Zn91  1  0.25265742  0.37550191  0.12726103  1
  Zn  Zn92  1  0.05288662  0.32080939  0.81470280  1
  Zn  Zn93  1  0.21927873  0.83849628  0.66161417  1
  Zn  Zn94  1  0.74844497  0.62178534  0.37209891  1
  Zn  Zn95  1  0.00760785  0.86492630  0.87108240  1
  Zn  Zn96  1  0.50675976  0.87770935  0.88146638  1
  Zn  Zn97  1  0.75135708  0.24324252  0.49354158  1
  Zn  Zn98  1  -0.00230884  0.87280881  0.37365884  1
  Zn  Zn99  1  0.36527649  0.50168473  0.37994316  1
  Zn  Zn100  1  0.00133673  0.24604815  0.24730045  1
  Zn  Zn101  1  -0.00597553  0.63002113  0.11930458  1
  Zn  Zn102  1  0.00115028  0.12771951  0.12473202  1
  Zn  Zn103  1  0.49887791  0.37560894  0.87383870  1
  Zn  Zn104  1  0.88129042  0.48797626  0.87382093  1
  Zn  Zn105  1  0.12660374  0.76051760  0.84767340  1
  Zn  Zn106  1  0.74753068  0.00140013  0.75101246  1
  Zn  Zn107  1  0.19413264  0.18863314  0.19034677  1
  Zn  Zn108  1  0.20470736  0.18027296  0.68578124  1
  Zn  Zn109  1  0.18838353  0.68899965  0.18550505  1
  Zn  Zn110  1  0.19185183  0.67149431  0.68103649  1
  Zn  Zn111  1  0.68790764  0.18831516  0.18353771  1
  Zn  Zn112  1  0.69023686  0.18557306  0.68543971  1
  Zn  Zn113  1  0.68807865  0.68493123  0.18870205  1
  Zn  Zn114  1  0.69095614  0.68775797  0.68672001  1
  Zn  Zn115  1  0.31314357  0.31573178  0.31491166  1
  Zn  Zn116  1  0.21282607  0.30713532  0.80829972  1
  Zn  Zn117  1  0.31468492  0.81089845  0.31383928  1
  Zn  Zn118  1  0.31892498  0.81243049  0.81989034  1
  Zn  Zn119  1  0.81090916  0.30970976  0.30910121  1
  Zn  Zn120  1  0.81135388  0.30800220  0.80711312  1
  Zn  Zn121  1  0.81147177  0.81236673  0.31365053  1
  Zn  Zn122  1  0.82021002  0.81095635  0.81127181  1
  Zn  Zn123  1  0.18820227  0.43177627  0.44130806  1
  Zn  Zn124  1  0.18475396  0.43774071  0.93943152  1
  Zn  Zn125  1  0.14464268  0.89040315  0.48953748  1
  Zn  Zn126  1  0.19309943  0.93672380  0.93561034  1
  Zn  Zn127  1  0.68335175  0.43302165  0.42967969  1
  Zn  Zn128  1  0.68494988  0.43936209  0.93346408  1
  Zn  Zn129  1  0.68589444  0.93598862  0.43616697  1
  Zn  Zn130  1  0.68710224  0.93779989  0.94028900  1
  Zn  Zn131  1  0.31759055  0.05995293  0.06346006  1
  Zn  Zn132  1  0.31494266  0.06738027  0.56304263  1
  Zn  Zn133  1  0.31301353  0.56585257  0.07009468  1
  Zn  Zn134  1  0.31615766  0.55990084  0.56446125  1
  Zn  Zn135  1  0.80273572  0.06765771  0.06242883  1
  Zn  Zn136  1  0.81030525  0.06022732  0.56421306  1
  Zn  Zn137  1  0.81366243  0.55434499  0.06211250  1
  Zn  Zn138  1  0.81029577  0.55919472  0.56096164  1
  Zn  Zn139  1  0.43839708  0.43752404  0.18798649  1
  Zn  Zn140  1  0.43477132  0.43621916  0.68737373  1
  Zn  Zn141  1  0.43813497  0.93366028  0.19152909  1
  Zn  Zn142  1  0.43649311  0.93582231  0.69059987  1
  Zn  Zn143  1  0.94224475  0.44487910  0.18665100  1
  Zn  Zn144  1  0.92434715  0.44053575  0.68751782  1
  Zn  Zn145  1  0.94014335  0.93635513  0.18744544  1
  Zn  Zn146  1  0.92568893  0.94554644  0.68036404  1
  Zn  Zn147  1  0.05731660  0.05985905  0.31397525  1
  Zn  Zn148  1  0.06173134  0.04758768  0.81222286  1
  Zn  Zn149  1  0.05674799  0.56317981  0.31345830  1
  Zn  Zn150  1  0.06372735  0.56978197  0.81486582  1
  Zn  Zn151  1  0.55988072  0.06322139  0.31094730  1
  Zn  Zn152  1  0.56535158  0.06553063  0.81102153  1
  Zn  Zn153  1  0.56071160  0.56022850  0.31104036  1
  Zn  Zn154  1  0.56455323  0.56275168  0.81949886  1
  Zn  Zn155  1  0.44227384  0.18617828  0.43657439  1
  Zn  Zn156  1  0.43910672  0.18919055  0.93402001  1
  Zn  Zn157  1  0.43782858  0.68044838  0.43121822  1
  Zn  Zn158  1  0.43996605  0.68914523  0.94108712  1
  Zn  Zn159  1  0.93303602  0.18925431  0.43225990  1
  Zn  Zn160  1  0.91740554  0.19040941  0.93749589  1
  Zn  Zn161  1  0.93863148  0.68445690  0.42993862  1
  Zn  Zn162  1  0.94523489  0.68686420  0.92875117  1
  Zn  Zn163  1  0.05736275  0.31606288  0.06891600  1
  Zn  Zn164  1  0.06586306  0.31577788  0.55810974  1
  Zn  Zn165  1  0.07023577  0.81621086  0.06396943  1
  Zn  Zn166  1  0.06378520  0.81812189  0.67427844  1
  Zn  Zn167  1  0.56065164  0.31171611  0.06033158  1
  Zn  Zn168  1  0.56620410  0.31170755  0.55754574  1
  Zn  Zn169  1  0.56862994  0.81218283  0.06316286  1
  Zn  Zn170  1  0.56164982  0.80968656  0.56250437  1
  O  O171  1  0.12551532  0.11129016  0.13443594  1
  O  O172  1  0.12587833  0.11714438  0.62507237  1
  O  O173  1  0.12600048  0.61795813  0.11695717  1
  O  O174  1  0.12541420  0.61611434  0.60701198  1
  O  O175  1  0.63123069  0.11509058  0.11631363  1
  O  O176  1  0.61677585  0.12019211  0.61568534  1
  O  O177  1  0.63039984  0.62102575  0.11087558  1
  O  O178  1  0.61701221  0.63014834  0.61500506  1
  O  O179  1  0.39171391  0.37546244  0.37308927  1
  O  O180  1  0.37697135  0.38352146  0.89309656  1
  O  O181  1  0.37932125  0.88259746  0.38384808  1
  O  O182  1  0.38147250  0.88550367  0.88585235  1
  O  O183  1  0.88168532  0.37668527  0.37670575  1
  O  O184  1  0.90104070  0.37251580  0.84460439  1
  O  O185  1  0.87184699  0.88640679  0.38013214  1
  O  O186  1  0.87748342  0.88221587  0.88629322  1
  O  O187  1  0.26283698  -0.00674061  0.36254753  1
  O  O188  1  0.26201658  0.00584283  0.87098632  1
  O  O189  1  0.25307642  0.49174941  0.37671108  1
  O  O190  1  0.25787010  0.50587610  0.86989542  1
  O  O191  1  0.75537768  -0.00723999  0.36160117  1
  O  O192  1  0.76313283  -0.00076623  0.87743728  1
  O  O193  1  0.75283819  0.49982392  0.36426480  1
  O  O194  1  0.75440532  0.50439422  0.86798553  1
  O  O195  1  0.23535316  0.49671948  0.12561202  1
  O  O196  1  0.25485595  0.49097214  0.63256453  1
  O  O197  1  0.24534858  0.99431215  0.13491483  1
  O  O198  1  0.26349404  1.00767608  0.64663505  1
  O  O199  1  0.73631870  0.50063584  0.12788939  1
  O  O200  1  0.75354854  0.48616541  0.63512236  1
  O  O201  1  0.74270123  0.99020108  0.13373237  1
  O  O202  1  0.74024079  0.98806617  0.62392493  1
  O  O203  1  0.00859724  0.37549682  0.25857992  1
  O  O204  1  -0.04131607  0.37300083  0.77747438  1
  O  O205  1  0.00753140  0.86816146  0.25197375  1
  O  O206  1  0.01345375  0.90273191  0.75811594  1
  O  O207  1  0.49754046  0.36165765  0.25683348  1
  O  O208  1  0.50905896  0.36854399  0.74848429  1
  O  O209  1  0.50353909  0.86240148  0.25718905  1
  O  O210  1  0.50900818  0.86620972  0.75151547  1
  O  O211  1  0.48664473  0.13506283  0.25371454  1
  O  O212  1  0.51158755  0.13663516  0.73680384  1
  O  O213  1  0.50146953  0.63774261  0.24804317  1
  O  O214  1  0.50054181  0.62710193  0.74422358  1
  O  O215  1  0.98651844  0.12497879  0.24694284  1
  O  O216  1  0.98628236  0.11381280  0.75208241  1
  O  O217  1  0.99040777  0.63158778  0.24674010  1
  O  O218  1  0.98447223  0.61577639  0.74790564  1
  O  O219  1  0.37317195  0.25549662  0.00660493  1
  O  O220  1  0.37071276  0.24608635  0.50577113  1
  O  O221  1  0.36401076  0.75822219  -0.00345136  1
  O  O222  1  0.37230556  0.75232186  0.49948386  1
  O  O223  1  0.86542669  0.24931886  0.01566265  1
  O  O224  1  0.86952595  0.25382921  0.50451475  1
  O  O225  1  0.86571609  0.75826377  -0.00543626  1
  O  O226  1  0.86224496  0.75769072  0.48515251  1
  O  O227  1  0.13232674  0.24729895  0.49125948  1
  O  O228  1  0.13359958  0.24169693  1.00899354  1
  O  O229  1  0.13826394  0.73804442  0.49059409  1
  O  O230  1  0.13967030  0.74012589  1.00894468  1
  O  O231  1  0.62638274  0.23989584  0.49011185  1
  O  O232  1  0.62946370  0.24678474  0.99256866  1
  O  O233  1  0.63082094  0.74189025  0.49169125  1
  O  O234  1  0.63625497  0.74287215  0.99628492  1
  O  O235  1  0.49054875  0.25579325  0.13368503  1
  O  O236  1  0.49797678  0.24624362  0.62640913  1
  O  O237  1  0.50582537  0.75422417  0.13958079  1
  O  O238  1  0.49796172  0.73817868  0.63050575  1
  O  O239  1  0.98494383  0.24633565  0.12564312  1
  O  O240  1  0.98607588  0.25605684  0.61930390  1
  O  O241  1  1.00952139  0.75014102  0.14049249  1
  O  O242  1  0.96257118  0.83848224  0.71758606  1
  O  O243  1  0.00559332  0.25984784  0.37228946  1
  O  O244  1  0.01667855  0.23359619  0.89236359  1
  O  O245  1  0.00965159  0.74974273  0.36332408  1
  O  O246  1  0.01112452  0.75055093  0.86883432  1
  O  O247  1  0.50592068  0.25558077  0.36816987  1
  O  O248  1  0.50852648  0.25213696  0.86440048  1
  O  O249  1  0.51072490  0.75359476  0.37123980  1
  O  O250  1  0.51036327  0.74836577  0.86916288  1
  O  O251  1  0.24847472  0.14050150  0.50544012  1
  O  O252  1  0.25708865  0.13386193  0.99434724  1
  O  O253  1  0.24524379  0.62855296  0.50032925  1
  O  O254  1  0.24756166  0.63259033  0.99796740  1
  O  O255  1  0.73411586  0.12216234  0.50314608  1
  O  O256  1  0.74003825  0.13928930  0.99625912  1
  O  O257  1  0.74239840  0.63139522  0.49827448  1
  O  O258  1  0.74722072  0.62946579  0.99481360  1
  O  O259  1  0.25821038  0.36260028  0.00274913  1
  O  O260  1  0.24838367  0.35989703  0.51062007  1
  O  O261  1  0.26057141  0.86948163  0.00915821  1
  O  O262  1  0.26213918  0.86005322  0.49884026  1
  O  O263  1  0.74612046  0.36302007  -0.00691864  1
  O  O264  1  0.75269913  0.37648801  0.50716250  1
  O  O265  1  0.75738783  0.86729199  0.00686634  1
  O  O266  1  0.75236511  0.86651240  0.50263174  1
  O  O267  1  0.12185116  0.49409908  0.24344722  1
  O  O268  1  0.14215796  0.51239574  0.74795704  1
  O  O269  1  0.13337066  0.99536037  0.24899947  1
  O  O270  1  0.14614578  1.00032251  0.75315385  1
  O  O271  1  0.63065634  0.50594146  0.23369993  1
  O  O272  1  0.63335496  0.48731842  0.75931334  1
  O  O273  1  0.63064461  0.99545858  0.24559772  1
  O  O274  1  0.62673335  0.99235337  0.74423801  1
  O  O275  1  0.37181743  0.00581209  0.25670537  1
  O  O276  1  0.37089569  -0.00410825  0.76811507  1
  O  O277  1  0.37243050  0.50901231  0.24939594  1
  O  O278  1  0.37108151  0.50494409  0.75789290  1
  O  O279  1  0.86717112  0.00334717  0.25371289  1
  O  O280  1  0.86920595  0.00581311  0.76008022  1
  O  O281  1  0.86759532  0.50730810  0.25135963  1
  O  O282  1  0.86046926  0.51297565  0.75352436  1
  O  O283  1  0.11545510  0.36605659  0.36826046  1
  O  O284  1  0.13800630  0.36868166  0.86817370  1
  O  O285  1  0.12097843  0.85808803  0.37699933  1
  O  O286  1  0.12179246  0.86885464  0.88871957  1
  O  O287  1  0.61222313  0.35977088  0.37653404  1
  O  O288  1  0.62275253  0.36504472  0.86506386  1
  O  O289  1  0.61888425  0.86644839  0.36971786  1
  O  O290  1  0.62664313  0.86815632  0.87073226  1
  O  O291  1  0.37424162  0.13486262  0.13352659  1
  O  O292  1  0.39168228  0.13643294  0.61945547  1
  O  O293  1  0.38079483  0.62196873  0.14182652  1
  O  O294  1  0.38782845  0.62927009  0.63079721  1
  O  O295  1  0.87579281  0.12669088  0.13290601  1
  O  O296  1  0.86888778  0.13258283  0.63128248  1
  O  O297  1  0.87444787  0.62061978  0.13699621  1
  O  O298  1  0.87084517  0.62088973  0.63314874  1
  O  O299  1  0.26214684  0.25003483  0.11687722  1
  O  O300  1  0.26288382  0.25679368  0.61937091  1
  O  O301  1  0.24774770  0.76454936  0.11875121  1
  O  O302  1  0.26296362  0.74301925  0.61100076  1
  O  O303  1  0.76145662  0.25106319  0.12016277  1
  O  O304  1  0.75811192  0.25965172  0.62178380  1
  O  O305  1  0.74348219  0.76117549  0.11626886  1
  O  O306  1  0.74194628  0.75923265  0.61016986  1
  O  O307  1  0.24063823  0.25734039  0.38301170  1
  O  O308  1  0.25759700  0.23588305  0.88741738  1
  O  O309  1  0.24323856  0.75014846  0.38175567  1
  O  O310  1  0.24970065  0.74391277  0.88456187  1
  O  O311  1  0.73541770  0.25384010  0.37317139  1
  O  O312  1  0.74102938  0.25086775  0.88056219  1
  O  O313  1  0.73663763  0.74976224  0.38123643  1
  O  O314  1  0.74702119  0.74183338  0.88541971  1
  O  O315  1  0.00889862  0.11869812  0.00028085  1
  O  O316  1  -0.00491821  0.11411127  0.49333606  1
  O  O317  1  0.01184491  0.62167534  0.00226588  1
  O  O318  1  0.00565928  0.61236906  0.49287486  1
  O  O319  1  0.51655903  0.13354834  -0.00264624  1
  O  O320  1  0.50852392  0.11763761  0.50801892  1
  O  O321  1  0.51139246  0.61441913  -0.00513799  1
  O  O322  1  0.50894142  0.61880168  0.50679077  1
  O  O323  1  0.50840009  0.38647311  0.49401204  1
  O  O324  1  0.49237597  0.38504731  0.99916091  1
  O  O325  1  0.49120776  0.87831886  0.49601738  1
  O  O326  1  0.48837127  0.86468297  1.00113864  1
  O  O327  1  0.99375648  0.38091599  0.48779077  1
  O  O328  1  1.01013561  0.39069560  0.99828409  1
  O  O329  1  0.98201242  0.88475156  0.49575930  1
  O  O330  1  0.98994721  0.88137217  1.00827189  1
  O  O331  1  0.50508239  0.48912770  0.38146440  1
  O  O332  1  0.49542659  0.49776020  0.88768603  1
  O  O333  1  0.49072012  0.99294597  0.37984391  1
  O  O334  1  0.49056666  1.00015541  0.87153270  1
  O  O335  1  0.99212330  0.48951572  0.38046605  1
  O  O336  1  1.00290196  0.50660588  0.88965678  1
  O  O337  1  0.98493943  0.99577114  0.38117359  1
  O  O338  1  0.99047308  0.99932643  0.89094224  1
  O  O339  1  0.00799742  0.00226974  0.11755210  1
  O  O340  1  -0.00692285  0.00027108  0.60535266  1
  O  O341  1  0.01150275  0.50405925  0.11412377  1
  O  O342  1  -0.00260007  0.48443230  0.60977712  1
  O  O343  1  0.51548718  -0.00702938  0.13248050  1
  O  O344  1  0.50268773  0.00740700  0.62207312  1
  O  O345  1  0.51460078  0.49502970  0.11625841  1
  O  O346  1  0.49755714  0.51004733  0.61875541  1
  O  O347  1  0.23636165  0.37538785  0.24856544  1
  O  O348  1  0.25794870  0.38593141  0.73773765  1
  O  O349  1  0.24888775  0.88204566  0.24517860  1
  O  O350  1  0.26198958  0.88886103  0.75393519  1
  O  O351  1  0.75396511  0.38944632  0.24980983  1
  O  O352  1  0.74305224  0.38046723  0.74272611  1
  O  O353  1  0.74446501  0.87998303  0.24246420  1
  O  O354  1  0.74593348  0.87186133  0.73863097  1
  O  O355  1  0.26467775  0.11484607  0.24789888  1
  O  O356  1  0.25534887  0.11417614  0.76748296  1
  O  O357  1  0.26313389  0.62778330  0.24735268  1
  O  O358  1  0.26170598  0.61542669  0.75475752  1
  O  O359  1  0.75736783  0.11151654  0.24272403  1
  O  O360  1  0.75947476  0.12102042  0.75278084  1
  O  O361  1  0.75687579  0.61764204  0.25110316  1
  O  O362  1  0.74535749  0.61451018  0.75798752  1
  O  O363  1  0.38021936  0.11213339  0.36896607  1
  O  O364  1  0.37259189  0.10986972  0.88397820  1
  O  O365  1  0.38684986  0.61769392  0.35442569  1
  O  O366  1  0.37252561  0.62015027  0.87176718  1
  O  O367  1  0.87403894  0.11488541  0.36170722  1
  O  O368  1  0.87170577  0.11574750  0.86729655  1
  O  O369  1  0.87159653  0.61585361  0.36318642  1
  O  O370  1  0.86263677  0.62093649  0.87338049  1
  O  O371  1  0.12417309  0.38239347  0.13559672  1
  O  O372  1  0.13874023  0.37960151  0.62205999  1
  O  O373  1  0.13665914  0.88631205  0.13483640  1
  O  O374  1  0.12968465  0.88647886  0.60693221  1
  O  O375  1  0.62670129  0.38435450  0.12271862  1
  O  O376  1  0.63444415  0.36632908  0.63501376  1
  O  O377  1  0.63561469  0.88303200  0.12815754  1
  O  O378  1  0.63066184  0.87868829  0.62815047  1
  O  O379  1  0.12419948  0.25751375  0.25507888  1
  O  O380  1  0.12517906  0.24817789  0.74682586  1
  O  O381  1  0.12170667  0.75367419  0.25750820  1
  O  O382  1  0.14295727  0.76008729  0.73061614  1
  O  O383  1  0.61328033  0.23697653  0.25675695  1
  O  O384  1  0.62171991  0.25766476  0.75615621  1
  O  O385  1  0.61771590  0.75263524  0.25732269  1
  O  O386  1  0.62309304  0.75363514  0.75577116  1
  O  O387  1  0.38006691  0.24376880  0.24427384  1
  O  O388  1  0.39186282  0.25188029  0.73560343  1
  O  O389  1  0.38899181  0.74152978  0.25521972  1
  O  O390  1  0.38249729  0.74353303  0.74576309  1
  O  O391  1  0.87189310  0.24096117  0.23822184  1
  O  O392  1  0.87120654  0.23614099  0.73847980  1
  O  O393  1  0.88370426  0.74191195  0.25774496  1
  O  O394  1  0.86127159  0.72531283  0.75208308  1
  O  O395  1  0.39342774  0.50855981  0.49687936  1
  O  O396  1  0.38161423  0.49603475  1.00161226  1
  O  O397  1  0.37671655  0.99253397  0.49514869  1
  O  O398  1  0.37131191  0.98942976  0.98922027  1
  O  O399  1  0.87925771  0.49338167  0.49217249  1
  O  O400  1  0.89226534  0.50128872  0.99843963  1
  O  O401  1  0.87609303  0.99668069  0.48986356  1
  O  O402  1  0.88151707  0.99396462  0.99633700  1
  O  O403  1  0.11670436  -0.00660192  0.01278889  1
  O  O404  1  0.10250389  0.00161420  0.49010630  1
  O  O405  1  0.12024788  0.51058621  0.00631664  1
  O  O406  1  0.11306989  0.50455995  0.49699663  1
  O  O407  1  0.63264799  0.01002981  0.00902392  1
  O  O408  1  0.61743759  0.00353387  0.50282388  1
  O  O409  1  0.62072020  0.50405354  0.00898679  1
  O  O410  1  0.61948008  0.51226806  0.49318988  1
  O  O411  1  0.37428655  0.36641949  0.11609956  1
  O  O412  1  0.36967863  0.36562542  0.62296549  1
  O  O413  1  0.36443184  0.88571317  0.11876021  1
  O  O414  1  0.38194108  0.86566488  0.61345755  1
  O  O415  1  0.87915104  0.36346717  0.13266191  1
  O  O416  1  0.86454916  0.36525965  0.61836764  1
  O  O417  1  0.86357804  0.88253549  0.11594124  1
  O  O418  1  0.85642334  0.88338071  0.60773845  1
  O  O419  1  0.11744268  0.13935825  0.37389731  1
  O  O420  1  0.13498650  0.11766375  0.88442606  1
  O  O421  1  0.12035356  0.63260036  0.38266447  1
  O  O422  1  0.13617498  0.62823411  0.88616693  1
  O  O423  1  0.61446620  0.13280461  0.38457612  1
  O  O424  1  0.62672946  0.13604487  0.88024191  1
  O  O425  1  0.62423870  0.63297869  0.38283119  1
  O  O426  1  0.63791887  0.62724889  0.88635299  1
