# generated using pymatgen
data_V85Zn86O256
_symmetry_space_group_name_H-M   'P 1'
_cell_length_a   16.99065472
_cell_length_b   16.98709655
_cell_length_c   16.97293748
_cell_angle_alpha   90.09485627
_cell_angle_beta   89.86659328
_cell_angle_gamma   89.92474133
_symmetry_Int_Tables_number   1
_chemical_formula_structural   V85Zn86O256
_chemical_formula_sum   'V85 Zn86 O256'
_cell_volume   4898.73708898
_cell_formula_units_Z   1
loop_
 _symmetry_equiv_pos_site_id
 _symmetry_equiv_pos_as_xyz
  1  'x, y, z'
loop_
 _atom_site_type_symbol
 _atom_site_label
 _atom_site_symmetry_multiplicity
 _atom_site_fract_x
 _atom_site_fract_y
 _atom_site_fract_z
 _atom_site_occupancy
  V  V0  1  0.00343783  0.75109304  0.25509961  1
  V  V1  1  0.12470184  0.62259216  -0.00258234  1
  V  V2  1  0.49919634  0.25538332  0.25786342  1
  V  V3  1  0.38056065  -0.00497473  0.37408038  1
  V  V4  1  0.74652943  0.74369837  -0.00328728  1
  V  V5  1  0.75037857  0.74548385  0.49406908  1
  V  V6  1  0.12207318  0.24838408  0.37453329  1
  V  V7  1  0.14748728  -0.00068501  0.62691886  1
  V  V8  1  0.37761845  0.87156766  0.00175287  1
  V  V9  1  0.25402757  0.86944291  0.12639593  1
  V  V10  1  0.63116625  0.13279745  -0.01004529  1
  V  V11  1  0.12396515  0.12007504  0.00201907  1
  V  V12  1  -0.00144788  0.12019994  0.12696002  1
  V  V13  1  0.12375282  0.49767575  0.12191100  1
  V  V14  1  0.00001515  0.62706636  0.62413239  1
  V  V15  1  0.61732155  0.87779131  0.26017699  1
  V  V16  1  -0.00331841  -0.00831269  0.50592327  1
  V  V17  1  0.87107408  0.50493709  0.37595393  1
  V  V18  1  0.62329813  0.00024602  0.12347422  1
  V  V19  1  0.50251174  0.74435253  0.74122147  1
  V  V20  1  0.24555746  0.12372715  0.37310324  1
  V  V21  1  0.50253939  0.12995741  0.62400830  1
  V  V22  1  0.61881724  0.50027853  0.11259068  1
  V  V23  1  0.37929874  0.38017978  -0.00478742  1
  V  V24  1  0.38220366  0.62786772  0.24377429  1
  V  V25  1  0.25142125  0.63063328  0.37049564  1
  V  V26  1  -0.00052609  0.49454001  -0.00600667  1
  V  V27  1  0.50563409  0.37814820  0.87708047  1
  V  V28  1  0.12192919  0.12324384  0.50038847  1
  V  V29  1  0.25161748  0.62205574  0.86344872  1
  V  V30  1  0.86961287  0.12418292  0.25318037  1
  V  V31  1  0.87407428  0.87357046  0.00025257  1
  V  V32  1  0.87116741  0.24600072  0.12403061  1
  V  V33  1  0.00100754  0.87359228  0.87500673  1
  V  V34  1  0.75484760  0.49859840  0.73862938  1
  V  V35  1  0.50088800  0.12701123  0.12362632  1
  V  V36  1  0.50381645  0.00296915  0.49779471  1
  V  V37  1  0.24877609  0.75762145  0.50025377  1
  V  V38  1  0.37643111  0.12128151  0.75470108  1
  V  V39  1  -0.00556840  0.37600314  0.37704992  1
  V  V40  1  0.25111957  0.24850839  -0.00539257  1
  V  V41  1  0.48741016  0.49874043  0.48742677  1
  V  V42  1  0.37353915  0.88062550  0.50592004  1
  V  V43  1  0.14100102  0.88036158  0.74691803  1
  V  V44  1  0.88782351  0.13253340  0.75114964  1
  V  V45  1  -0.00134621  -0.00340356  0.00266225  1
  V  V46  1  0.25346528  0.74702155  0.00295363  1
  V  V47  1  0.37415849  0.12542234  0.24770368  1
  V  V48  1  -0.00355070  0.62413640  0.12418030  1
  V  V49  1  0.00063278  0.75249597  0.74802275  1
  V  V50  1  0.62894028  0.37667966  0.74909842  1
  V  V51  1  0.12519094  0.74982524  0.87263160  1
  V  V52  1  0.74608311  0.87415283  0.12489737  1
  V  V53  1  0.37844543  0.50385043  0.86896367  1
  V  V54  1  0.75570447  0.87772476  0.61667223  1
  V  V55  1  0.75334992  0.00459782  0.75100908  1
  V  V56  1  0.10812448  0.25248794  0.87672864  1
  V  V57  1  0.61830766  0.73867121  0.37392027  1
  V  V58  1  0.50110481  0.87659040  0.87306254  1
  V  V59  1  0.37940473  0.74807349  0.62172308  1
  V  V60  1  0.87679334  0.75643769  0.61872802  1
  V  V61  1  0.88132080  0.26227086  0.61935268  1
  V  V62  1  0.24723038  -0.00308751  0.24749622  1
  V  V63  1  0.87537727  0.37164995  -0.00192033  1
  V  V64  1  0.74273909  0.12943204  0.39008336  1
  V  V65  1  0.87085695  0.00190098  0.87401319  1
  V  V66  1  0.25102917  0.11792691  0.87279789  1
  V  V67  1  0.87635601  -0.00755265  0.38186294  1
  V  V68  1  0.86500605  0.62540929  0.24954316  1
  V  V69  1  0.50318341  0.25107594  0.75569894  1
  V  V70  1  0.74847312  0.36770695  0.12799442  1
  V  V71  1  0.12376941  0.37591595  0.24623922  1
  V  V72  1  0.13966763  0.50200848  0.62692373  1
  V  V73  1  0.62719338  0.01010741  0.62025100  1
  V  V74  1  0.60970295  0.51224730  0.63095580  1
  V  V75  1  0.12639630  0.36042783  0.73524343  1
  V  V76  1  0.62653066  0.87640688  0.74635990  1
  V  V77  1  0.74690996  0.50101881  0.25456194  1
  V  V78  1  0.62033562  0.37267995  0.26081954  1
  V  V79  1  0.87584853  0.49942606  0.87367422  1
  V  V80  1  -0.00309596  0.24714058  0.24990451  1
  V  V81  1  0.12438099  0.63319601  0.49090656  1
  V  V82  1  0.62741184  0.74543782  0.87532638  1
  V  V83  1  -0.00413722  0.49818115  0.50128903  1
  V  V84  1  0.37414857  0.25168343  0.12271793  1
  Zn  Zn85  1  0.61929741  0.62902567  0.50679890  1
  Zn  Zn86  1  0.36835464  0.26603712  0.61871713  1
  Zn  Zn87  1  0.00819611  0.12840418  0.63368155  1
  Zn  Zn88  1  0.49452847  0.62435350  0.09685235  1
  Zn  Zn89  1  0.37623721  0.62113247  0.74021807  1
  Zn  Zn90  1  0.74771468  0.24376785  -0.03935647  1
  Zn  Zn91  1  0.25229587  0.50175748  0.24694034  1
  Zn  Zn92  1  0.49848673  0.00426862  -0.00318905  1
  Zn  Zn93  1  0.36652795  -0.00675636  0.87074639  1
  Zn  Zn94  1  0.00514192  0.86697763  0.38455222  1
  Zn  Zn95  1  0.24896546  0.26871050  0.51301748  1
  Zn  Zn96  1  0.61459566  0.24505286  0.39658745  1
  Zn  Zn97  1  0.24976630  0.37630795  0.11836039  1
  Zn  Zn98  1  0.74899211  0.62140676  0.87625334  1
  Zn  Zn99  1  0.73494225  0.27368465  0.53509939  1
  Zn  Zn100  1  0.36849964  0.48707435  0.37415677  1
  Zn  Zn101  1  0.12226006  -0.00656738  0.12699849  1
  Zn  Zn102  1  0.87106220  0.74830404  0.12435487  1
  Zn  Zn103  1  0.87597043  0.62763117  0.75105627  1
  Zn  Zn104  1  0.13242168  0.86366387  0.25875427  1
  Zn  Zn105  1  0.74867697  -0.00177666  0.25571425  1
  Zn  Zn106  1  0.49332255  0.75484677  0.24256826  1
  Zn  Zn107  1  0.18560150  0.18712833  0.18433645  1
  Zn  Zn108  1  0.19282407  0.18334077  0.68754088  1
  Zn  Zn109  1  0.18739441  0.68376344  0.18515565  1
  Zn  Zn110  1  0.18795221  0.69287483  0.68063645  1
  Zn  Zn111  1  0.68428716  0.18601060  0.19277555  1
  Zn  Zn112  1  0.71652554  0.21354707  0.73974419  1
  Zn  Zn113  1  0.65561930  0.69890528  0.17088772  1
  Zn  Zn114  1  0.69467971  0.68719248  0.69097076  1
  Zn  Zn115  1  0.30670584  0.30980739  0.31048604  1
  Zn  Zn116  1  0.32182188  0.33977019  0.76984872  1
  Zn  Zn117  1  0.31758041  0.80995990  0.31579696  1
  Zn  Zn118  1  0.31718143  0.80587192  0.81347735  1
  Zn  Zn119  1  0.78524712  0.33606671  0.35959416  1
  Zn  Zn120  1  0.82170114  0.32047648  0.80924731  1
  Zn  Zn121  1  0.80875016  0.81132609  0.31075836  1
  Zn  Zn122  1  0.81321867  0.81594504  0.80897007  1
  Zn  Zn123  1  0.18216065  0.44596895  0.43122894  1
  Zn  Zn124  1  0.20341483  0.42143748  0.90534363  1
  Zn  Zn125  1  0.18371858  0.93625140  0.43631117  1
  Zn  Zn126  1  0.18589927  0.93434778  0.93891713  1
  Zn  Zn127  1  0.67937745  0.43301844  0.45691854  1
  Zn  Zn128  1  0.69438742  0.43295853  0.93336425  1
  Zn  Zn129  1  0.69006100  0.93982547  0.43783126  1
  Zn  Zn130  1  0.68563540  0.93644992  0.93824857  1
  Zn  Zn131  1  0.31371303  0.05895304  0.06000683  1
  Zn  Zn132  1  0.32289214  0.09042988  0.55393714  1
  Zn  Zn133  1  0.31302159  0.56128534  0.05947633  1
  Zn  Zn134  1  0.31377638  0.56996938  0.55766750  1
  Zn  Zn135  1  0.80823865  0.06160335  0.06168072  1
  Zn  Zn136  1  0.81633487  0.07063531  0.56686875  1
  Zn  Zn137  1  0.80694466  0.55899858  0.06590580  1
  Zn  Zn138  1  0.81211190  0.56800013  0.56216953  1
  Zn  Zn139  1  0.43715885  0.44062392  0.18588155  1
  Zn  Zn140  1  0.44050549  0.43903472  0.68298572  1
  Zn  Zn141  1  0.43753068  0.93752222  0.18490351  1
  Zn  Zn142  1  0.43650726  0.93862180  0.68523051  1
  Zn  Zn143  1  0.93494921  0.43594169  0.18696217  1
  Zn  Zn144  1  0.95105900  0.43548552  0.69365282  1
  Zn  Zn145  1  0.93248199  0.93586980  0.19015753  1
  Zn  Zn146  1  0.94453219  0.93879669  0.68738275  1
  Zn  Zn147  1  0.05889477  0.05535739  0.31468500  1
  Zn  Zn148  1  0.06763019  0.05688916  0.81557541  1
  Zn  Zn149  1  0.05884211  0.56526221  0.31080089  1
  Zn  Zn150  1  0.06289074  0.56216657  0.80952606  1
  Zn  Zn151  1  0.56229623  0.06601297  0.31059016  1
  Zn  Zn152  1  0.56448139  0.06132199  0.80986069  1
  Zn  Zn153  1  0.56111661  0.55644024  0.31515649  1
  Zn  Zn154  1  0.56133232  0.56285492  0.82090016  1
  Zn  Zn155  1  0.43156461  0.18845734  0.43968336  1
  Zn  Zn156  1  0.44026132  0.18932833  0.93543013  1
  Zn  Zn157  1  0.43849280  0.68212124  0.43668853  1
  Zn  Zn158  1  0.43849222  0.68825714  0.93329840  1
  Zn  Zn159  1  0.93358220  0.18566288  0.44014244  1
  Zn  Zn160  1  0.93164924  0.18087561  0.94168589  1
  Zn  Zn161  1  0.93387454  0.68520952  0.43744044  1
  Zn  Zn162  1  0.93609325  0.68624176  0.93809317  1
  Zn  Zn163  1  0.05965751  0.30807052  0.06092176  1
  Zn  Zn164  1  0.05919045  0.30946895  0.56189986  1
  Zn  Zn165  1  0.06446684  0.80987616  0.06741001  1
  Zn  Zn166  1  0.06827951  0.81793047  0.56702751  1
  Zn  Zn167  1  0.56373404  0.31182556  0.06485288  1
  Zn  Zn168  1  0.55686457  0.32050956  0.56853695  1
  Zn  Zn169  1  0.55893844  0.80528329  0.06214448  1
  Zn  Zn170  1  0.56326573  0.82097080  0.55771255  1
  O  O171  1  0.11666766  0.12036726  0.12001273  1
  O  O172  1  0.12537742  0.11724711  0.61742265  1
  O  O173  1  0.11819660  0.61504286  0.11815945  1
  O  O174  1  0.12185584  0.61819190  0.61252476  1
  O  O175  1  0.62066248  0.11655978  0.12087137  1
  O  O176  1  0.61525143  0.11290798  0.63218300  1
  O  O177  1  0.64195789  0.59771009  0.12444198  1
  O  O178  1  0.63069691  0.61448724  0.62916211  1
  O  O179  1  0.33551202  0.37252939  0.40325693  1
  O  O180  1  0.38229667  0.38435988  0.87584650  1
  O  O181  1  0.37326113  0.88934767  0.38247026  1
  O  O182  1  0.38406996  0.87371594  0.88128674  1
  O  O183  1  0.89004135  0.38870187  0.36309502  1
  O  O184  1  0.87431864  0.38647235  0.88715064  1
  O  O185  1  0.87480046  0.88992879  0.36805812  1
  O  O186  1  0.88175283  0.88201521  0.87933257  1
  O  O187  1  0.25708487  0.00596081  0.36447182  1
  O  O188  1  0.24778337  0.01330182  0.88278102  1
  O  O189  1  0.24644026  0.51809098  0.36875262  1
  O  O190  1  0.26067558  0.51472575  0.88096452  1
  O  O191  1  0.75845353  0.01103932  0.37683553  1
  O  O192  1  0.76074034  -0.01193353  0.86448147  1
  O  O193  1  0.76074522  0.49295562  0.36412639  1
  O  O194  1  0.76131906  0.50162714  0.86838896  1
  O  O195  1  0.23438364  0.49739941  0.12328607  1
  O  O196  1  0.23748680  0.50541849  0.61358104  1
  O  O197  1  0.25154619  0.98943073  0.13282552  1
  O  O198  1  0.24469213  1.01215080  0.61580575  1
  O  O199  1  0.74751234  0.48313409  0.13464040  1
  O  O200  1  0.74922159  0.50344254  0.63503092  1
  O  O201  1  0.73983627  0.99010947  0.12489916  1
  O  O202  1  0.74674550  0.99584409  0.62851600  1
  O  O203  1  0.00700369  0.36955444  0.25404296  1
  O  O204  1  0.03372565  0.38984389  0.76123744  1
  O  O205  1  -0.00317963  0.85613534  0.24401425  1
  O  O206  1  0.00919889  0.87000284  0.75647392  1
  O  O207  1  0.50575254  0.36461199  0.24529809  1
  O  O208  1  0.50838538  0.36976396  0.75964530  1
  O  O209  1  0.51185370  0.87152268  0.24123438  1
  O  O210  1  0.50630670  0.86942511  0.75490566  1
  O  O211  1  0.49320427  0.13333971  0.24272141  1
  O  O212  1  0.50025438  0.13357144  0.74723768  1
  O  O213  1  0.48441601  0.62076444  0.25713411  1
  O  O214  1  0.49905530  0.64257477  0.75770503  1
  O  O215  1  0.99185882  0.12650656  0.24725454  1
  O  O216  1  0.98971236  0.11556987  0.75390687  1
  O  O217  1  0.98848378  0.63180871  0.24443589  1
  O  O218  1  1.00024092  0.63414536  0.74207150  1
  O  O219  1  0.36750073  0.25559930  0.00232283  1
  O  O220  1  0.35359026  0.21235712  0.51543968  1
  O  O221  1  0.36335920  0.75992794  -0.00772993  1
  O  O222  1  0.37320739  0.76034136  0.50300573  1
  O  O223  1  0.86839929  0.25441024  0.00396965  1
  O  O224  1  0.87400832  0.24529324  0.51739570  1
  O  O225  1  0.86598687  0.75685693  0.00113244  1
  O  O226  1  0.86724033  0.74613173  0.50996019  1
  O  O227  1  0.12833709  0.24177474  0.49242239  1
  O  O228  1  0.12904202  0.23928932  0.99578636  1
  O  O229  1  0.13378601  0.74206759  0.50764573  1
  O  O230  1  0.13211553  0.74377424  0.99336073  1
  O  O231  1  0.62618802  0.25940713  0.50698169  1
  O  O232  1  0.62887025  0.23713148  1.00338673  1
  O  O233  1  0.62873593  0.75298184  0.48803701  1
  O  O234  1  0.63656718  0.76099605  0.98567184  1
  O  O235  1  0.49280878  0.24568719  0.13408474  1
  O  O236  1  0.49503983  0.24234961  0.63482138  1
  O  O237  1  0.53853856  0.72544449  0.13869178  1
  O  O238  1  0.49473929  0.75993140  0.63098591  1
  O  O239  1  0.99147733  0.24072011  0.12919700  1
  O  O240  1  0.99115996  0.24335617  0.62403943  1
  O  O241  1  0.99463348  0.74108248  0.13227724  1
  O  O242  1  0.99417974  0.74840248  0.62676554  1
  O  O243  1  0.00161578  0.25778838  0.37158940  1
  O  O244  1  0.01042137  0.23750744  0.88116511  1
  O  O245  1  -0.01109779  0.74949618  0.35928260  1
  O  O246  1  0.00574541  0.75365884  0.87005516  1
  O  O247  1  0.49818654  0.24019203  0.36300624  1
  O  O248  1  0.49871405  0.26185651  0.86519293  1
  O  O249  1  0.51553959  0.74825814  0.37288535  1
  O  O250  1  0.50815640  0.76214632  0.86404941  1
  O  O251  1  0.23211064  0.11340560  0.48338255  1
  O  O252  1  0.24570401  0.12984720  0.99596108  1
  O  O253  1  0.24236114  0.63538579  0.48974347  1
  O  O254  1  0.24527078  0.63237786  0.99421823  1
  O  O255  1  0.75269105  0.12892243  0.49058876  1
  O  O256  1  0.73649961  0.12761421  1.00244840  1
  O  O257  1  0.74193787  0.64106826  0.50641745  1
  O  O258  1  0.75690876  0.63988308  0.99858065  1
  O  O259  1  0.26058738  0.36397584  -0.00651171  1
  O  O260  1  0.26833533  0.37271012  0.45987354  1
  O  O261  1  0.25595580  0.86709509  0.00595579  1
  O  O262  1  0.26091788  0.86824225  0.49228781  1
  O  O263  1  0.76012005  0.36814831  0.00864833  1
  O  O264  1  0.76210991  0.36324803  0.46968997  1
  O  O265  1  0.75429130  0.86902539  0.00680653  1
  O  O266  1  0.74644252  0.86810505  0.51206964  1
  O  O267  1  0.11881861  0.49285996  0.23831971  1
  O  O268  1  0.12651422  0.50899998  0.72782832  1
  O  O269  1  0.13915211  0.99911765  0.24845428  1
  O  O270  1  0.12428542  0.99240871  0.73998078  1
  O  O271  1  0.63140975  0.49103336  0.24715110  1
  O  O272  1  0.63332812  0.50080906  0.74476106  1
  O  O273  1  0.62446922  0.99463330  0.23996827  1
  O  O274  1  0.63539342  0.99650749  0.74208806  1
  O  O275  1  0.36837699  0.00367725  0.25483087  1
  O  O276  1  0.38751326  0.01405491  0.75695194  1
  O  O277  1  0.37072531  0.50551709  0.25586543  1
  O  O278  1  0.38070823  0.50595631  0.76452023  1
  O  O279  1  0.87549205  0.00980243  0.26026218  1
  O  O280  1  0.87173548  0.00139932  0.75746802  1
  O  O281  1  0.86890302  0.50574068  0.25484213  1
  O  O282  1  0.87306036  0.49563093  0.75855386  1
  O  O283  1  0.11304609  0.37202106  0.36471801  1
  O  O284  1  0.11449610  0.35199512  0.89339139  1
  O  O285  1  0.11761069  0.87827511  0.36877684  1
  O  O286  1  0.11975724  0.86946750  0.86891763  1
  O  O287  1  0.62871065  0.37056164  0.36243034  1
  O  O288  1  0.61579674  0.38523763  0.86375266  1
  O  O289  1  0.62837196  0.87676250  0.36382380  1
  O  O290  1  0.61988218  0.86846030  0.86690946  1
  O  O291  1  0.37934084  0.13026367  0.12800381  1
  O  O292  1  0.39270515  0.11857522  0.64087079  1
  O  O293  1  0.37752388  0.61490276  0.13886780  1
  O  O294  1  0.37435932  0.64229609  0.62350126  1
  O  O295  1  0.87781195  0.12512839  0.13208632  1
  O  O296  1  0.88288043  0.12700538  0.64204676  1
  O  O297  1  0.87860540  0.62273445  0.13318154  1
  O  O298  1  0.88262366  0.63790719  0.62653991  1
  O  O299  1  0.25339568  0.25089036  0.11213504  1
  O  O300  1  0.24737481  0.25767147  0.62724925  1
  O  O301  1  0.24471769  0.75523346  0.11261357  1
  O  O302  1  0.26114683  0.74832588  0.60889022  1
  O  O303  1  0.75367425  0.26064576  0.13440229  1
  O  O304  1  0.77431001  0.24632592  0.63991567  1
  O  O305  1  0.74241809  0.76031084  0.11519779  1
  O  O306  1  0.75733467  0.75975644  0.61972159  1
  O  O307  1  0.23936215  0.23165175  0.36629611  1
  O  O308  1  0.23871262  0.23748284  0.88839406  1
  O  O309  1  0.25482995  0.74174276  0.38621958  1
  O  O310  1  0.24486830  0.74214771  0.88455657  1
  O  O311  1  0.74681698  0.22965301  0.36727891  1
  O  O312  1  0.74814238  0.24676740  0.84930984  1
  O  O313  1  0.74149221  0.75915872  0.38771699  1
  O  O314  1  0.74437769  0.75348783  0.87942679  1
  O  O315  1  0.00233984  0.11543898  0.00794382  1
  O  O316  1  0.01405211  0.11673339  0.49577639  1
  O  O317  1  0.00413301  0.61575168  0.00450814  1
  O  O318  1  0.00766460  0.61994216  0.50250391  1
  O  O319  1  0.51044493  0.12602446  0.00634621  1
  O  O320  1  0.49464349  0.11395711  0.51231892  1
  O  O321  1  0.50534740  0.62350490  -0.01245144  1
  O  O322  1  0.50580275  0.60867536  0.49457074  1
  O  O323  1  0.49329511  0.40364143  0.52486423  1
  O  O324  1  0.48888576  0.36272355  0.98943166  1
  O  O325  1  0.48882468  0.89307195  0.50257787  1
  O  O326  1  0.49208260  0.86931189  0.99259858  1
  O  O327  1  1.00816547  0.38706516  0.48838879  1
  O  O328  1  0.98509878  0.38254329  1.01014881  1
  O  O329  1  1.00196976  0.88663040  0.50247018  1
  O  O330  1  0.99486209  0.87657426  0.99690685  1
  O  O331  1  0.49783054  0.48836972  0.38479780  1
  O  O332  1  0.49272935  0.48883330  0.87400452  1
  O  O333  1  0.48884211  1.01338863  0.38299283  1
  O  O334  1  0.50502949  0.98359075  0.87656810  1
  O  O335  1  0.99402954  0.49560530  0.38106288  1
  O  O336  1  0.99452837  0.50438935  0.88686721  1
  O  O337  1  0.99106578  0.99813132  0.38631842  1
  O  O338  1  0.99181737  0.99257434  0.88273672  1
  O  O339  1  -0.00092347  0.00178768  0.12090632  1
  O  O340  1  0.00460298  0.00592733  0.61606142  1
  O  O341  1  0.00449310  0.50347877  0.11630739  1
  O  O342  1  0.00554236  0.50644744  0.61480039  1
  O  O343  1  0.50805036  0.00675899  0.12206076  1
  O  O344  1  0.50947941  0.00649898  0.61940287  1
  O  O345  1  0.51567981  0.50287703  0.12759842  1
  O  O346  1  0.50924963  0.51636543  0.63776397  1
  O  O347  1  0.23295177  0.37575132  0.24593789  1
  O  O348  1  0.21565908  0.38665327  0.78325216  1
  O  O349  1  0.25575831  0.87892001  0.24279798  1
  O  O350  1  0.23944644  0.87087128  0.76031829  1
  O  O351  1  0.74170454  0.38188029  0.24724287  1
  O  O352  1  0.74058475  0.38898534  0.75528497  1
  O  O353  1  0.74001009  0.87752658  0.23948485  1
  O  O354  1  0.74730743  0.88477745  0.73786077  1
  O  O355  1  0.25352691  0.11586947  0.25222365  1
  O  O356  1  0.26263180  0.13084596  0.76345774  1
  O  O357  1  0.25850979  0.62682767  0.25404724  1
  O  O358  1  0.25245873  0.63719763  0.76051090  1
  O  O359  1  0.75949874  0.11926102  0.25294639  1
  O  O360  1  0.76660982  0.10822456  0.74717793  1
  O  O361  1  0.75865496  0.61161529  0.24210025  1
  O  O362  1  0.75801244  0.61424437  0.75455371  1
  O  O363  1  0.36294616  0.11559559  0.36717455  1
  O  O364  1  0.36854555  0.12132118  0.87365758  1
  O  O365  1  0.36442880  0.62286177  0.36458802  1
  O  O366  1  0.36618275  0.62084210  0.87148838  1
  O  O367  1  0.86633652  0.11828278  0.36943903  1
  O  O368  1  0.87811275  0.11059767  0.86589943  1
  O  O369  1  0.87846391  0.61351214  0.36308495  1
  O  O370  1  0.87545821  0.61153515  0.87369252  1
  O  O371  1  0.12137451  0.38051499  0.12993299  1
  O  O372  1  0.12546271  0.38583000  0.62921651  1
  O  O373  1  0.13991179  0.87394474  0.13166158  1
  O  O374  1  0.12835366  0.88629285  0.63516336  1
  O  O375  1  0.63131953  0.37958711  0.13572518  1
  O  O376  1  0.61835877  0.39665732  0.64171697  1
  O  O377  1  0.63008099  0.88320177  0.12907864  1
  O  O378  1  0.63485706  0.88610998  0.62852528  1
  O  O379  1  0.11686062  0.25622293  0.25274101  1
  O  O380  1  0.12487261  0.25546471  0.76303089  1
  O  O381  1  0.10686727  0.74224597  0.24633234  1
  O  O382  1  0.12026245  0.75881022  0.75172521  1
  O  O383  1  0.61283375  0.25654750  0.25048506  1
  O  O384  1  0.61365015  0.26465170  0.73998996  1
  O  O385  1  0.63289902  0.76009479  0.26712000  1
  O  O386  1  0.62191854  0.75794943  0.75286365  1
  O  O387  1  0.37889322  0.24721741  0.24446306  1
  O  O388  1  0.38869928  0.23523837  0.75541175  1
  O  O389  1  0.37765533  0.73484080  0.25172275  1
  O  O390  1  0.38527755  0.75298613  0.73799806  1
  O  O391  1  0.88127470  0.23546829  0.24366651  1
  O  O392  1  0.88345654  0.23525932  0.75016967  1
  O  O393  1  0.87702200  0.73969163  0.24610260  1
  O  O394  1  0.88186422  0.75156770  0.73892902  1
  O  O395  1  0.38393475  0.51074607  0.49272478  1
  O  O396  1  0.37041389  0.48656174  0.99090468  1
  O  O397  1  0.37993330  0.99842076  0.49290026  1
  O  O398  1  0.37844934  0.98511167  0.99528222  1
  O  O399  1  0.88667700  0.51214458  0.49030575  1
  O  O400  1  0.87977100  0.49252192  0.99549454  1
  O  O401  1  0.88601682  1.00996357  0.49395234  1
  O  O402  1  0.87717005  0.99464831  0.99240500  1
  O  O403  1  0.11670993  0.00243917  0.00335275  1
  O  O404  1  0.11785782  0.00425217  0.50899991  1
  O  O405  1  0.11475725  0.50191141  0.00630068  1
  O  O406  1  0.11584960  0.50890280  0.50610120  1
  O  O407  1  0.62372793  0.00728023  0.00985760  1
  O  O408  1  0.61617086  -0.00497410  0.50921653  1
  O  O409  1  0.63212422  0.48362580  0.01483121  1
  O  O410  1  0.61645041  0.50279988  0.51841326  1
  O  O411  1  0.37267196  0.37090615  0.11343388  1
  O  O412  1  0.36140690  0.36748798  0.66688055  1
  O  O413  1  0.36572621  0.87548430  0.11530029  1
  O  O414  1  0.37614101  0.86919540  0.61327136  1
  O  O415  1  0.86688572  0.36770050  0.11979721  1
  O  O416  1  0.88812170  0.36141439  0.63547237  1
  O  O417  1  0.86067323  0.87453634  0.12046372  1
  O  O418  1  0.86791931  0.86752712  0.62933872  1
  O  O419  1  0.12755962  0.12689945  0.37829626  1
  O  O420  1  0.13139544  0.13033826  0.88103931  1
  O  O421  1  0.12928564  0.62259053  0.38432937  1
  O  O422  1  0.13220081  0.62866126  0.87796996  1
  O  O423  1  0.63919771  0.12246002  0.37290681  1
  O  O424  1  0.62077328  0.11801954  0.89161535  1
  O  O425  1  0.62755239  0.63740254  0.37175234  1
  O  O426  1  0.63002855  0.64218061  0.86746138  1
