# generated using pymatgen
data_V85Zn86O256
_symmetry_space_group_name_H-M   'P 1'
_cell_length_a   17.01401674
_cell_length_b   17.00838032
_cell_length_c   17.01373972
_cell_angle_alpha   90.10875323
_cell_angle_beta   90.01066070
_cell_angle_gamma   90.01409758
_symmetry_Int_Tables_number   1
_chemical_formula_structural   V85Zn86O256
_chemical_formula_sum   'V85 Zn86 O256'
_cell_volume   4923.44165422
_cell_formula_units_Z   1
loop_
 _symmetry_equiv_pos_site_id
 _symmetry_equiv_pos_as_xyz
  1  'x, y, z'
loop_
 _atom_site_type_symbol
 _atom_site_label
 _atom_site_symmetry_multiplicity
 _atom_site_fract_x
 _atom_site_fract_y
 _atom_site_fract_z
 _atom_site_occupancy
  V  V0  1  0.24435156  0.12378546  0.37575851  1
  V  V1  1  0.62402206  0.24916695  0.87457053  1
  V  V2  1  0.37474123  0.12446901  0.25192780  1
  V  V3  1  0.25945723  0.37067532  0.62717002  1
  V  V4  1  0.75095062  0.87461797  0.62567405  1
  V  V5  1  0.24118033  -0.00028764  0.24271422  1
  V  V6  1  0.25189902  0.12519749  0.87363123  1
  V  V7  1  0.87979153  0.24507523  0.63908052  1
  V  V8  1  0.12546242  0.12253189  0.01284285  1
  V  V9  1  0.74784183  0.51517381  0.25541922  1
  V  V10  1  0.37715633  0.37565789  0.00042208  1
  V  V11  1  0.25153855  -0.00208650  0.74839991  1
  V  V12  1  0.62637843  0.00011719  0.62454025  1
  V  V13  1  0.37203232  0.62772092  0.25744878  1
  V  V14  1  0.37645591  -0.00109399  0.87321132  1
  V  V15  1  0.75388304  0.62558864  0.87487688  1
  V  V16  1  0.75781819  0.12471273  0.87471339  1
  V  V17  1  0.75142414  0.37323049  0.62745298  1
  V  V18  1  0.12799042  0.75423553  0.35237997  1
  V  V19  1  0.62574507  0.87545711  0.74991383  1
  V  V20  1  0.00111095  0.62099137  0.61821619  1
  V  V21  1  0.11989202  0.26432012  0.37542441  1
  V  V22  1  0.24831273  0.50536190  0.25022213  1
  V  V23  1  0.25083265  0.49766239  0.74865836  1
  V  V24  1  0.37625227  0.13110703  0.74402297  1
  V  V25  1  0.25093681  0.87094840  0.62284660  1
  V  V26  1  0.37772894  0.48827501  0.37547402  1
  V  V27  1  0.00420653  0.87286642  0.87565643  1
  V  V28  1  0.00576406  0.74893706  0.75278325  1
  V  V29  1  0.88518920  0.88458803  0.49616383  1
  V  V30  1  0.76350515  0.12384175  0.37377220  1
  V  V31  1  0.11374861  0.49991276  0.12366949  1
  V  V32  1  0.24487264  0.87847292  0.12432490  1
  V  V33  1  0.74726946  0.74678499  0.48616259  1
  V  V34  1  0.49920319  0.87621004  0.37550517  1
  V  V35  1  0.75253444  0.25091849  0.00636285  1
  V  V36  1  0.49769945  0.62720168  0.12443197  1
  V  V37  1  0.11425251  0.25188689  0.86842218  1
  V  V38  1  0.37576541  0.49907102  0.87550947  1
  V  V39  1  0.62687431  0.37452544  0.75158073  1
  V  V40  1  0.75466182  0.50371548  0.75295616  1
  V  V41  1  0.49837177  0.12900963  0.62435387  1
  V  V42  1  0.88602256  0.74991533  0.12855403  1
  V  V43  1  0.62377294  0.62592317  -0.00011669  1
  V  V44  1  0.62673101  0.12230129  0.49932335  1
  V  V45  1  0.50129848  0.75321995  0.24976345  1
  V  V46  1  0.61899441  0.25252287  0.37674628  1
  V  V47  1  0.88330182  0.37962691  0.49874199  1
  V  V48  1  0.11119742  0.61865351  -0.00292522  1
  V  V49  1  0.75709429  0.00465308  0.75170917  1
  V  V50  1  0.11927493  -0.00183973  0.62124483  1
  V  V51  1  0.37576388  0.74805692  0.62198516  1
  V  V52  1  0.25178257  0.25038796  -0.00151710  1
  V  V53  1  0.89015587  0.63390486  0.25224741  1
  V  V54  1  0.49907651  0.87537877  0.87479103  1
  V  V55  1  0.11653323  0.12307052  0.50246795  1
  V  V56  1  0.25634745  0.24844985  0.50636972  1
  V  V57  1  0.24955226  0.37893045  0.12978416  1
  V  V58  1  0.74674904  0.87680147  0.12534450  1
  V  V59  1  0.61638875  0.37585607  0.25628486  1
  V  V60  1  0.50090080  0.74985140  0.74813942  1
  V  V61  1  0.62459644  0.75111316  0.87546723  1
  V  V62  1  0.50254001  0.62042446  0.62112912  1
  V  V63  1  0.50232768  0.50157888  0.00043843  1
  V  V64  1  0.50438863  0.37591961  0.87656853  1
  V  V65  1  0.87386079  0.88000712  -0.00203975  1
  V  V66  1  0.24559697  0.74745942  -0.00399152  1
  V  V67  1  0.12307580  0.49552846  0.62019562  1
  V  V68  1  0.61919085  0.12272353  0.00239475  1
  V  V69  1  0.37807356  0.24998234  0.12701352  1
  V  V70  1  0.62503546  0.50094781  0.62296123  1
  V  V71  1  0.37288116  0.87402773  -0.00259947  1
  V  V72  1  0.62338603  0.87687870  0.25622400  1
  V  V73  1  0.75320997  0.37014906  0.12615039  1
  V  V74  1  0.62259206  0.50137009  0.12624953  1
  V  V75  1  0.24554281  0.62497480  0.87529163  1
  V  V76  1  -0.02120323  0.12797041  0.13320478  1
  V  V77  1  0.37499649  0.62418020  0.75005395  1
  V  V78  1  0.75270924  0.24832937  0.50176283  1
  V  V79  1  0.12605899  0.87246922  0.75122985  1
  V  V80  1  0.87476801  0.74826381  0.62487953  1
  V  V81  1  0.75929916  0.00544027  0.25638162  1
  V  V82  1  0.37094562  0.87177355  0.49913091  1
  V  V83  1  -0.00104327  0.12630486  0.64395358  1
  V  V84  1  0.13093428  0.62885255  0.49176518  1
  Zn  Zn85  1  0.87918402  0.51748059  0.38357273  1
  Zn  Zn86  1  0.49664186  0.25303803  0.74550488  1
  Zn  Zn87  1  0.37221322  0.74969514  0.12509224  1
  Zn  Zn88  1  0.88039469  0.62240994  0.75618019  1
  Zn  Zn89  1  0.49937545  0.12276089  0.12906198  1
  Zn  Zn90  1  0.04159029  0.43968662  0.43511348  1
  Zn  Zn91  1  -0.00787928  0.88099038  0.36064115  1
  Zn  Zn92  1  0.49403655  0.25502327  0.25966228  1
  Zn  Zn93  1  0.61898342  0.00221016  0.12792179  1
  Zn  Zn94  1  0.36820910  -0.00310957  0.37690431  1
  Zn  Zn95  1  0.49737365  -0.00119767  0.00389282  1
  Zn  Zn96  1  0.38542002  0.36408392  0.49862196  1
  Zn  Zn97  1  0.74822714  0.75043311  0.00127487  1
  Zn  Zn98  1  0.26041925  0.73978103  0.48609599  1
  Zn  Zn99  1  0.00608031  -0.00009094  0.00330914  1
  Zn  Zn100  1  0.88150171  0.00771496  0.87076664  1
  Zn  Zn101  1  0.00391868  0.24372017  0.25452131  1
  Zn  Zn102  1  0.64323992  0.61993563  0.48045585  1
  Zn  Zn103  1  0.11988617  0.37252192  0.75431925  1
  Zn  Zn104  1  0.10504675  0.88512830  0.23242483  1
  Zn  Zn105  1  0.49917136  -0.00213034  0.50006380  1
  Zn  Zn106  1  0.51552007  0.48903743  0.48237752  1
  Zn  Zn107  1  0.18764193  0.19494500  0.19319342  1
  Zn  Zn108  1  0.18718235  0.18629591  0.68904893  1
  Zn  Zn109  1  0.18844244  0.68190406  0.17618932  1
  Zn  Zn110  1  0.18789364  0.68504158  0.68283189  1
  Zn  Zn111  1  0.68524169  0.18776759  0.19130010  1
  Zn  Zn112  1  0.68847635  0.18660038  0.68808394  1
  Zn  Zn113  1  0.68504817  0.69339332  0.18715878  1
  Zn  Zn114  1  0.68717229  0.68728150  0.68549316  1
  Zn  Zn115  1  0.30391292  0.31146596  0.31246249  1
  Zn  Zn116  1  0.31031344  0.31267626  0.81295567  1
  Zn  Zn117  1  0.30733916  0.81108328  0.31327547  1
  Zn  Zn118  1  0.31195138  0.80906085  0.81100017  1
  Zn  Zn119  1  0.80459853  0.31888909  0.31641960  1
  Zn  Zn120  1  0.82316036  0.31582831  0.81851827  1
  Zn  Zn121  1  0.81536865  0.81610560  0.31192050  1
  Zn  Zn122  1  0.81417176  0.81207420  0.81180178  1
  Zn  Zn123  1  0.20789105  0.44294958  0.44368607  1
  Zn  Zn124  1  0.18344780  0.43525160  0.94080939  1
  Zn  Zn125  1  0.14892337  0.95491780  0.41244002  1
  Zn  Zn126  1  0.18766034  0.93937615  0.93666524  1
  Zn  Zn127  1  0.69864352  0.43599140  0.43648886  1
  Zn  Zn128  1  0.73073251  0.42460350  0.92718335  1
  Zn  Zn129  1  0.69234825  0.93507525  0.43876108  1
  Zn  Zn130  1  0.68662470  0.94039825  0.93688976  1
  Zn  Zn131  1  0.31179477  0.06194077  0.06151536  1
  Zn  Zn132  1  0.31068675  0.05821154  0.56171426  1
  Zn  Zn133  1  0.31340566  0.56383554  0.06337467  1
  Zn  Zn134  1  0.31331252  0.56075901  0.56198047  1
  Zn  Zn135  1  0.80841282  0.06327532  0.06223626  1
  Zn  Zn136  1  0.81569292  0.06500455  0.56454718  1
  Zn  Zn137  1  0.81056387  0.56302155  0.06468426  1
  Zn  Zn138  1  0.81265112  0.56360988  0.56432885  1
  Zn  Zn139  1  0.43650017  0.43975996  0.18920811  1
  Zn  Zn140  1  0.44053087  0.43585750  0.68849329  1
  Zn  Zn141  1  0.43076016  0.93957975  0.18452036  1
  Zn  Zn142  1  0.43875326  0.93975825  0.68582934  1
  Zn  Zn143  1  0.92603653  0.44390003  0.18395038  1
  Zn  Zn144  1  0.93539393  0.43776299  0.68492012  1
  Zn  Zn145  1  0.93765232  0.94556283  0.18033039  1
  Zn  Zn146  1  0.93883748  0.93582000  0.68481362  1
  Zn  Zn147  1  0.04365669  0.05427458  0.30735038  1
  Zn  Zn148  1  0.06729184  0.05951937  0.81964572  1
  Zn  Zn149  1  0.06080510  0.56591692  0.30617718  1
  Zn  Zn150  1  0.06379556  0.55853868  0.80653229  1
  Zn  Zn151  1  0.56454141  0.06102059  0.31551848  1
  Zn  Zn152  1  0.56325796  0.06180166  0.81141345  1
  Zn  Zn153  1  0.56142913  0.56332026  0.31064815  1
  Zn  Zn154  1  0.56598408  0.56286817  0.81168901  1
  Zn  Zn155  1  0.43763895  0.18139571  0.43927592  1
  Zn  Zn156  1  0.43748082  0.18674990  0.93570529  1
  Zn  Zn157  1  0.46898788  0.67176643  0.42363488  1
  Zn  Zn158  1  0.43527891  0.68888736  0.93628001  1
  Zn  Zn159  1  0.93870725  0.19323162  0.44703978  1
  Zn  Zn160  1  0.95898387  0.24216228  0.97098264  1
  Zn  Zn161  1  0.94569553  0.69897396  0.43439040  1
  Zn  Zn162  1  0.93223893  0.69287611  0.93955729  1
  Zn  Zn163  1  0.06780913  0.31100495  0.07319183  1
  Zn  Zn164  1  0.06477041  0.30442556  0.56911288  1
  Zn  Zn165  1  0.06460208  0.80766876  0.05706271  1
  Zn  Zn166  1  0.06457790  0.80816058  0.56209432  1
  Zn  Zn167  1  0.56663475  0.31390942  0.06481255  1
  Zn  Zn168  1  0.56391288  0.31260635  0.56036284  1
  Zn  Zn169  1  0.56137567  0.81376754  0.06351763  1
  Zn  Zn170  1  0.56392438  0.81105821  0.56043548  1
  O  O171  1  0.14236132  0.12769059  0.11142058  1
  O  O172  1  0.11884065  0.11835386  0.62189342  1
  O  O173  1  0.12604898  0.61202491  0.10750662  1
  O  O174  1  0.12028975  0.61449536  0.61584837  1
  O  O175  1  0.62140242  0.12693846  0.11571915  1
  O  O176  1  0.61985575  0.11939230  0.61918959  1
  O  O177  1  0.61696062  0.62265160  0.12057973  1
  O  O178  1  0.61758311  0.61678308  0.62273371  1
  O  O179  1  0.36808581  0.38451544  0.37381079  1
  O  O180  1  0.38228182  0.37953358  0.88050005  1
  O  O181  1  0.37923686  0.87539560  0.38281438  1
  O  O182  1  0.37886453  0.87859264  0.87721004  1
  O  O183  1  0.87059168  0.36673962  0.40025242  1
  O  O184  1  0.83253432  0.38958287  0.89429035  1
  O  O185  1  0.87833368  0.86887394  0.39199856  1
  O  O186  1  0.88307980  0.87445526  0.88395593  1
  O  O187  1  0.24552521  0.01088365  0.36556153  1
  O  O188  1  0.25609437  0.00447490  0.86682903  1
  O  O189  1  0.25752293  0.49790461  0.35734447  1
  O  O190  1  0.25622449  0.50562670  0.87107272  1
  O  O191  1  0.74623462  0.00763732  0.36409497  1
  O  O192  1  0.75022839  0.00727737  0.86737405  1
  O  O193  1  0.76331090  0.49375239  0.36050186  1
  O  O194  1  0.73416645  0.51754783  0.86268296  1
  O  O195  1  0.24987847  0.49350718  0.13060678  1
  O  O196  1  0.24264328  0.49050074  0.62680116  1
  O  O197  1  0.25533806  0.98953211  0.12965688  1
  O  O198  1  0.24283962  0.99159775  0.63136436  1
  O  O199  1  0.73858496  0.49336691  0.13508884  1
  O  O200  1  0.74018158  0.49777654  0.63180707  1
  O  O201  1  0.74748298  0.99199206  0.13671648  1
  O  O202  1  0.74536470  0.99645129  0.63326720  1
  O  O203  1  -0.04799486  0.35666850  0.25695389  1
  O  O204  1  0.00334413  0.40629103  0.77602064  1
  O  O205  1  -0.00490850  0.87923175  0.24648150  1
  O  O206  1  0.00490854  0.86809388  0.75584128  1
  O  O207  1  0.51163212  0.37491485  0.24930205  1
  O  O208  1  0.50774435  0.37246673  0.75784811  1
  O  O209  1  0.50311319  0.87256765  0.25397445  1
  O  O210  1  0.50532360  0.86937501  0.75380938  1
  O  O211  1  0.48473975  0.12710264  0.25390805  1
  O  O212  1  0.49302533  0.12511425  0.74233920  1
  O  O213  1  0.49273187  0.63574009  0.24302109  1
  O  O214  1  0.49550937  0.62965184  0.74259144  1
  O  O215  1  0.99396747  0.12417730  0.23964814  1
  O  O216  1  1.00422000  0.11793353  0.74241336  1
  O  O217  1  0.98693392  0.62778284  0.23912506  1
  O  O218  1  1.00087308  0.63294570  0.74227975  1
  O  O219  1  0.37149381  0.25445759  0.00820941  1
  O  O220  1  0.36049177  0.24628091  0.49396634  1
  O  O221  1  0.36247303  0.75501535  -0.00155811  1
  O  O222  1  0.37902335  0.75641185  0.50521677  1
  O  O223  1  0.85003139  0.24369446  -0.00140373  1
  O  O224  1  0.87069709  0.25903169  0.51492604  1
  O  O225  1  0.86970413  0.76152144  0.01118454  1
  O  O226  1  0.86765934  0.75545520  0.50980383  1
  O  O227  1  0.13472749  0.24126299  0.49499764  1
  O  O228  1  0.13525699  0.23841149  0.99092003  1
  O  O229  1  0.13221181  0.73503053  0.50412496  1
  O  O230  1  0.13546423  0.73120596  1.00257223  1
  O  O231  1  0.63341589  0.24422297  0.49468858  1
  O  O232  1  0.62749725  0.24152339  0.99361035  1
  O  O233  1  0.64534500  0.75041452  0.50792771  1
  O  O234  1  0.62481545  0.74448667  0.99415851  1
  O  O235  1  0.48550822  0.25008676  0.12836488  1
  O  O236  1  0.50774734  0.23313880  0.62657683  1
  O  O237  1  0.49540678  0.74766264  0.13422879  1
  O  O238  1  0.49686645  0.73987175  0.62852531  1
  O  O239  1  1.01717502  0.22947655  0.13625619  1
  O  O240  1  0.99331300  0.23961939  0.62926951  1
  O  O241  1  0.98430270  0.75463772  0.12015110  1
  O  O242  1  0.99336137  0.74182658  0.63268737  1
  O  O243  1  0.01826232  0.24462396  0.37986530  1
  O  O244  1  0.01623675  0.23897106  0.87177600  1
  O  O245  1  0.02541528  0.76265482  0.38346654  1
  O  O246  1  -0.00665934  0.75954018  0.86292734  1
  O  O247  1  0.51441174  0.24444066  0.37945132  1
  O  O248  1  0.51022643  0.25629949  0.87513288  1
  O  O249  1  0.49180509  0.76712687  0.36019303  1
  O  O250  1  0.50409433  0.75502665  0.86744496  1
  O  O251  1  0.24358128  0.13019864  0.49543555  1
  O  O252  1  0.24656114  0.12998323  0.99295691  1
  O  O253  1  0.23466535  0.62200733  0.50365742  1
  O  O254  1  0.24830403  0.62951925  0.99103228  1
  O  O255  1  0.74618088  0.12844429  0.49337235  1
  O  O256  1  0.73672677  0.12971875  0.99527768  1
  O  O257  1  0.75576034  0.64022244  0.50071498  1
  O  O258  1  0.74166966  0.62699452  0.99247869  1
  O  O259  1  0.25900550  0.37168072  0.00916044  1
  O  O260  1  0.25740771  0.36508629  0.51062257  1
  O  O261  1  0.25093273  0.86615693  0.00136905  1
  O  O262  1  0.26337828  0.86804239  0.50650314  1
  O  O263  1  0.72625556  0.36423878  0.02168152  1
  O  O264  1  0.75868128  0.36746034  0.51043998  1
  O  O265  1  0.75562401  0.87713541  0.00811888  1
  O  O266  1  0.76021234  0.86446705  0.50617984  1
  O  O267  1  0.13651054  0.51514703  0.23194976  1
  O  O268  1  0.13575636  0.49952378  0.73556849  1
  O  O269  1  0.13971322  1.00347784  0.24602390  1
  O  O270  1  0.13286498  0.99291101  0.74210212  1
  O  O271  1  0.62897078  0.49517283  0.24887490  1
  O  O272  1  0.63315506  0.49559766  0.74141331  1
  O  O273  1  0.63121086  0.99090577  0.24812460  1
  O  O274  1  0.63368554  0.99353044  0.74504439  1
  O  O275  1  0.36276479  0.01122881  0.25214234  1
  O  O276  1  0.37026869  0.00681538  0.75419076  1
  O  O277  1  0.36900765  0.50640363  0.25674945  1
  O  O278  1  0.37024336  0.50479496  0.75596032  1
  O  O279  1  0.85672619  -0.00365315  0.24933635  1
  O  O280  1  0.86092865  -0.00737569  0.75041204  1
  O  O281  1  0.86369600  0.52577304  0.23984781  1
  O  O282  1  0.85760852  0.50541717  0.73916657  1
  O  O283  1  0.12736853  0.36599137  0.39349382  1
  O  O284  1  0.13255338  0.35597450  0.87767884  1
  O  O285  1  0.13868280  0.85904734  0.34799070  1
  O  O286  1  0.11323946  0.87933772  0.86854840  1
  O  O287  1  0.63548402  0.36429143  0.36810507  1
  O  O288  1  0.62418132  0.36544515  0.87163631  1
  O  O289  1  0.61492296  0.88107957  0.36547351  1
  O  O290  1  0.61950167  0.87034686  0.86999013  1
  O  O291  1  0.37002114  0.13526863  0.13455982  1
  O  O292  1  0.38474340  0.11553201  0.63338692  1
  O  O293  1  0.38241923  0.62556972  0.13376964  1
  O  O294  1  0.38013911  0.62609584  0.63272132  1
  O  O295  1  0.88045948  0.13315015  0.11909033  1
  O  O296  1  0.88767893  0.13312639  0.62032972  1
  O  O297  1  0.86393850  0.64669334  0.13128851  1
  O  O298  1  0.88470527  0.63267607  0.62581251  1
  O  O299  1  0.25876301  0.26039484  0.12220069  1
  O  O300  1  0.24124109  0.25841253  0.61675102  1
  O  O301  1  0.25242692  0.75594973  0.11214897  1
  O  O302  1  0.25995164  0.75413246  0.62458424  1
  O  O303  1  0.74205746  0.26199702  0.12397085  1
  O  O304  1  0.75686019  0.25199043  0.62088634  1
  O  O305  1  0.75293305  0.76672304  0.12528420  1
  O  O306  1  0.76140205  0.75495825  0.62566111  1
  O  O307  1  0.23921615  0.24451711  0.38445047  1
  O  O308  1  0.25049423  0.24221717  0.88196534  1
  O  O309  1  0.23517514  0.74405691  0.37345841  1
  O  O310  1  0.25244574  0.73592741  0.88106775  1
  O  O311  1  0.74116441  0.24168871  0.37967074  1
  O  O312  1  0.73624319  0.24180962  0.88363807  1
  O  O313  1  0.75152642  0.75638616  0.38793399  1
  O  O314  1  0.74197156  0.74389687  0.87496197  1
  O  O315  1  0.01683051  0.13473601  0.01441348  1
  O  O316  1  0.01454162  0.12863001  0.50879500  1
  O  O317  1  0.01359555  0.62798028  -0.01264277  1
  O  O318  1  0.01067778  0.63126827  0.51219979  1
  O  O319  1  0.50809095  0.12423996  0.00154415  1
  O  O320  1  0.50629232  0.11935044  0.50771003  1
  O  O321  1  0.50267262  0.62171279  0.00419352  1
  O  O322  1  0.48731081  0.60806196  0.52024375  1
  O  O323  1  0.49311717  0.38445178  0.51590280  1
  O  O324  1  0.49668748  0.38104826  0.99614443  1
  O  O325  1  0.49315561  0.87325040  0.49169065  1
  O  O326  1  0.49156160  0.87375003  0.99200974  1
  O  O327  1  0.98834044  0.37196791  0.51061718  1
  O  O328  1  0.99239951  0.34413442  1.00246036  1
  O  O329  1  0.98516515  0.86987939  0.50873579  1
  O  O330  1  0.99413862  0.87426095  0.99189614  1
  O  O331  1  0.48127282  0.49544007  0.36984870  1
  O  O332  1  0.49643711  0.49558490  0.87972227  1
  O  O333  1  0.49382991  0.98831542  0.37569008  1
  O  O334  1  0.49396343  0.99195405  0.87497596  1
  O  O335  1  0.98928572  0.49880446  0.36064005  1
  O  O336  1  0.99896118  0.46505895  0.83349080  1
  O  O337  1  1.03955664  0.98208313  0.38738610  1
  O  O338  1  0.99660883  0.98906368  0.87895913  1
  O  O339  1  -0.00391107  0.02185327  0.11786359  1
  O  O340  1  0.01346854  0.00591103  0.63034668  1
  O  O341  1  0.01693812  0.48966255  0.13328846  1
  O  O342  1  0.01089825  0.50965326  0.63095464  1
  O  O343  1  0.49980626  0.00481427  0.12175766  1
  O  O344  1  0.50952345  0.00885330  0.62478625  1
  O  O345  1  0.50352552  0.50684210  0.12078314  1
  O  O346  1  0.51474161  0.50662703  0.63527947  1
  O  O347  1  0.25481963  0.38596762  0.23689498  1
  O  O348  1  0.24797504  0.38024081  0.74313121  1
  O  O349  1  0.25591914  0.88477953  0.23690357  1
  O  O350  1  0.24582971  0.87690378  0.74390765  1
  O  O351  1  0.73805947  0.38222449  0.24062911  1
  O  O352  1  0.74390268  0.38496787  0.74438343  1
  O  O353  1  0.74217021  0.88436372  0.24735747  1
  O  O354  1  0.74447766  0.88211059  0.74610938  1
  O  O355  1  0.25530991  0.12197596  0.25712448  1
  O  O356  1  0.25885574  0.11828649  0.75185920  1
  O  O357  1  0.26275461  0.61616686  0.23789833  1
  O  O358  1  0.25353179  0.61974113  0.75716656  1
  O  O359  1  0.74437736  0.11253707  0.25723435  1
  O  O360  1  0.74103072  0.11375812  0.76057139  1
  O  O361  1  0.74289526  0.61795027  0.24913696  1
  O  O362  1  0.74922674  0.62053527  0.75713619  1
  O  O363  1  0.36106796  0.12526416  0.36883605  1
  O  O364  1  0.37210031  0.11859987  0.86567183  1
  O  O365  1  0.38110877  0.61725568  0.36113219  1
  O  O366  1  0.36696347  0.61856832  0.86940159  1
  O  O367  1  0.86223684  0.13525828  0.38142535  1
  O  O368  1  0.85669193  0.12491423  0.88232905  1
  O  O369  1  0.88232044  0.63711596  0.35749938  1
  O  O370  1  0.85893716  0.63307963  0.87401248  1
  O  O371  1  0.13910035  0.38959651  0.11780544  1
  O  O372  1  0.13081833  0.38260270  0.62724706  1
  O  O373  1  0.13919874  0.86687507  0.12232959  1
  O  O374  1  0.12960232  0.88098880  0.62889323  1
  O  O375  1  0.62492410  0.38261633  0.13883431  1
  O  O376  1  0.63167384  0.38193905  0.63104846  1
  O  O377  1  0.63206462  0.87775263  0.13369280  1
  O  O378  1  0.63049832  0.87990392  0.63048424  1
  O  O379  1  0.12855100  0.25496854  0.27142888  1
  O  O380  1  0.13016795  0.25133749  0.76363683  1
  O  O381  1  0.12395785  0.73387943  0.25396091  1
  O  O382  1  0.11344090  0.75537784  0.74002839  1
  O  O383  1  0.62129176  0.25775165  0.26017510  1
  O  O384  1  0.62542677  0.25473841  0.76055346  1
  O  O385  1  0.61220603  0.76409409  0.24484421  1
  O  O386  1  0.61952410  0.75610330  0.75379546  1
  O  O387  1  0.37177041  0.24294823  0.24488207  1
  O  O388  1  0.37634545  0.23536375  0.75408605  1
  O  O389  1  0.38150229  0.74388829  0.24791491  1
  O  O390  1  0.38184364  0.74379480  0.74318427  1
  O  O391  1  0.89395891  0.29193054  0.24826695  1
  O  O392  1  0.86675914  0.25452452  0.73809798  1
  O  O393  1  0.86986941  0.74588650  0.23846630  1
  O  O394  1  0.88556397  0.75000345  0.73959411  1
  O  O395  1  0.36335729  0.50023710  0.47821168  1
  O  O396  1  0.38238348  0.49552648  0.99510791  1
  O  O397  1  0.37689143  0.98643228  0.49878855  1
  O  O398  1  0.37314826  0.99260172  0.98996135  1
  O  O399  1  0.86963689  0.48473573  0.50275197  1
  O  O400  1  0.89052501  0.50048545  1.02373193  1
  O  O401  1  0.86977761  0.98266283  0.50771580  1
  O  O402  1  0.87544397  0.98780260  0.99914681  1
  O  O403  1  0.12568478  0.01903194  -0.00736856  1
  O  O404  1  0.13778212  0.01058462  0.51563759  1
  O  O405  1  0.12648315  0.50856617  0.00956542  1
  O  O406  1  0.12511382  0.50579849  0.50386015  1
  O  O407  1  0.62236014  0.01128838  0.00176382  1
  O  O408  1  0.62673055  0.00417326  0.50692280  1
  O  O409  1  0.61691865  0.50919105  0.00858047  1
  O  O410  1  0.63189678  0.50106951  0.50961744  1
  O  O411  1  0.37025959  0.36886971  0.12082973  1
  O  O412  1  0.36166468  0.37978795  0.62715534  1
  O  O413  1  0.36357511  0.87195702  0.11464089  1
  O  O414  1  0.37325014  0.86882539  0.61844072  1
  O  O415  1  0.84995727  0.38349699  0.12106268  1
  O  O416  1  0.87119788  0.36663806  0.62091888  1
  O  O417  1  0.86636927  0.86919675  0.11760876  1
  O  O418  1  0.87128639  0.86535922  0.61903220  1
  O  O419  1  0.13502437  0.13266942  0.38483486  1
  O  O420  1  0.13428489  0.13393346  0.88107377  1
  O  O421  1  0.11714930  0.63129031  0.38844835  1
  O  O422  1  0.13521644  0.61003246  0.88560914  1
  O  O423  1  0.63308391  0.13243927  0.38093715  1
  O  O424  1  0.62673959  0.13224535  0.88289624  1
  O  O425  1  0.57689909  0.63305893  0.39404309  1
  O  O426  1  0.62900085  0.63373593  0.87999479  1
