# generated using pymatgen
data_V85Zn86O256
_symmetry_space_group_name_H-M   'P 1'
_cell_length_a   16.94698419
_cell_length_b   16.95774503
_cell_length_c   16.94968217
_cell_angle_alpha   90.03980008
_cell_angle_beta   89.92205946
_cell_angle_gamma   89.94421196
_symmetry_Int_Tables_number   1
_chemical_formula_structural   V85Zn86O256
_chemical_formula_sum   'V85 Zn86 O256'
_cell_volume   4871.03635938
_cell_formula_units_Z   1
loop_
 _symmetry_equiv_pos_site_id
 _symmetry_equiv_pos_as_xyz
  1  'x, y, z'
loop_
 _atom_site_type_symbol
 _atom_site_label
 _atom_site_symmetry_multiplicity
 _atom_site_fract_x
 _atom_site_fract_y
 _atom_site_fract_z
 _atom_site_occupancy
  V  V0  1  0.62375370  0.37262632  0.25505042  1
  V  V1  1  0.25546520  0.49504379  0.25158400  1
  V  V2  1  0.13029670  0.12862113  -0.01160770  1
  V  V3  1  0.00388109  0.87284308  0.36963508  1
  V  V4  1  0.25000324  0.87447110  0.62160321  1
  V  V5  1  0.62194970  0.86972354  0.25081272  1
  V  V6  1  0.61102740  0.75113599  0.88289337  1
  V  V7  1  0.37785844  0.87636234  -0.01185145  1
  V  V8  1  0.49996151  0.12898714  0.62733751  1
  V  V9  1  0.37917327  0.01068819  0.86895802  1
  V  V10  1  0.62266316  0.51242523  0.12556123  1
  V  V11  1  0.12112315  -0.00131368  0.62329294  1
  V  V12  1  0.74534736  0.12823367  0.89060498  1
  V  V13  1  0.24972026  -0.01207471  0.26042019  1
  V  V14  1  0.36427864  0.12126193  0.26049234  1
  V  V15  1  0.12522206  0.87330677  0.74804457  1
  V  V16  1  0.87002369  0.74843743  0.62166669  1
  V  V17  1  0.13147435  0.75002852  0.87335807  1
  V  V18  1  0.50247259  0.12356779  0.11916097  1
  V  V19  1  -0.00052971  0.49172833  0.49577783  1
  V  V20  1  0.25608291  0.75023219  0.49832655  1
  V  V21  1  0.75742810  0.12396337  0.36919026  1
  V  V22  1  0.49378041  0.50862186  0.49857819  1
  V  V23  1  0.13110727  0.62419186  0.00141355  1
  V  V24  1  0.37784915  0.25681561  0.62025146  1
  V  V25  1  0.87249660  -0.00076995  0.87587873  1
  V  V26  1  0.75228999  0.63137295  0.37852545  1
  V  V27  1  0.62462717  0.37401272  0.75085310  1
  V  V28  1  0.87712337  0.62561111  0.24403461  1
  V  V29  1  0.12376729  0.49651537  0.62610540  1
  V  V30  1  0.62447281  0.00169240  0.11923436  1
  V  V31  1  -0.00141426  0.74823972  0.24429756  1
  V  V32  1  0.87243003  0.25220596  0.62560377  1
  V  V33  1  -0.00419766  0.12403623  0.62240434  1
  V  V34  1  0.62893544  0.24918542  0.89533006  1
  V  V35  1  0.50079106  0.37639650  0.87964934  1
  V  V36  1  0.75254053  0.86922393  0.12663835  1
  V  V37  1  0.87051114  0.87254366  0.49624067  1
  V  V38  1  0.87102792  0.24808028  0.12403986  1
  V  V39  1  0.00102226  0.87438610  0.87385272  1
  V  V40  1  0.50293692  0.51210186  0.00685321  1
  V  V41  1  -0.00191825  -0.00105978  0.49651908  1
  V  V42  1  0.12388010  0.36519250  0.75350738  1
  V  V43  1  0.36526018  0.24904913  0.12649541  1
  V  V44  1  0.49911503  0.87196010  0.37313038  1
  V  V45  1  0.87626400  0.86706260  0.00413963  1
  V  V46  1  0.13096407  0.49449027  0.12507913  1
  V  V47  1  0.25115011  0.24903100  0.49470802  1
  V  V48  1  0.62338200  0.13030907  0.49020774  1
  V  V49  1  0.24880618  0.50052149  0.75531179  1
  V  V50  1  0.74762127  0.00062666  0.74911668  1
  V  V51  1  0.00043315  0.62529505  0.62631930  1
  V  V52  1  0.12806607  0.12496115  0.49386225  1
  V  V53  1  0.62401493  0.00076089  0.62367575  1
  V  V54  1  0.74642269  0.87221816  0.62269073  1
  V  V55  1  0.00323211  0.36476905  0.87617221  1
  V  V56  1  0.12632131  0.75001163  0.36687730  1
  V  V57  1  0.36991129  0.37452854  0.00715016  1
  V  V58  1  0.49420736  0.74979932  0.72487710  1
  V  V59  1  0.87911803  0.49254152  0.37447972  1
  V  V60  1  0.13753967  -0.00954558  0.12574864  1
  V  V61  1  0.86818035  0.36972360  0.00180564  1
  V  V62  1  0.38773674  0.62386169  0.24382103  1
  V  V63  1  0.00299045  -0.00075054  0.00093632  1
  V  V64  1  0.61976385  0.50801878  0.62680156  1
  V  V65  1  0.63039953  0.63187192  0.50137342  1
  V  V66  1  0.12283475  0.25219100  0.37370378  1
  V  V67  1  0.49320574  0.37750557  0.37702141  1
  V  V68  1  -0.00316049  0.24960509  0.25187057  1
  V  V69  1  0.74947531  0.74337102  -0.00174597  1
  V  V70  1  0.12565925  0.37287462  0.24811735  1
  V  V71  1  0.87616429  0.50157450  0.87522785  1
  V  V72  1  0.12624289  0.62327226  0.49871094  1
  V  V73  1  0.00226354  0.49768591  0.00180507  1
  V  V74  1  0.74482738  0.25299743  0.49531513  1
  V  V75  1  0.49242929  0.00453764  0.49290287  1
  V  V76  1  0.38251991  0.76032609  0.13297721  1
  V  V77  1  0.75043132  0.49728124  0.24879262  1
  V  V78  1  0.50247709  0.24690151  0.25655785  1
  V  V79  1  0.87105067  0.12497078  0.74967338  1
  V  V80  1  0.25800948  0.61835040  0.37434739  1
  V  V81  1  0.74988601  0.50326389  0.75084764  1
  V  V82  1  0.37268291  0.88297965  0.49642170  1
  V  V83  1  0.24951420  0.24579652  -0.01647469  1
  V  V84  1  -0.00057467  0.12352353  0.12923185  1
  Zn  Zn85  1  0.74212894  0.36816786  0.12058927  1
  Zn  Zn86  1  0.88160089  0.00442367  0.36291601  1
  Zn  Zn87  1  0.62634515  0.75088785  0.37600396  1
  Zn  Zn88  1  0.00382552  0.24408276  0.75363816  1
  Zn  Zn89  1  0.24297887  0.76965575  0.01966648  1
  Zn  Zn90  1  0.74270617  0.62341139  0.88243793  1
  Zn  Zn91  1  0.38295437  0.62822985  0.74546656  1
  Zn  Zn92  1  0.75603451  0.00167984  0.24679195  1
  Zn  Zn93  1  0.50684833  -0.00305134  -0.00871233  1
  Zn  Zn94  1  0.87522256  0.37308891  0.49676139  1
  Zn  Zn95  1  0.36707011  0.38785074  0.49342298  1
  Zn  Zn96  1  0.49954354  0.25108227  0.75227929  1
  Zn  Zn97  1  0.61488466  0.87981645  0.76017636  1
  Zn  Zn98  1  0.87411048  0.62835068  0.75194761  1
  Zn  Zn99  1  0.36174538  0.13799647  0.75785544  1
  Zn  Zn100  1  0.74909156  0.37743605  0.62090537  1
  Zn  Zn101  1  0.25615494  0.62650943  0.87917071  1
  Zn  Zn102  1  0.24856374  0.37539183  0.62360556  1
  Zn  Zn103  1  0.24499849  0.00655240  0.75904728  1
  Zn  Zn104  1  0.37675653  0.50473840  0.87643418  1
  Zn  Zn105  1  -0.00017875  0.62675222  0.12424381  1
  Zn  Zn106  1  0.00219165  0.74850877  0.74912610  1
  Zn  Zn107  1  0.18446238  0.18204742  0.18211902  1
  Zn  Zn108  1  0.18970343  0.18614623  0.68240358  1
  Zn  Zn109  1  0.19431520  0.68389577  0.18654891  1
  Zn  Zn110  1  0.20942749  0.67855121  0.68072684  1
  Zn  Zn111  1  0.68467757  0.18760968  0.18534498  1
  Zn  Zn112  1  0.68710359  0.18767201  0.68751270  1
  Zn  Zn113  1  0.68981903  0.68973395  0.19081978  1
  Zn  Zn114  1  0.68176749  0.69071570  0.69491667  1
  Zn  Zn115  1  0.31165477  0.31055061  0.31286964  1
  Zn  Zn116  1  0.31542921  0.31888958  0.81072586  1
  Zn  Zn117  1  0.31761831  0.80901380  0.31282363  1
  Zn  Zn118  1  0.31515518  0.81729314  0.80944077  1
  Zn  Zn119  1  0.81096658  0.30951641  0.31055845  1
  Zn  Zn120  1  0.80997087  0.31158895  0.81535869  1
  Zn  Zn121  1  0.81515755  0.81269033  0.30878411  1
  Zn  Zn122  1  0.80984629  0.81150883  0.81128206  1
  Zn  Zn123  1  0.18425201  0.43438391  0.43458791  1
  Zn  Zn124  1  0.18860205  0.43212250  0.93720944  1
  Zn  Zn125  1  0.18552265  0.93853900  0.43476952  1
  Zn  Zn126  1  0.19523902  0.94125204  0.93803258  1
  Zn  Zn127  1  0.68540479  0.44199624  0.43568446  1
  Zn  Zn128  1  0.68539172  0.43998019  0.93913136  1
  Zn  Zn129  1  0.68510496  0.94202848  0.43754072  1
  Zn  Zn130  1  0.68888237  0.93311445  0.93721103  1
  Zn  Zn131  1  0.31569744  0.06336669  0.06026161  1
  Zn  Zn132  1  0.30645840  0.06911970  0.57928953  1
  Zn  Zn133  1  0.31515666  0.56377197  0.06770737  1
  Zn  Zn134  1  0.31365633  0.56842377  0.57409542  1
  Zn  Zn135  1  0.81612014  0.05696642  0.06711901  1
  Zn  Zn136  1  0.81091834  0.06131028  0.55750502  1
  Zn  Zn137  1  0.81124440  0.55649436  0.06492435  1
  Zn  Zn138  1  0.81200639  0.56103870  0.56280340  1
  Zn  Zn139  1  0.43829040  0.43745787  0.18754073  1
  Zn  Zn140  1  0.43695216  0.44074182  0.68674703  1
  Zn  Zn141  1  0.43716066  0.94103746  0.18905396  1
  Zn  Zn142  1  0.43680081  0.93539876  0.68447198  1
  Zn  Zn143  1  0.94096261  0.43474954  0.18711165  1
  Zn  Zn144  1  0.93926874  0.43480107  0.68848840  1
  Zn  Zn145  1  0.93854051  0.93878943  0.18797939  1
  Zn  Zn146  1  0.93562391  0.93570564  0.68739997  1
  Zn  Zn147  1  0.06755994  0.06145290  0.30994642  1
  Zn  Zn148  1  0.05925019  0.06028980  0.80953456  1
  Zn  Zn149  1  0.06493822  0.56240490  0.31254094  1
  Zn  Zn150  1  0.06666457  0.55975663  0.81329734  1
  Zn  Zn151  1  0.56428475  0.05851045  0.30660538  1
  Zn  Zn152  1  0.56324479  0.06549013  0.81426895  1
  Zn  Zn153  1  0.56676353  0.55883901  0.31811352  1
  Zn  Zn154  1  0.55999394  0.57204565  0.81601787  1
  Zn  Zn155  1  0.43589580  0.18923872  0.43644690  1
  Zn  Zn156  1  0.44001933  0.19025147  0.93842408  1
  Zn  Zn157  1  0.43841374  0.68897308  0.43683813  1
  Zn  Zn158  1  0.42811351  0.68980644  0.93881193  1
  Zn  Zn159  1  0.93723444  0.19057750  0.43730495  1
  Zn  Zn160  1  0.93568434  0.18281713  0.94157137  1
  Zn  Zn161  1  0.93718896  0.68471980  0.43646723  1
  Zn  Zn162  1  0.94327517  0.68630807  0.93869637  1
  Zn  Zn163  1  0.06474328  0.30992164  0.06241980  1
  Zn  Zn164  1  0.06203272  0.31041760  0.56496094  1
  Zn  Zn165  1  0.06374048  0.81235555  0.06215238  1
  Zn  Zn166  1  0.06259941  0.80946202  0.55798153  1
  Zn  Zn167  1  0.55490426  0.31766282  0.07187998  1
  Zn  Zn168  1  0.56348267  0.31899147  0.56102061  1
  Zn  Zn169  1  0.55950124  0.81022106  0.06399897  1
  Zn  Zn170  1  0.55923520  0.81437814  0.56022998  1
  O  O171  1  0.11558546  0.11731141  0.11438639  1
  O  O172  1  0.11466271  0.12021522  0.61340733  1
  O  O173  1  0.12439788  0.61477814  0.11747741  1
  O  O174  1  0.11812766  0.61836009  0.61845869  1
  O  O175  1  0.61622520  0.11354507  0.13337528  1
  O  O176  1  0.61731898  0.12239387  0.61512698  1
  O  O177  1  0.62826462  0.61163489  0.13417982  1
  O  O178  1  0.63452411  0.61493511  0.61786994  1
  O  O179  1  0.38709922  0.37420782  0.37526140  1
  O  O180  1  0.38755087  0.37640631  0.88475694  1
  O  O181  1  0.38292512  0.87388180  0.38691421  1
  O  O182  1  0.37953433  0.88091656  0.88504355  1
  O  O183  1  0.87077023  0.38880810  0.37406209  1
  O  O184  1  0.88079958  0.38243138  0.88164389  1
  O  O185  1  0.88379452  0.87144921  0.38364040  1
  O  O186  1  0.87912248  0.88006878  0.88204552  1
  O  O187  1  0.23819700  0.00452445  0.35898842  1
  O  O188  1  0.27000870  -0.00221305  0.87218410  1
  O  O189  1  0.24443075  0.50849408  0.36684714  1
  O  O190  1  0.25471914  0.49399392  0.86785988  1
  O  O191  1  0.75150039  0.01540174  0.37693305  1
  O  O192  1  0.75222614  0.00704357  0.86968429  1
  O  O193  1  0.75817003  0.50829585  0.36844062  1
  O  O194  1  0.75771699  0.50230522  0.87043994  1
  O  O195  1  0.23975087  0.50405637  0.13669788  1
  O  O196  1  0.23955269  0.49506179  0.63465090  1
  O  O197  1  0.24035371  1.00515610  0.13000331  1
  O  O198  1  0.23693599  0.98302423  0.61178945  1
  O  O199  1  0.74086304  0.49306301  0.13122636  1
  O  O200  1  0.74269293  0.49746522  0.63436019  1
  O  O201  1  0.74233757  0.98826440  0.12347751  1
  O  O202  1  0.74499831  0.99378041  0.62824324  1
  O  O203  1  0.01423236  0.36284626  0.24449768  1
  O  O204  1  0.00615818  0.37051027  0.75865054  1
  O  O205  1  -0.00706857  0.86329175  0.26159855  1
  O  O206  1  0.00658774  0.87386447  0.75598191  1
  O  O207  1  0.50315319  0.36889475  0.25683139  1
  O  O208  1  0.50875075  0.38106925  0.76234825  1
  O  O209  1  0.50822649  0.88690615  0.26344681  1
  O  O210  1  0.50464795  0.85969151  0.73360781  1
  O  O211  1  0.49214172  0.13029373  0.24505507  1
  O  O212  1  0.49987066  0.12928248  0.73489862  1
  O  O213  1  0.48494367  0.61510229  0.26171999  1
  O  O214  1  0.50061784  0.64164867  0.74851816  1
  O  O215  1  1.01018834  0.13523904  0.23897994  1
  O  O216  1  0.99041498  0.12537858  0.74235146  1
  O  O217  1  0.99369123  0.63069929  0.25076719  1
  O  O218  1  0.99980234  0.62194946  0.73638120  1
  O  O219  1  0.36890891  0.25422260  0.00735320  1
  O  O220  1  0.36609170  0.25278311  0.50271661  1
  O  O221  1  0.37107060  0.76412064  0.00815224  1
  O  O222  1  0.36132672  0.75868996  0.49435192  1
  O  O223  1  0.88280071  0.25951282  0.01135702  1
  O  O224  1  0.86614985  0.25192342  0.50806776  1
  O  O225  1  0.87124697  0.76079271  -0.00581747  1
  O  O226  1  0.88052347  0.75891008  0.51023035  1
  O  O227  1  0.12873856  0.24505849  0.49346212  1
  O  O228  1  0.13773666  0.24234204  1.00522452  1
  O  O229  1  0.13149040  0.74308820  0.48663310  1
  O  O230  1  0.12852311  0.74256731  0.99493660  1
  O  O231  1  0.63358740  0.24273034  0.50582864  1
  O  O232  1  0.62202982  0.26044490  0.99408181  1
  O  O233  1  0.62129970  0.73523300  0.50063045  1
  O  O234  1  0.63593633  0.75702031  0.99182168  1
  O  O235  1  0.49115771  0.24238617  0.13647468  1
  O  O236  1  0.49488761  0.24662656  0.62205649  1
  O  O237  1  0.48242841  0.74575842  0.11975293  1
  O  O238  1  0.49641182  0.74418233  0.62468985  1
  O  O239  1  0.99578365  0.24214316  0.13182334  1
  O  O240  1  0.98717404  0.24293175  0.62384864  1
  O  O241  1  1.00875741  0.74886593  0.14001070  1
  O  O242  1  0.99331207  0.74009506  0.62383846  1
  O  O243  1  0.00930531  0.24437852  0.36424192  1
  O  O244  1  -0.00986444  0.26084722  0.87363185  1
  O  O245  1  0.00764895  0.75279521  0.36872934  1
  O  O246  1  0.01213939  0.75606080  0.87382327  1
  O  O247  1  0.49748276  0.25820628  0.36397839  1
  O  O248  1  0.50969885  0.25948106  0.87400762  1
  O  O249  1  0.50454833  0.76744841  0.38386289  1
  O  O250  1  0.51173141  0.75274400  0.88830627  1
  O  O251  1  0.23690282  0.13527088  0.50822647  1
  O  O252  1  0.24251466  0.13426191  1.00460240  1
  O  O253  1  0.24708133  0.63125008  0.49193288  1
  O  O254  1  0.23813916  0.61984006  0.99846581  1
  O  O255  1  0.74165279  0.13232463  0.49278364  1
  O  O256  1  0.75490766  0.11854771  0.98910311  1
  O  O257  1  0.74248351  0.61651103  0.48985482  1
  O  O258  1  0.76074839  0.63898460  1.00361106  1
  O  O259  1  0.26320475  0.36532696  -0.00339405  1
  O  O260  1  0.25003914  0.36611529  0.50075439  1
  O  O261  1  0.26911012  0.88111569  0.00263762  1
  O  O262  1  0.25479649  0.86966127  0.49795147  1
  O  O263  1  0.76403685  0.37948148  0.00065667  1
  O  O264  1  0.74787583  0.36621150  0.49879824  1
  O  O265  1  0.75943782  0.86628962  0.00659607  1
  O  O266  1  0.75996007  0.88177820  0.50848549  1
  O  O267  1  0.13105870  0.49220916  0.24515004  1
  O  O268  1  0.12639021  0.48406670  0.74625522  1
  O  O269  1  0.13797083  1.00586307  0.23571814  1
  O  O270  1  0.12520449  0.99266953  0.74167642  1
  O  O271  1  0.62891091  0.49259193  0.24471347  1
  O  O272  1  0.62972918  0.49626464  0.74703027  1
  O  O273  1  0.63219434  0.98930295  0.24025918  1
  O  O274  1  0.62900270  0.99887740  0.74164917  1
  O  O275  1  0.36115823  0.01246848  0.24367892  1
  O  O276  1  0.37841195  -0.00190407  0.76249562  1
  O  O277  1  0.36503067  0.50852271  0.24294032  1
  O  O278  1  0.36165718  0.49993346  0.75018551  1
  O  O279  1  0.86968509  -0.00049394  0.25079181  1
  O  O280  1  0.86851900  0.00464715  0.75560071  1
  O  O281  1  0.87350352  0.50413995  0.25647950  1
  O  O282  1  0.86700546  0.49703311  0.75860668  1
  O  O283  1  0.12435851  0.36257065  0.36401906  1
  O  O284  1  0.11329792  0.37660396  0.86776587  1
  O  O285  1  0.11375685  0.86286707  0.38046093  1
  O  O286  1  0.12219149  0.86987230  0.87107271  1
  O  O287  1  0.61284197  0.38278540  0.36263398  1
  O  O288  1  0.61985586  0.36906156  0.87076376  1
  O  O289  1  0.62012802  0.87512930  0.36948642  1
  O  O290  1  0.63397196  0.85846088  0.87227503  1
  O  O291  1  0.38320532  0.13160403  0.13434192  1
  O  O292  1  0.38993892  0.14018733  0.61547187  1
  O  O293  1  0.37859603  0.62770549  0.13997741  1
  O  O294  1  0.32138595  0.64565543  0.65196132  1
  O  O295  1  0.88973850  0.13235881  0.11650626  1
  O  O296  1  0.87576424  0.13169064  0.62762147  1
  O  O297  1  0.87809491  0.61551680  0.14022376  1
  O  O298  1  0.88201011  0.63210561  0.62365612  1
  O  O299  1  0.26279591  0.24649366  0.12179206  1
  O  O300  1  0.25985255  0.25439412  0.61279344  1
  O  O301  1  0.26954744  0.74046118  0.12610518  1
  O  O302  1  0.23144925  0.76707443  0.60654795  1
  O  O303  1  0.76585228  0.24943523  0.13359491  1
  O  O304  1  0.75691378  0.25064711  0.61515434  1
  O  O305  1  0.74371294  0.76218105  0.11613344  1
  O  O306  1  0.75803771  0.75917613  0.63165045  1
  O  O307  1  0.23948724  0.25185154  0.38511953  1
  O  O308  1  0.25924821  0.24852718  0.88397982  1
  O  O309  1  0.24331370  0.74279870  0.37910111  1
  O  O310  1  0.23797699  0.75152567  0.87538424  1
  O  O311  1  0.75522423  0.23917004  0.38563550  1
  O  O312  1  0.74104138  0.24106323  0.87340900  1
  O  O313  1  0.75149665  0.73493135  0.37012186  1
  O  O314  1  0.74853993  0.74576296  0.88393584  1
  O  O315  1  0.00851673  0.11896183  0.00737980  1
  O  O316  1  0.00593068  0.11976521  0.50261037  1
  O  O317  1  0.01088095  0.61726262  0.00389664  1
  O  O318  1  0.00488753  0.61691092  0.50848909  1
  O  O319  1  0.49529397  0.12449820  0.01621331  1
  O  O320  1  0.50584118  0.12287207  0.50317426  1
  O  O321  1  0.49272344  0.60924285  -0.00165060  1
  O  O322  1  0.50916101  0.61360830  0.49237655  1
  O  O323  1  0.50002636  0.38657179  0.49211208  1
  O  O324  1  0.49085633  0.37907064  0.99370034  1
  O  O325  1  0.49191523  0.88610465  0.49585589  1
  O  O326  1  0.48181997  0.88049872  1.01145127  1
  O  O327  1  0.99921047  0.38799240  0.50406525  1
  O  O328  1  0.99447719  0.37830803  0.99368923  1
  O  O329  1  0.99222568  0.87820020  0.49050502  1
  O  O330  1  0.99408977  0.87838304  0.99525401  1
  O  O331  1  0.50220663  0.49310354  0.39106849  1
  O  O332  1  0.50378861  0.49184362  0.88854358  1
  O  O333  1  0.50558068  0.99373847  0.38730751  1
  O  O334  1  0.48902418  1.00399370  0.87613416  1
  O  O335  1  0.99209942  0.50827826  0.38510550  1
  O  O336  1  0.99302148  0.48955490  0.88011033  1
  O  O337  1  1.00369685  0.98950459  0.37682194  1
  O  O338  1  0.99330128  0.99376625  0.88112946  1
  O  O339  1  0.01078345  0.00568318  0.12158447  1
  O  O340  1  0.00159145  0.00409608  0.61714345  1
  O  O341  1  0.01302496  0.50001132  0.12036404  1
  O  O342  1  0.00231098  0.50708695  0.61732139  1
  O  O343  1  0.50763318  0.00887246  0.12739312  1
  O  O344  1  0.50297753  0.01059737  0.61465949  1
  O  O345  1  0.50696967  0.49533227  0.11413778  1
  O  O346  1  0.51057815  0.49661440  0.61397339  1
  O  O347  1  0.24079612  0.38390797  0.25600609  1
  O  O348  1  0.24008961  0.38133032  0.74925256  1
  O  O349  1  0.25766442  0.88890214  0.25537162  1
  O  O350  1  0.24493425  0.87730531  0.73618044  1
  O  O351  1  0.73908557  0.37863993  0.25130357  1
  O  O352  1  0.73978735  0.38681240  0.75337661  1
  O  O353  1  0.74353430  0.87352288  0.24116668  1
  O  O354  1  0.74956640  0.88243380  0.73697244  1
  O  O355  1  0.26154737  0.12476553  0.24837121  1
  O  O356  1  0.26439668  0.10716604  0.70848621  1
  O  O357  1  0.25713555  0.61366811  0.25842595  1
  O  O358  1  0.22159687  0.60241615  0.76641173  1
  O  O359  1  0.74170945  0.12870489  0.26783059  1
  O  O360  1  0.75357966  0.11835264  0.75483083  1
  O  O361  1  0.75872090  0.61833181  0.25683129  1
  O  O362  1  0.75183800  0.61248078  0.75295817  1
  O  O363  1  0.37854547  0.12705505  0.35914707  1
  O  O364  1  0.37928177  0.11692235  0.87222808  1
  O  O365  1  0.36338915  0.63277417  0.36515718  1
  O  O366  1  0.37100581  0.62186794  0.86747845  1
  O  O367  1  0.86162869  0.12378503  0.38107016  1
  O  O368  1  0.86638475  0.11956844  0.87057440  1
  O  O369  1  0.86982733  0.61500770  0.36841702  1
  O  O370  1  0.87959845  0.61013281  0.87428391  1
  O  O371  1  0.12507128  0.38354413  0.13320800  1
  O  O372  1  0.12232185  0.37956294  0.63467590  1
  O  O373  1  0.12567314  0.89163294  0.11801830  1
  O  O374  1  0.12545743  0.88003674  0.62719226  1
  O  O375  1  0.62342327  0.38331963  0.13841642  1
  O  O376  1  0.62593925  0.38698239  0.63518794  1
  O  O377  1  0.63033908  0.88024773  0.13250518  1
  O  O378  1  0.63582901  0.88182947  0.61673909  1
  O  O379  1  0.12223539  0.25410969  0.25431623  1
  O  O380  1  0.12451385  0.25968780  0.74193797  1
  O  O381  1  0.11876659  0.73929855  0.26135614  1
  O  O382  1  0.12640740  0.75566431  0.75803661  1
  O  O383  1  0.61237632  0.25985082  0.24283821  1
  O  O384  1  0.62361601  0.26504556  0.75081494  1
  O  O385  1  0.62629684  0.76485091  0.25202323  1
  O  O386  1  0.60988316  0.75324591  0.75955707  1
  O  O387  1  0.37981686  0.24117561  0.24485679  1
  O  O388  1  0.37894006  0.25328220  0.73698670  1
  O  O389  1  0.37539112  0.73674284  0.24355959  1
  O  O390  1  0.39384923  0.75474267  0.75663423  1
  O  O391  1  0.88859129  0.25741886  0.24115036  1
  O  O392  1  0.87152822  0.24451390  0.73955087  1
  O  O393  1  0.88619165  0.73681679  0.25635779  1
  O  O394  1  0.87963296  0.74859330  0.73755343  1
  O  O395  1  0.38938574  0.50612141  0.51208573  1
  O  O396  1  0.38564340  0.49103583  1.00543808  1
  O  O397  1  0.38275196  0.99678466  0.50562428  1
  O  O398  1  0.37802195  0.99432482  0.98924349  1
  O  O399  1  0.88216353  0.49861080  0.49246367  1
  O  O400  1  0.88136892  0.49123988  0.99425053  1
  O  O401  1  0.88122473  0.98913623  0.49590861  1
  O  O402  1  0.88215791  0.98922116  0.99512096  1
  O  O403  1  0.12443040  0.00706162  0.00898905  1
  O  O404  1  0.11765815  0.00740942  0.50163819  1
  O  O405  1  0.12331184  0.50262841  0.00667857  1
  O  O406  1  0.11808686  0.50337642  0.50362929  1
  O  O407  1  0.62313652  -0.01039939  0.01437593  1
  O  O408  1  0.61506755  0.01085754  0.50539191  1
  O  O409  1  0.61215129  0.49527346  0.00926397  1
  O  O410  1  0.61741548  0.50832849  0.50831554  1
  O  O411  1  0.38399309  0.36245975  0.11608581  1
  O  O412  1  0.37717443  0.36623697  0.61810084  1
  O  O413  1  0.37571418  0.86360054  0.13042210  1
  O  O414  1  0.36194641  0.87992668  0.60945041  1
  O  O415  1  0.87596624  0.36694736  0.11722775  1
  O  O416  1  0.87156178  0.36448665  0.62374350  1
  O  O417  1  0.86655926  0.87944392  0.11391186  1
  O  O418  1  0.86831336  0.86848961  0.61668706  1
  O  O419  1  0.12038031  0.13477031  0.38611270  1
  O  O420  1  0.11914672  0.11763628  0.88875316  1
  O  O421  1  0.13541527  0.63044253  0.37907256  1
  O  O422  1  0.12052647  0.63339684  0.88701276  1
  O  O423  1  0.63143003  0.12163085  0.38571180  1
  O  O424  1  0.63262549  0.13754378  0.87196810  1
  O  O425  1  0.63544515  0.62537991  0.38249817  1
  O  O426  1  0.62786476  0.64377869  0.87467342  1
