# generated using pymatgen
data_V85Zn86O256
_symmetry_space_group_name_H-M   'P 1'
_cell_length_a   16.98894294
_cell_length_b   16.97496117
_cell_length_c   16.99316382
_cell_angle_alpha   90.03972738
_cell_angle_beta   89.90819932
_cell_angle_gamma   90.04182943
_symmetry_Int_Tables_number   1
_chemical_formula_structural   V85Zn86O256
_chemical_formula_sum   'V85 Zn86 O256'
_cell_volume   4900.59276054
_cell_formula_units_Z   1
loop_
 _symmetry_equiv_pos_site_id
 _symmetry_equiv_pos_as_xyz
  1  'x, y, z'
loop_
 _atom_site_type_symbol
 _atom_site_label
 _atom_site_symmetry_multiplicity
 _atom_site_fract_x
 _atom_site_fract_y
 _atom_site_fract_z
 _atom_site_occupancy
  V  V0  1  0.37510575  0.62440513  0.75137147  1
  V  V1  1  0.12844425  0.37597574  0.24838394  1
  V  V2  1  0.62211896  0.37968107  0.24492020  1
  V  V3  1  0.75088776  0.75001182  -0.00091499  1
  V  V4  1  0.62487028  0.75791819  0.87540546  1
  V  V5  1  -0.00824065  0.12866017  0.12655825  1
  V  V6  1  0.37274059  0.75337130  0.62710403  1
  V  V7  1  0.12955117  0.62319545  0.49810249  1
  V  V8  1  0.87822574  0.87579146  -0.00584931  1
  V  V9  1  0.12701094  0.75822470  0.36963484  1
  V  V10  1  0.25197772  0.49778469  0.74744291  1
  V  V11  1  -0.00620720  0.38120999  0.37402454  1
  V  V12  1  0.26689185  0.87287398  0.12557925  1
  V  V13  1  0.24601144  0.00335355  0.25255516  1
  V  V14  1  0.00345970  0.75135210  0.75189359  1
  V  V15  1  0.00093903  0.49902677  -0.00065292  1
  V  V16  1  0.50014901  0.24142690  0.24445736  1
  V  V17  1  0.62488053  0.24980914  0.38252641  1
  V  V18  1  0.26321482  0.75480986  0.00347900  1
  V  V19  1  0.37308101  0.87878324  0.50758765  1
  V  V20  1  0.50046355  0.62765639  0.62768978  1
  V  V21  1  0.87465672  0.36880618  0.00726313  1
  V  V22  1  0.62918871  0.75316762  0.36692474  1
  V  V23  1  0.74917828  0.62368801  0.87757712  1
  V  V24  1  0.49831949  0.50193228  0.49903999  1
  V  V25  1  0.25416994  0.62806534  0.37174172  1
  V  V26  1  0.25063035  0.75572245  0.50494726  1
  V  V27  1  0.37974607  0.23953093  0.12130081  1
  V  V28  1  0.25840906  -0.00764082  0.74081350  1
  V  V29  1  0.37633411  0.50022163  0.37136994  1
  V  V30  1  0.12254454  0.75787062  0.87617577  1
  V  V31  1  0.37645420  0.37413294  0.00220981  1
  V  V32  1  0.38124422  0.64457479  0.24756714  1
  V  V33  1  0.62050375  0.37404663  0.75069738  1
  V  V34  1  0.25253309  0.24814378  -0.00102508  1
  V  V35  1  0.25168484  0.25413308  0.51302056  1
  V  V36  1  0.12739934  0.62551734  0.00019538  1
  V  V37  1  0.74645877  0.36488765  0.62037361  1
  V  V38  1  -0.00731934  0.25063316  0.24912329  1
  V  V39  1  0.74899363  0.50341554  0.74938079  1
  V  V40  1  0.12871339  0.49935798  0.12359374  1
  V  V41  1  -0.00117537  -0.00272615  -0.00303276  1
  V  V42  1  0.49362182  0.87474610  0.88710024  1
  V  V43  1  0.12511934  0.37414208  0.74855480  1
  V  V44  1  0.13188728  0.24778239  0.37259544  1
  V  V45  1  0.13026345  0.49285027  0.62131348  1
  V  V46  1  0.50265492  0.37861272  0.87519300  1
  V  V47  1  0.86201573  0.37669774  0.49625050  1
  V  V48  1  0.75156103  0.24589342  0.00753614  1
  V  V49  1  0.12483972  0.12381053  0.00051836  1
  V  V50  1  0.50281384  0.87209393  0.36818289  1
  V  V51  1  0.62103588  0.12148599  0.00368155  1
  V  V52  1  -0.00529820  -0.00679053  0.49262867  1
  V  V53  1  0.25164101  0.62651473  0.87703089  1
  V  V54  1  0.50042984  0.01159665  0.50981449  1
  V  V55  1  0.87632560  -0.00153940  0.86168415  1
  V  V56  1  0.00481026  0.61759003  0.62526102  1
  V  V57  1  0.37112899  -0.00425476  0.88598340  1
  V  V58  1  0.00614217  0.75786033  0.24756775  1
  V  V59  1  0.87384070  0.61827459  0.25431391  1
  V  V60  1  0.12097560  -0.00993892  0.13130242  1
  V  V61  1  0.74421290  0.37955610  0.12616184  1
  V  V62  1  0.62572174  0.62071546  0.00876668  1
  V  V63  1  0.12401579  0.24879096  0.87419687  1
  V  V64  1  0.87432584  0.74819423  0.61567712  1
  V  V65  1  0.00232860  0.62490203  0.12376540  1
  V  V66  1  0.12417648  0.12516338  0.49548740  1
  V  V67  1  0.12562827  -0.00631322  0.62278508  1
  V  V68  1  0.49795999  0.64332955  0.12938542  1
  V  V69  1  0.74889745  0.12480087  0.38491759  1
  V  V70  1  0.50351019  0.50051412  0.01389401  1
  V  V71  1  0.50070307  0.75716839  0.75316979  1
  V  V72  1  0.75825057  0.12193713  0.86230557  1
  V  V73  1  0.87356240  0.49871998  0.87691895  1
  V  V74  1  0.00002228  0.37225039  0.87578931  1
  V  V75  1  0.62468739  -0.00372428  0.64418029  1
  V  V76  1  0.25133644  0.12207523  0.86462320  1
  V  V77  1  0.62356389  0.50651387  0.62547106  1
  V  V78  1  0.61714760  0.23946606  0.86685531  1
  V  V79  1  0.74747242  0.87884276  0.12935107  1
  V  V80  1  0.87727751  0.75038205  0.12140605  1
  V  V81  1  0.63082549  0.63731621  0.50432619  1
  V  V82  1  0.38636554  0.24618575  0.64567970  1
  V  V83  1  0.61925460  0.00158019  0.13236348  1
  V  V84  1  0.37103516  0.00680530  0.37542776  1
  Zn  Zn85  1  0.49294102  0.00369019  0.00791736  1
  Zn  Zn86  1  -0.00743086  0.50134180  0.49311997  1
  Zn  Zn87  1  0.25498299  0.50309266  0.24525037  1
  Zn  Zn88  1  -0.03350528  0.23111953  0.75117458  1
  Zn  Zn89  1  0.25224194  0.37388663  0.12440213  1
  Zn  Zn90  1  0.81339153  0.82007421  0.46591094  1
  Zn  Zn91  1  0.74276754  0.87577762  0.63222451  1
  Zn  Zn92  1  0.56122985  0.18196282  0.69603249  1
  Zn  Zn93  1  -0.03426340  0.11586990  0.63271573  1
  Zn  Zn94  1  0.37233010  0.12490543  0.24886187  1
  Zn  Zn95  1  0.12865271  0.87205331  0.74548395  1
  Zn  Zn96  1  0.49719113  0.37304764  0.37382234  1
  Zn  Zn97  1  0.36429657  0.37835276  0.50610935  1
  Zn  Zn98  1  0.74921258  0.00378458  0.25084863  1
  Zn  Zn99  1  0.61895720  0.13823286  0.51940416  1
  Zn  Zn100  1  0.87135756  0.12585028  0.25282546  1
  Zn  Zn101  1  0.37612274  0.50092482  0.87759110  1
  Zn  Zn102  1  0.86240729  -0.01837833  0.37242797  1
  Zn  Zn103  1  0.87950368  0.61997838  0.74902549  1
  Zn  Zn104  1  0.74791868  0.49968374  0.25178855  1
  Zn  Zn105  1  -0.00949612  0.87041486  0.37695913  1
  Zn  Zn106  1  0.75934720  0.62388254  0.38744305  1
  Zn  Zn107  1  0.18562558  0.18573666  0.18440543  1
  Zn  Zn108  1  0.10803170  0.18587995  0.68445159  1
  Zn  Zn109  1  0.19233372  0.68886363  0.18691016  1
  Zn  Zn110  1  0.18776537  0.68479353  0.68846740  1
  Zn  Zn111  1  0.68783398  0.18713250  0.19207089  1
  Zn  Zn112  1  0.75601923  0.15203086  0.64850169  1
  Zn  Zn113  1  0.68857601  0.69114862  0.18594706  1
  Zn  Zn114  1  0.70245395  0.71484811  0.70316449  1
  Zn  Zn115  1  0.31471150  0.31299282  0.31176263  1
  Zn  Zn116  1  0.31083726  0.31421386  0.81506867  1
  Zn  Zn117  1  0.31029732  0.82320884  0.31509611  1
  Zn  Zn118  1  0.31170718  0.81361250  0.81550212  1
  Zn  Zn119  1  0.80910158  0.31174284  0.31631269  1
  Zn  Zn120  1  0.80252269  0.31188789  0.81874085  1
  Zn  Zn121  1  0.81185990  0.80374850  0.30145290  1
  Zn  Zn122  1  0.81664770  0.81374501  0.80466118  1
  Zn  Zn123  1  0.18844518  0.43640776  0.43261728  1
  Zn  Zn124  1  0.19001464  0.43749189  0.93527209  1
  Zn  Zn125  1  0.18605584  0.93852557  0.43709744  1
  Zn  Zn126  1  0.18900011  0.93616302  0.94188110  1
  Zn  Zn127  1  0.68517012  0.44537586  0.43119036  1
  Zn  Zn128  1  0.68620440  0.43576329  0.93904446  1
  Zn  Zn129  1  0.67960006  0.94049733  0.44318731  1
  Zn  Zn130  1  0.69069849  0.94069222  0.93913748  1
  Zn  Zn131  1  0.30661776  0.06172144  0.06267271  1
  Zn  Zn132  1  0.30933476  0.07505012  0.56335965  1
  Zn  Zn133  1  0.31645409  0.56550471  0.06597257  1
  Zn  Zn134  1  0.31275272  0.56674817  0.56252137  1
  Zn  Zn135  1  0.81082697  0.06019178  0.06032724  1
  Zn  Zn136  1  0.79665847  0.02202217  0.54871665  1
  Zn  Zn137  1  0.81334877  0.55975160  0.06642628  1
  Zn  Zn138  1  0.81624828  0.55606498  0.56203823  1
  Zn  Zn139  1  0.44018613  0.43580149  0.18941329  1
  Zn  Zn140  1  0.43383262  0.43271589  0.68371584  1
  Zn  Zn141  1  0.43770491  0.93894620  0.19064646  1
  Zn  Zn142  1  0.44017073  0.93954012  0.69115628  1
  Zn  Zn143  1  0.93939302  0.43593667  0.18476867  1
  Zn  Zn144  1  0.91752633  0.39803095  0.70239221  1
  Zn  Zn145  1  0.93125825  0.94159877  0.18829644  1
  Zn  Zn146  1  0.94359881  0.92879730  0.67982274  1
  Zn  Zn147  1  0.06017897  0.06351379  0.31204622  1
  Zn  Zn148  1  0.06504502  0.05656492  0.81180208  1
  Zn  Zn149  1  0.06543768  0.56589951  0.30942091  1
  Zn  Zn150  1  0.06545079  0.56195752  0.81344485  1
  Zn  Zn151  1  0.55961219  0.06257094  0.31663831  1
  Zn  Zn152  1  0.56522227  0.05682683  0.82660147  1
  Zn  Zn153  1  0.56363004  0.56798591  0.31299962  1
  Zn  Zn154  1  0.56256213  0.56537093  0.81718919  1
  Zn  Zn155  1  0.43544235  0.19056445  0.43525163  1
  Zn  Zn156  1  0.45092121  0.17502876  0.89332194  1
  Zn  Zn157  1  0.43980161  0.68930318  0.43668207  1
  Zn  Zn158  1  0.44009323  0.68435462  0.93926534  1
  Zn  Zn159  1  0.89904283  0.16626933  0.49402963  1
  Zn  Zn160  1  0.93823777  0.18581502  0.93765989  1
  Zn  Zn161  1  0.94758059  0.68146328  0.43390449  1
  Zn  Zn162  1  0.93888073  0.68505937  0.93510548  1
  Zn  Zn163  1  0.06346883  0.31018432  0.06345411  1
  Zn  Zn164  1  0.04980932  0.30953842  0.55921061  1
  Zn  Zn165  1  0.06503558  0.81188255  0.05994605  1
  Zn  Zn166  1  0.06179016  0.81010896  0.56199686  1
  Zn  Zn167  1  0.56346876  0.30680082  0.05922539  1
  Zn  Zn168  1  0.55488169  0.32027160  0.56603338  1
  Zn  Zn169  1  0.56563595  0.81645361  0.06309590  1
  Zn  Zn170  1  0.55719848  0.81794259  0.56078857  1
  O  O171  1  0.11594836  0.11371745  0.11834793  1
  O  O172  1  0.12987824  0.10553017  0.60938490  1
  O  O173  1  0.12206532  0.61994960  0.11979911  1
  O  O174  1  0.12289932  0.61726082  0.61842897  1
  O  O175  1  0.63242284  0.11212611  0.11605294  1
  O  O176  1  0.63270744  0.11701352  0.63252412  1
  O  O177  1  0.61813337  0.63260647  0.11483784  1
  O  O178  1  0.61751950  0.62459245  0.62059950  1
  O  O179  1  0.37585668  0.38873178  0.37746462  1
  O  O180  1  0.38372916  0.37761056  0.88578619  1
  O  O181  1  0.38538860  0.88340552  0.38578118  1
  O  O182  1  0.38166684  0.88347875  0.87460713  1
  O  O183  1  0.88085628  0.37620973  0.38124819  1
  O  O184  1  0.87783319  0.38134481  0.88965627  1
  O  O185  1  0.87230479  0.86520080  0.37658065  1
  O  O186  1  0.86605991  0.88629879  0.88308525  1
  O  O187  1  0.25882333  -0.01202359  0.36351467  1
  O  O188  1  0.25463706  0.00213865  0.87147960  1
  O  O189  1  0.26095703  0.50984158  0.37410247  1
  O  O190  1  0.25152273  0.50878066  0.86622542  1
  O  O191  1  0.74057481  0.01226684  0.37155279  1
  O  O192  1  0.76371254  0.01054774  0.87693351  1
  O  O193  1  0.73272000  0.51685447  0.36110937  1
  O  O194  1  0.75200093  0.50341976  0.86896231  1
  O  O195  1  0.24337704  0.49647779  0.12464166  1
  O  O196  1  0.24259491  0.50785461  0.63570394  1
  O  O197  1  0.24200841  0.98888928  0.12874073  1
  O  O198  1  0.24882320  1.00320180  0.63727809  1
  O  O199  1  0.75141786  0.48529171  0.13021096  1
  O  O200  1  0.74159589  0.49847980  0.63528047  1
  O  O201  1  0.74222250  0.99390471  0.12573878  1
  O  O202  1  0.72983281  0.99977833  0.64124638  1
  O  O203  1  0.00771724  0.36982521  0.25102871  1
  O  O204  1  0.01707032  0.38358028  0.76004598  1
  O  O205  1  -0.00748134  0.85984277  0.24825608  1
  O  O206  1  0.00716723  0.85523433  0.74364378  1
  O  O207  1  0.50580391  0.36285029  0.25131066  1
  O  O208  1  0.51042691  0.38983293  0.76260193  1
  O  O209  1  0.49690864  0.88070372  0.26976907  1
  O  O210  1  0.49385150  0.86181040  0.76207649  1
  O  O211  1  0.49649765  0.13741522  0.25336043  1
  O  O212  1  0.53200389  0.16254339  0.80436460  1
  O  O213  1  0.49437421  0.62386100  0.23966497  1
  O  O214  1  0.49281007  0.63170995  0.74807596  1
  O  O215  1  0.99842206  0.13356416  0.24313434  1
  O  O216  1  1.01263352  0.12767063  0.74159846  1
  O  O217  1  0.99260085  0.63299631  0.24339259  1
  O  O218  1  1.00469865  0.62937561  0.74080239  1
  O  O219  1  0.37218407  0.25979763  0.00581045  1
  O  O220  1  0.35733680  0.25150116  0.49000518  1
  O  O221  1  0.36182415  0.74734551  -0.00450215  1
  O  O222  1  0.36972346  0.75839085  0.50506964  1
  O  O223  1  0.86471899  0.25889510  -0.00778795  1
  O  O224  1  0.87403449  0.27653815  0.49861853  1
  O  O225  1  0.87261427  0.75729193  0.00066829  1
  O  O226  1  0.88832800  0.74388529  0.51006488  1
  O  O227  1  0.13112655  0.24566148  0.49341317  1
  O  O228  1  0.13130025  0.24495428  0.99397158  1
  O  O229  1  0.13359733  0.74448280  0.49262000  1
  O  O230  1  0.13107688  0.74390844  0.99334576  1
  O  O231  1  0.61072501  0.25283570  0.48575591  1
  O  O232  1  0.63368007  0.24087717  0.99158034  1
  O  O233  1  0.61932982  0.74321906  0.49877589  1
  O  O234  1  0.63086603  0.74218179  0.99343267  1
  O  O235  1  0.49118031  0.25326794  0.13150759  1
  O  O236  1  0.49445640  0.24727527  0.62982610  1
  O  O237  1  0.50152494  0.74264545  0.12054888  1
  O  O238  1  0.49415647  0.74822072  0.63603889  1
  O  O239  1  1.00786345  0.23900066  0.13482733  1
  O  O240  1  1.01172880  0.23496324  0.63349869  1
  O  O241  1  0.99857661  0.74476215  0.12884040  1
  O  O242  1  1.00058783  0.73623989  0.63046968  1
  O  O243  1  0.01470209  0.26691762  0.36189129  1
  O  O244  1  0.00624090  0.25450731  0.87279349  1
  O  O245  1  0.01116999  0.74918489  0.36510418  1
  O  O246  1  0.01138349  0.73914229  0.86486582  1
  O  O247  1  0.50721244  0.25162522  0.36533066  1
  O  O248  1  0.50607833  0.27537554  0.89306179  1
  O  O249  1  0.50789980  0.76557359  0.38181117  1
  O  O250  1  0.50441394  0.75625032  0.87351935  1
  O  O251  1  0.23560862  0.13887356  0.49804625  1
  O  O252  1  0.24235931  0.12831989  0.99164724  1
  O  O253  1  0.24978550  0.63727862  0.49203306  1
  O  O254  1  0.24648846  0.63387536  0.99833723  1
  O  O255  1  0.73207690  0.11399594  0.48751575  1
  O  O256  1  0.74762062  0.13307513  0.99732282  1
  O  O257  1  0.73409979  0.61798020  0.50289408  1
  O  O258  1  0.74376644  0.62817297  0.99912386  1
  O  O259  1  0.26128139  0.36883004  -0.00328580  1
  O  O260  1  0.24561833  0.35943698  0.49418665  1
  O  O261  1  0.24640621  0.86877763  0.01527427  1
  O  O262  1  0.26136838  0.86586012  0.49296216  1
  O  O263  1  0.75413351  0.36779880  0.00595816  1
  O  O264  1  0.75328248  0.38500912  0.50405830  1
  O  O265  1  0.76024433  0.87071167  0.00556410  1
  O  O266  1  0.75649157  0.90180132  0.51799228  1
  O  O267  1  0.12722075  0.49211853  0.24205007  1
  O  O268  1  0.13448033  0.49560932  0.74301847  1
  O  O269  1  0.13109259  1.00434773  0.24118587  1
  O  O270  1  0.13361133  0.99379953  0.74133957  1
  O  O271  1  0.61523027  0.48169902  0.25259696  1
  O  O272  1  0.63140200  0.49784447  0.74793687  1
  O  O273  1  0.62514537  1.00730042  0.23523744  1
  O  O274  1  0.60451660  0.99598826  0.74143731  1
  O  O275  1  0.36766307  0.00193371  0.25818272  1
  O  O276  1  0.36202881  -0.00321732  0.75741599  1
  O  O277  1  0.37701118  0.50544746  0.26062019  1
  O  O278  1  0.36653949  0.50438811  0.74937590  1
  O  O279  1  0.87126232  0.00679096  0.25945104  1
  O  O280  1  0.88593426  -0.01049513  0.76366717  1
  O  O281  1  0.87926002  0.51625419  0.24270406  1
  O  O282  1  0.86261391  0.49479910  0.75736892  1
  O  O283  1  0.11988282  0.37061054  0.36280338  1
  O  O284  1  0.11984072  0.36963977  0.87102442  1
  O  O285  1  0.12433863  0.85981918  0.37757559  1
  O  O286  1  0.12793378  0.86058116  0.87724599  1
  O  O287  1  0.62416936  0.36203075  0.36596793  1
  O  O288  1  0.62135764  0.36968688  0.86857710  1
  O  O289  1  0.61313894  0.86599633  0.38411569  1
  O  O290  1  0.61826603  0.86324109  0.88323781  1
  O  O291  1  0.37323931  0.13604181  0.12163495  1
  O  O292  1  0.37219508  0.14823719  0.62217852  1
  O  O293  1  0.38526449  0.62472317  0.13602691  1
  O  O294  1  0.38095780  0.63352423  0.63133370  1
  O  O295  1  0.88924080  0.11870791  0.12410755  1
  O  O296  1  0.85470151  0.11914936  0.59615974  1
  O  O297  1  0.88345967  0.63121437  0.12758141  1
  O  O298  1  0.89160637  0.62513951  0.62573481  1
  O  O299  1  0.25871092  0.25121307  0.11691998  1
  O  O300  1  0.25951347  0.25331274  0.61150424  1
  O  O301  1  0.24597526  0.76560871  0.11932748  1
  O  O302  1  0.25492787  0.74432655  0.61241805  1
  O  O303  1  0.74607531  0.25685755  0.11316895  1
  O  O304  1  0.73863039  0.26661898  0.62457254  1
  O  O305  1  0.75557245  0.75862162  0.11698998  1
  O  O306  1  0.77571557  0.72800140  0.61535394  1
  O  O307  1  0.23455754  0.25230240  0.37052710  1
  O  O308  1  0.24661358  0.23989663  0.88017730  1
  O  O309  1  0.24561058  0.74799280  0.38212753  1
  O  O310  1  0.24299308  0.74602793  0.88361431  1
  O  O311  1  0.73282560  0.24185284  0.37461580  1
  O  O312  1  0.74296577  0.23778071  0.88357889  1
  O  O313  1  0.73800942  0.75208524  0.38216007  1
  O  O314  1  0.74333382  0.74380931  0.88110938  1
  O  O315  1  0.00381854  0.11730413  0.00712959  1
  O  O316  1  0.00687906  0.10987508  0.50399842  1
  O  O317  1  0.00675364  0.61919646  0.00459816  1
  O  O318  1  0.01233532  0.61965708  0.50622573  1
  O  O319  1  0.51877196  0.12356279  -0.01623667  1
  O  O320  1  0.49800538  0.11380554  0.49596015  1
  O  O321  1  0.50590137  0.61970986  0.00948120  1
  O  O322  1  0.50467583  0.62033333  0.50761050  1
  O  O323  1  0.49830456  0.39355972  0.49653530  1
  O  O324  1  0.49670241  0.38523402  0.99841290  1
  O  O325  1  0.48834887  0.88849602  0.49438884  1
  O  O326  1  0.50079097  0.87709460  0.98965501  1
  O  O327  1  0.99154247  0.37956955  0.48997481  1
  O  O328  1  0.99288264  0.37730746  0.99706077  1
  O  O329  1  1.00635220  0.88856879  0.49862679  1
  O  O330  1  0.98882963  0.88412312  1.00490843  1
  O  O331  1  0.49194390  0.50437546  0.38374140  1
  O  O332  1  0.49997456  0.49356359  0.88860958  1
  O  O333  1  0.49442563  0.99169232  0.38609338  1
  O  O334  1  0.48850119  0.98976585  0.87823532  1
  O  O335  1  1.01083534  0.48620081  0.37244794  1
  O  O336  1  0.99564275  0.49453023  0.88168136  1
  O  O337  1  1.00472177  0.99316821  0.38464066  1
  O  O338  1  0.98809053  1.00680683  0.88725873  1
  O  O339  1  0.00423340  0.00601789  0.11810128  1
  O  O340  1  0.00537411  -0.00001540  0.61332510  1
  O  O341  1  0.00833545  0.50448100  0.11740185  1
  O  O342  1  0.01600098  0.50948247  0.62367561  1
  O  O343  1  0.51459001  -0.00714051  0.12314331  1
  O  O344  1  0.50012101  0.00452976  0.61574381  1
  O  O345  1  0.49942028  0.50636554  0.11603594  1
  O  O346  1  0.50237633  0.50735977  0.61849998  1
  O  O347  1  0.23853794  0.37778697  0.24767326  1
  O  O348  1  0.23996500  0.38931561  0.76014176  1
  O  O349  1  0.25335279  0.88481055  0.23459700  1
  O  O350  1  0.24775000  0.88816931  0.75392787  1
  O  O351  1  0.74132558  0.37098589  0.24126749  1
  O  O352  1  0.73832052  0.38796199  0.74378428  1
  O  O353  1  0.75443002  0.87539559  0.23231561  1
  O  O354  1  0.73458750  0.82632981  0.73207753  1
  O  O355  1  0.25204611  0.10848166  0.24088150  1
  O  O356  1  0.23971602  0.10638052  0.76423726  1
  O  O357  1  0.26280811  0.62504125  0.25377295  1
  O  O358  1  0.25572433  0.61798153  0.75637560  1
  O  O359  1  0.75286569  0.12714724  0.26431954  1
  O  O360  1  0.75442234  0.13271331  0.76480687  1
  O  O361  1  0.76867390  0.62844798  0.24129198  1
  O  O362  1  0.74970162  0.61549574  0.75738459  1
  O  O363  1  0.37760335  0.10913716  0.37419868  1
  O  O364  1  0.36177580  0.11096424  0.87533909  1
  O  O365  1  0.37478777  0.62063409  0.36719344  1
  O  O366  1  0.37007163  0.62269236  0.86934901  1
  O  O367  1  0.85237560  0.13123440  0.38818098  1
  O  O368  1  0.86718821  0.11399564  0.87804746  1
  O  O369  1  0.87558106  0.63283813  0.35813383  1
  O  O370  1  0.86742277  0.61624724  0.87503069  1
  O  O371  1  0.12566360  0.37995927  0.13277739  1
  O  O372  1  0.11910312  0.38552112  0.63395274  1
  O  O373  1  0.12472359  0.88773979  0.12248481  1
  O  O374  1  0.12540082  0.88841286  0.62079340  1
  O  O375  1  0.63358720  0.36681684  0.13156173  1
  O  O376  1  0.62669496  0.38673250  0.63136136  1
  O  O377  1  0.63606164  0.88979657  0.11577149  1
  O  O378  1  0.61658656  0.89397677  0.62097774  1
  O  O379  1  0.11976679  0.25742775  0.25231704  1
  O  O380  1  0.13634151  0.26492442  0.75992126  1
  O  O381  1  0.11711179  0.74186673  0.25746463  1
  O  O382  1  0.12320536  0.74922976  0.75853842  1
  O  O383  1  0.61599971  0.25672270  0.25561035  1
  O  O384  1  0.62990557  0.27019795  0.75202156  1
  O  O385  1  0.62903245  0.74783227  0.26774600  1
  O  O386  1  0.60767555  0.73547121  0.76664189  1
  O  O387  1  0.38087494  0.24889406  0.24041404  1
  O  O388  1  0.37487934  0.25193001  0.74541094  1
  O  O389  1  0.37430191  0.74303063  0.25968018  1
  O  O390  1  0.38060560  0.74488749  0.74767081  1
  O  O391  1  0.88942137  0.24920700  0.25750180  1
  O  O392  1  0.87837021  0.29399771  0.74180374  1
  O  O393  1  0.88586334  0.73896339  0.23880430  1
  O  O394  1  0.88879132  0.73995631  0.74100538  1
  O  O395  1  0.38141369  0.50407177  0.49211520  1
  O  O396  1  0.38409540  0.49143740  1.00113093  1
  O  O397  1  0.37818558  0.99746681  0.49729514  1
  O  O398  1  0.37487743  1.00248847  0.99095172  1
  O  O399  1  0.87723909  0.48955716  0.49354944  1
  O  O400  1  0.88073291  0.49160237  0.99713832  1
  O  O401  1  0.89181195  0.99936553  0.48819512  1
  O  O402  1  0.88198161  0.99242547  0.99385852  1
  O  O403  1  0.11453117  0.00261352  0.00580081  1
  O  O404  1  0.12055922  0.00620049  0.50137828  1
  O  O405  1  0.12102755  0.50468341  0.00321314  1
  O  O406  1  0.13254658  0.50560042  0.50830996  1
  O  O407  1  0.62578598  0.00707509  0.00860028  1
  O  O408  1  0.60590623  0.00561499  0.50815019  1
  O  O409  1  0.61815463  0.51171858  -0.00394348  1
  O  O410  1  0.61340337  0.51154254  0.50478424  1
  O  O411  1  0.37526333  0.36800466  0.11505722  1
  O  O412  1  0.38186736  0.35537553  0.61909305  1
  O  O413  1  0.36534568  0.88021213  0.12252343  1
  O  O414  1  0.38139069  0.87030483  0.61498055  1
  O  O415  1  0.86718336  0.37665350  0.11315949  1
  O  O416  1  0.85754991  0.38830570  0.60738722  1
  O  O417  1  0.86829571  0.87128157  0.11322548  1
  O  O418  1  0.87634060  0.85115887  0.62797781  1
  O  O419  1  0.11402553  0.13638666  0.38462259  1
  O  O420  1  0.13106074  0.12800549  0.88203605  1
  O  O421  1  0.13359809  0.63325464  0.37873586  1
  O  O422  1  0.13309655  0.63196267  0.88166549  1
  O  O423  1  0.62712117  0.13968984  0.37299505  1
  O  O424  1  0.64890935  0.11926268  0.88748185  1
  O  O425  1  0.61689608  0.64443023  0.38528015  1
  O  O426  1  0.62846790  0.63400074  0.88860624  1
