# generated using pymatgen
data_V85Zn86O256
_symmetry_space_group_name_H-M   'P 1'
_cell_length_a   16.97994301
_cell_length_b   16.96186552
_cell_length_c   16.96757594
_cell_angle_alpha   89.91254103
_cell_angle_beta   90.07285823
_cell_angle_gamma   89.96972643
_symmetry_Int_Tables_number   1
_chemical_formula_structural   V85Zn86O256
_chemical_formula_sum   'V85 Zn86 O256'
_cell_volume   4886.84683401
_cell_formula_units_Z   1
loop_
 _symmetry_equiv_pos_site_id
 _symmetry_equiv_pos_as_xyz
  1  'x, y, z'
loop_
 _atom_site_type_symbol
 _atom_site_label
 _atom_site_symmetry_multiplicity
 _atom_site_fract_x
 _atom_site_fract_y
 _atom_site_fract_z
 _atom_site_occupancy
  V  V0  1  0.49708159  0.61060008  0.62435937  1
  V  V1  1  0.13030793  0.88005252  0.25150550  1
  V  V2  1  0.12772123  0.24573008  0.87700978  1
  V  V3  1  0.12609144  0.37771014  0.25095897  1
  V  V4  1  0.87030663  0.62100872  0.75184441  1
  V  V5  1  0.87296372  0.25252384  0.62780333  1
  V  V6  1  0.12434289  0.12102856  0.49968254  1
  V  V7  1  0.36287615  0.62015867  0.74857696  1
  V  V8  1  0.62674286  0.25120349  0.37654489  1
  V  V9  1  -0.00221490  0.75815699  0.25247256  1
  V  V10  1  0.64607320  0.49328898  0.62920070  1
  V  V11  1  0.12572954  0.86996404  0.75165671  1
  V  V12  1  0.74540188  0.00245549  0.24545347  1
  V  V13  1  0.74159120  0.87855843  0.12279729  1
  V  V14  1  0.00600114  0.25328163  0.75050375  1
  V  V15  1  0.74847301  0.24940377  -0.00412270  1
  V  V16  1  0.25141425  0.50043373  0.25140274  1
  V  V17  1  0.12577757  0.25163502  0.37434743  1
  V  V18  1  0.75741425  0.12178930  0.87711694  1
  V  V19  1  0.12954164  0.00374824  0.12271467  1
  V  V20  1  0.25507145  0.11779033  0.87745287  1
  V  V21  1  0.49985126  0.38070555  0.38010251  1
  V  V22  1  0.12317614  -0.00172602  0.62441764  1
  V  V23  1  0.61887631  0.75827839  0.87304209  1
  V  V24  1  0.49973917  0.24945256  0.24795904  1
  V  V25  1  0.62381037  0.87652706  0.25122325  1
  V  V26  1  0.12095489  0.75369509  0.37436237  1
  V  V27  1  0.00212329  0.62850718  0.11865994  1
  V  V28  1  0.25289453  0.24876244  0.50219887  1
  V  V29  1  0.87659197  0.12106447  0.25183722  1
  V  V30  1  0.74035605  0.62299421  0.87066736  1
  V  V31  1  0.00121930  0.25247830  0.25054931  1
  V  V32  1  0.87234048  0.37320375  0.50384539  1
  V  V33  1  -0.00310230  0.00256973  -0.00149908  1
  V  V34  1  0.24307663  0.62467031  0.89259790  1
  V  V35  1  0.62539254  0.11765308  0.50384829  1
  V  V36  1  0.50274434  0.87212380  0.37588164  1
  V  V37  1  0.37040617  0.74879676  0.12015071  1
  V  V38  1  0.50383233  0.11842411  0.62434820  1
  V  V39  1  0.74179870  0.74620118  -0.00114720  1
  V  V40  1  -0.00071144  0.62468243  0.62814988  1
  V  V41  1  0.50724001  0.11627928  0.12397362  1
  V  V42  1  0.37858782  0.87740873  -0.00688453  1
  V  V43  1  0.12729164  0.74883577  0.89545566  1
  V  V44  1  0.87040331  0.75631321  0.12304045  1
  V  V45  1  0.49913324  0.75258766  0.75152599  1
  V  V46  1  0.37392732  0.49974907  0.87273212  1
  V  V47  1  0.87614159  0.25293518  0.12531582  1
  V  V48  1  0.37388279  0.11798937  0.24980211  1
  V  V49  1  0.37593478  0.62468844  0.25042736  1
  V  V50  1  0.75016856  0.25414118  0.50676183  1
  V  V51  1  0.24981701  0.87336924  0.62435377  1
  V  V52  1  0.25184437  0.37566962  0.12541660  1
  V  V53  1  0.62939271  0.12000414  0.00278762  1
  V  V54  1  0.75266913  -0.00846095  0.75725652  1
  V  V55  1  0.25299474  0.11432968  0.37189605  1
  V  V56  1  -0.00513696  0.87944779  0.87530583  1
  V  V57  1  0.00089885  0.50024185  0.50174990  1
  V  V58  1  0.36964933  0.87414273  0.49807802  1
  V  V59  1  0.62604837  0.38007555  0.24930573  1
  V  V60  1  0.75501544  0.12129790  0.37654433  1
  V  V61  1  0.00705102  0.12515880  0.11881634  1
  V  V62  1  0.62296725  0.50033591  0.10116702  1
  V  V63  1  0.12297852  0.62264858  0.50227949  1
  V  V64  1  0.37871503  0.37884944  -0.00021537  1
  V  V65  1  0.86547331  0.75403520  0.61591405  1
  V  V66  1  0.74967594  0.37641522  0.12364883  1
  V  V67  1  0.37796392  0.37961311  0.50041756  1
  V  V68  1  0.50819024  0.24856104  0.75038095  1
  V  V69  1  0.37451119  0.74812910  0.62391726  1
  V  V70  1  0.61868365  0.62817905  0.49927114  1
  V  V71  1  0.00028932  0.12339234  0.62296294  1
  V  V72  1  0.00375715  0.37982252  0.87883544  1
  V  V73  1  0.50556857  0.74767280  0.25129227  1
  V  V74  1  0.87053291  0.62516172  0.25058026  1
  V  V75  1  0.74067369  0.87890461  0.61455796  1
  V  V76  1  0.50407341  0.62015671  0.11065333  1
  V  V77  1  0.25032251  0.87555239  0.12245403  1
  V  V78  1  0.12507585  0.50661287  0.11745003  1
  V  V79  1  0.74511905  0.63328662  0.38350888  1
  V  V80  1  0.24902533  0.24626360  0.00004505  1
  V  V81  1  0.50185106  0.37085750  0.87193649  1
  V  V82  1  -0.00038092  0.37431424  0.37552786  1
  V  V83  1  0.24899284  0.62437876  0.37358201  1
  V  V84  1  0.24325125  0.38352892  0.62938456  1
  Zn  Zn85  1  0.88105514  0.11756857  0.75801256  1
  Zn  Zn86  1  0.37331739  -0.00451371  0.37274911  1
  Zn  Zn87  1  0.37670351  0.24744249  0.62756703  1
  Zn  Zn88  1  0.25271650  -0.00069862  0.75144192  1
  Zn  Zn89  1  0.87186203  0.49879534  0.87378672  1
  Zn  Zn90  1  0.64673441  0.37419036  0.74488669  1
  Zn  Zn91  1  0.13597319  0.39729390  0.75237240  1
  Zn  Zn92  1  0.87781399  0.37957763  0.00131948  1
  Zn  Zn93  1  -0.00383925  0.75078507  0.75406701  1
  Zn  Zn94  1  0.37634900  0.24849598  0.12265088  1
  Zn  Zn95  1  0.37816865  0.12094326  0.74666178  1
  Zn  Zn96  1  0.86753904  0.88231398  -0.01120291  1
  Zn  Zn97  1  0.88748933  0.89393706  0.48376649  1
  Zn  Zn98  1  0.39689485  -0.00856370  0.86666074  1
  Zn  Zn99  1  0.24884243  0.74775321  0.49885551  1
  Zn  Zn100  1  0.61153147  0.88922366  0.74657134  1
  Zn  Zn101  1  0.50428002  -0.00616999  0.50412470  1
  Zn  Zn102  1  0.86924457  0.49833484  0.37531798  1
  Zn  Zn103  1  0.74859693  0.50209194  0.24906140  1
  Zn  Zn104  1  0.51326558  -0.00904003  -0.00438325  1
  Zn  Zn105  1  0.37922007  0.50303444  0.37769893  1
  Zn  Zn106  1  -0.00112530  0.50771455  -0.00332738  1
  Zn  Zn107  1  0.19051821  0.18938111  0.18827888  1
  Zn  Zn108  1  0.18931185  0.18916243  0.69075151  1
  Zn  Zn109  1  0.18733395  0.68905216  0.18678906  1
  Zn  Zn110  1  0.18515341  0.68651942  0.68798994  1
  Zn  Zn111  1  0.68721007  0.19099350  0.18527361  1
  Zn  Zn112  1  0.68634310  0.18189878  0.69241988  1
  Zn  Zn113  1  0.68366675  0.68354631  0.18493552  1
  Zn  Zn114  1  0.68311137  0.68748389  0.68645727  1
  Zn  Zn115  1  0.31450719  0.30969698  0.31444242  1
  Zn  Zn116  1  0.31833013  0.30607911  0.80968402  1
  Zn  Zn117  1  0.31148122  0.81079937  0.31076711  1
  Zn  Zn118  1  0.30846529  0.80496173  0.81238051  1
  Zn  Zn119  1  0.81342865  0.30949390  0.31513261  1
  Zn  Zn120  1  0.81845870  0.31064793  0.81287327  1
  Zn  Zn121  1  0.80387403  0.80857990  0.31482176  1
  Zn  Zn122  1  0.81092239  0.80589843  0.80660586  1
  Zn  Zn123  1  0.18937431  0.43857899  0.44044911  1
  Zn  Zn124  1  0.19053745  0.43655252  0.93533451  1
  Zn  Zn125  1  0.06755898  0.93570600  0.43820438  1
  Zn  Zn126  1  0.18473173  0.93371931  0.94425882  1
  Zn  Zn127  1  0.68583282  0.44646662  0.43982971  1
  Zn  Zn128  1  0.70384438  0.41967722  0.91235422  1
  Zn  Zn129  1  0.69095486  0.93594265  0.43241720  1
  Zn  Zn130  1  0.68490157  0.93815923  0.93380186  1
  Zn  Zn131  1  0.31646884  0.06102082  0.06327818  1
  Zn  Zn132  1  0.31505548  0.05904858  0.56135114  1
  Zn  Zn133  1  0.31666988  0.56006832  0.06416965  1
  Zn  Zn134  1  0.31006704  0.56063188  0.56175439  1
  Zn  Zn135  1  0.81780850  0.06244377  0.06588692  1
  Zn  Zn136  1  0.80865404  0.06101896  0.57167054  1
  Zn  Zn137  1  0.81110831  0.56106872  0.05853921  1
  Zn  Zn138  1  0.81398936  0.56226701  0.56221415  1
  Zn  Zn139  1  0.44055649  0.44040373  0.18587533  1
  Zn  Zn140  1  0.42898527  0.43277744  0.69016836  1
  Zn  Zn141  1  0.43825447  0.93710329  0.18381716  1
  Zn  Zn142  1  0.43432023  0.94007742  0.68579693  1
  Zn  Zn143  1  0.93899778  0.44130487  0.18568010  1
  Zn  Zn144  1  0.94181001  0.43961781  0.69114694  1
  Zn  Zn145  1  0.93425840  0.93678198  0.30682505  1
  Zn  Zn146  1  0.93492338  0.93622338  0.68556832  1
  Zn  Zn147  1  0.07060621  0.06856608  0.30435354  1
  Zn  Zn148  1  0.06706708  0.06224554  0.81252265  1
  Zn  Zn149  1  0.05963325  0.56382454  0.31098859  1
  Zn  Zn150  1  0.06814531  0.56338046  0.81006217  1
  Zn  Zn151  1  0.56354578  0.06036080  0.31574827  1
  Zn  Zn152  1  0.57214452  0.06683331  0.81598922  1
  Zn  Zn153  1  0.56272287  0.56327117  0.31071348  1
  Zn  Zn154  1  0.55927508  0.56017088  0.80995007  1
  Zn  Zn155  1  0.43870690  0.18901290  0.43739438  1
  Zn  Zn156  1  0.43924064  0.18684934  0.93814828  1
  Zn  Zn157  1  0.43992320  0.68764820  0.43768455  1
  Zn  Zn158  1  0.43253414  0.69004888  0.93442085  1
  Zn  Zn159  1  0.93704478  0.07343271  0.43997566  1
  Zn  Zn160  1  0.93645327  0.19073297  0.93867228  1
  Zn  Zn161  1  0.93459267  0.69127217  0.43630082  1
  Zn  Zn162  1  0.93271775  0.69548233  0.93526044  1
  Zn  Zn163  1  0.06662943  0.31425907  0.06308267  1
  Zn  Zn164  1  0.06279143  0.31020689  0.56064382  1
  Zn  Zn165  1  0.05619659  0.82045774  0.06624856  1
  Zn  Zn166  1  0.05768365  0.80650375  0.56507305  1
  Zn  Zn167  1  0.56477005  0.30978571  0.05972399  1
  Zn  Zn168  1  0.56425361  0.31189095  0.56720145  1
  Zn  Zn169  1  0.56000554  0.80766649  0.06321916  1
  Zn  Zn170  1  0.56080858  0.80540878  0.56382729  1
  O  O171  1  0.11779451  0.11799996  0.13491064  1
  O  O172  1  0.12144518  0.11941845  0.61986601  1
  O  O173  1  0.11424325  0.61859386  0.13325854  1
  O  O174  1  0.11190453  0.63698682  0.61216678  1
  O  O175  1  0.61763672  0.12866003  0.11970907  1
  O  O176  1  0.61832124  0.13061853  0.61291561  1
  O  O177  1  0.61616662  0.61306563  0.12628632  1
  O  O178  1  0.61821789  0.61408136  0.61929278  1
  O  O179  1  0.38356431  0.37463960  0.38169834  1
  O  O180  1  0.37623183  0.38188810  0.88009224  1
  O  O181  1  0.38159633  0.87291765  0.38047496  1
  O  O182  1  0.36618480  0.86988253  0.89068081  1
  O  O183  1  0.88147266  0.37310303  0.38595491  1
  O  O184  1  0.89407539  0.37606521  0.87670177  1
  O  O185  1  0.87155354  0.87205104  0.37284083  1
  O  O186  1  0.89117951  0.86600180  0.86998946  1
  O  O187  1  0.25139649  0.01566916  0.37485107  1
  O  O188  1  0.24116966  0.01461559  0.88062113  1
  O  O189  1  0.25042017  0.50682609  0.36822476  1
  O  O190  1  0.25665375  0.51430089  0.87787913  1
  O  O191  1  0.74559622  0.01378292  0.36267649  1
  O  O192  1  0.75528757  0.00197464  0.86511421  1
  O  O193  1  0.75189136  0.51138915  0.36890133  1
  O  O194  1  0.75048111  0.52367956  0.88514662  1
  O  O195  1  0.24375563  0.49683612  0.13131004  1
  O  O196  1  0.25169853  0.48254393  0.62122627  1
  O  O197  1  0.24019085  0.99248549  0.12040921  1
  O  O198  1  0.23841024  0.99386096  0.62537041  1
  O  O199  1  0.73999453  0.49529340  0.12707142  1
  O  O200  1  0.74544055  0.50235963  0.63151542  1
  O  O201  1  0.75539943  0.99079963  0.13523282  1
  O  O202  1  0.74890753  0.98442601  0.63518731  1
  O  O203  1  0.00560435  0.37284928  0.25457094  1
  O  O204  1  0.00332719  0.36483990  0.75756046  1
  O  O205  1  0.00939476  0.86352703  0.24720740  1
  O  O206  1  0.01025636  0.87702699  0.75717017  1
  O  O207  1  0.50658818  0.36681995  0.25596775  1
  O  O208  1  0.49355183  0.36662500  0.76095528  1
  O  O209  1  0.50560686  0.86899914  0.25323136  1
  O  O210  1  0.49719532  0.85785672  0.73910037  1
  O  O211  1  0.49778942  0.13149186  0.24554825  1
  O  O212  1  0.50667950  0.13177226  0.74145788  1
  O  O213  1  0.49628702  0.63270078  0.24639706  1
  O  O214  1  0.48747891  0.63083113  0.74256877  1
  O  O215  1  0.99355054  0.13217655  0.24147256  1
  O  O216  1  1.00226696  0.13494806  0.74333452  1
  O  O217  1  0.99054276  0.63536242  0.24160293  1
  O  O218  1  0.99160523  0.62848986  0.74100590  1
  O  O219  1  0.36461786  0.25879681  -0.00035197  1
  O  O220  1  0.36528486  0.25822075  0.49757276  1
  O  O221  1  0.37947641  0.76066763  0.01235979  1
  O  O222  1  0.37513170  0.75610005  0.50572297  1
  O  O223  1  0.86835936  0.25283834  0.01042246  1
  O  O224  1  0.86611903  0.25897424  0.51152698  1
  O  O225  1  0.86280833  0.75747890  0.00791014  1
  O  O226  1  0.87354187  0.74701878  0.51512636  1
  O  O227  1  0.13329270  0.24003923  0.49545613  1
  O  O228  1  0.13891119  0.25739304  0.99062610  1
  O  O229  1  0.12329676  0.74019705  0.48963345  1
  O  O230  1  0.12366393  0.75841585  0.99416124  1
  O  O231  1  0.63503929  0.24506262  0.49685521  1
  O  O232  1  0.64087227  0.23972247  1.00708947  1
  O  O233  1  0.62701581  0.72735965  0.50932135  1
  O  O234  1  0.63269185  0.75585102  0.99031535  1
  O  O235  1  0.50095859  0.24370029  0.13646748  1
  O  O236  1  0.49902654  0.24071439  0.63186202  1
  O  O237  1  0.49286339  0.74101763  0.13364439  1
  O  O238  1  0.49325890  0.73543646  0.63206353  1
  O  O239  1  0.99895676  0.24508263  0.13006290  1
  O  O240  1  0.99693739  0.24333803  0.63251782  1
  O  O241  1  0.99038076  0.74762845  0.13246845  1
  O  O242  1  0.98604503  0.73912034  0.62766604  1
  O  O243  1  0.01085480  0.25851603  0.36579951  1
  O  O244  1  0.00923086  0.25485361  0.86985819  1
  O  O245  1  0.00957825  0.74091184  0.36348104  1
  O  O246  1  0.01106016  0.75896011  0.87495852  1
  O  O247  1  0.50672918  0.25679553  0.36535790  1
  O  O248  1  0.49363433  0.26120988  0.86598948  1
  O  O249  1  0.49521598  0.75971263  0.36242972  1
  O  O250  1  0.50726502  0.74022252  0.86381037  1
  O  O251  1  0.24489254  0.13091599  0.49331299  1
  O  O252  1  0.25615898  0.13540311  0.99125597  1
  O  O253  1  0.23872141  0.62452496  0.49483777  1
  O  O254  1  0.25479844  0.62601169  0.99104361  1
  O  O255  1  0.74486369  0.13340961  0.49488123  1
  O  O256  1  0.74905668  0.12918087  0.99998086  1
  O  O257  1  0.74390213  0.62150883  0.48873101  1
  O  O258  1  0.75546621  0.64008203  0.98790617  1
  O  O259  1  0.25918800  0.36773075  0.00436715  1
  O  O260  1  0.25579432  0.36646076  0.50634082  1
  O  O261  1  0.26075100  0.87519109  0.01404270  1
  O  O262  1  0.26314887  0.86905019  0.50659718  1
  O  O263  1  0.75228762  0.36459162  0.00451832  1
  O  O264  1  0.75877513  0.36440628  0.49327423  1
  O  O265  1  0.74953084  0.86978231  0.00707500  1
  O  O266  1  0.75048100  0.88043189  0.51324314  1
  O  O267  1  0.13037230  0.49638315  0.24279411  1
  O  O268  1  0.11457109  0.50310510  0.73244437  1
  O  O269  1  0.11982351  0.98814053  0.23787581  1
  O  O270  1  0.12980128  0.98938109  0.74253452  1
  O  O271  1  0.62458050  0.48598579  0.24774617  1
  O  O272  1  0.61915294  0.49999684  0.73213442  1
  O  O273  1  0.63422749  0.99147223  0.25081973  1
  O  O274  1  0.64454190  1.00093255  0.75210923  1
  O  O275  1  0.38163135  0.01390196  0.25089244  1
  O  O276  1  0.36868816  0.00199368  0.75511559  1
  O  O277  1  0.36915548  0.50664386  0.25096112  1
  O  O278  1  0.37377694  0.50937903  0.75949129  1
  O  O279  1  0.86405161  0.01472965  0.24943602  1
  O  O280  1  0.85996215  0.00311081  0.74136690  1
  O  O281  1  0.87545856  0.51497107  0.25031444  1
  O  O282  1  0.87995962  0.51564670  0.75352683  1
  O  O283  1  0.12084167  0.37238608  0.37106088  1
  O  O284  1  0.12277393  0.36543362  0.87046781  1
  O  O285  1  0.12617664  0.86336042  0.36504591  1
  O  O286  1  0.12148290  0.86706628  0.86950931  1
  O  O287  1  0.61961769  0.37131462  0.36987869  1
  O  O288  1  0.59945453  0.38336271  0.87772584  1
  O  O289  1  0.61770103  0.87584337  0.36256192  1
  O  O290  1  0.62662723  0.86246479  0.86735542  1
  O  O291  1  0.38485868  0.12848148  0.13217787  1
  O  O292  1  0.38742138  0.12606770  0.62276489  1
  O  O293  1  0.38232396  0.63026432  0.13035803  1
  O  O294  1  0.37762780  0.62689058  0.62945151  1
  O  O295  1  0.88480526  0.13261260  0.13411638  1
  O  O296  1  0.88616847  0.13664157  0.62642834  1
  O  O297  1  0.87718736  0.63580585  0.13232279  1
  O  O298  1  0.87717403  0.63382080  0.63040485  1
  O  O299  1  0.25101965  0.25671004  0.11619677  1
  O  O300  1  0.25181509  0.24976917  0.61199347  1
  O  O301  1  0.26196503  0.75727170  0.13116480  1
  O  O302  1  0.25638582  0.75531052  0.62295460  1
  O  O303  1  0.75705318  0.25624144  0.11910890  1
  O  O304  1  0.76026356  0.24221991  0.61876725  1
  O  O305  1  0.75030337  0.75417435  0.11724572  1
  O  O306  1  0.75905512  0.75968329  0.63127389  1
  O  O307  1  0.24455466  0.24628147  0.38524751  1
  O  O308  1  0.24616007  0.24268599  0.88100627  1
  O  O309  1  0.23778779  0.74245177  0.37341585  1
  O  O310  1  0.24147926  0.73426881  0.87396352  1
  O  O311  1  0.74643515  0.24074807  0.38424241  1
  O  O312  1  0.76063795  0.23925507  0.89058427  1
  O  O313  1  0.74078901  0.73213493  0.37013161  1
  O  O314  1  0.74026692  0.74622411  0.88048438  1
  O  O315  1  -0.00250911  0.12176240  0.01099177  1
  O  O316  1  0.01336905  0.13116017  0.51174672  1
  O  O317  1  -0.00840457  0.63125672  0.01563284  1
  O  O318  1  0.00305862  0.61908425  0.50459938  1
  O  O319  1  0.51259098  0.13242451  0.00964180  1
  O  O320  1  0.50961628  0.12617000  0.50528644  1
  O  O321  1  0.49352419  0.63027286  0.01224043  1
  O  O322  1  0.51002514  0.62447695  0.50654500  1
  O  O323  1  0.49089414  0.36272961  0.48987627  1
  O  O324  1  0.48705425  0.36116847  0.98693084  1
  O  O325  1  0.49459887  0.86956236  0.49198571  1
  O  O326  1  0.48389143  0.87542047  1.00973019  1
  O  O327  1  0.99432841  0.38125729  0.49678255  1
  O  O328  1  1.00262591  0.37523577  0.98979753  1
  O  O329  1  0.99924713  0.87707526  0.50412975  1
  O  O330  1  0.99523653  0.88360838  0.99176653  1
  O  O331  1  0.49970327  0.48448728  0.36965995  1
  O  O332  1  0.48391723  0.48833300  0.86958783  1
  O  O333  1  0.49821644  0.98390663  0.37629168  1
  O  O334  1  0.50607114  1.00662568  0.88307772  1
  O  O335  1  0.99500178  0.49565229  0.38477801  1
  O  O336  1  1.00611737  0.49047135  0.87838660  1
  O  O337  1  1.00299288  1.00592973  0.37074797  1
  O  O338  1  1.01192798  0.99158452  0.88542804  1
  O  O339  1  0.01140916  0.01372257  0.11654981  1
  O  O340  1  0.01186013  0.01253317  0.63554252  1
  O  O341  1  0.00847330  0.51115050  0.12438631  1
  O  O342  1  -0.01008088  0.51257931  0.61144089  1
  O  O343  1  0.49758424  0.01278956  0.11881472  1
  O  O344  1  0.50111845  0.01222964  0.62379582  1
  O  O345  1  0.50982176  0.50823768  0.12616878  1
  O  O346  1  0.49280298  0.50993793  0.62836779  1
  O  O347  1  0.24670360  0.37894716  0.24580290  1
  O  O348  1  0.25200251  0.36350928  0.73315891  1
  O  O349  1  0.23967868  0.87042217  0.23944807  1
  O  O350  1  0.24132444  0.87382803  0.74453975  1
  O  O351  1  0.74016714  0.37192330  0.24460708  1
  O  O352  1  0.73988941  0.38648957  0.80409492  1
  O  O353  1  0.74042343  0.88145691  0.24408109  1
  O  O354  1  0.74961665  0.88371650  0.74574819  1
  O  O355  1  0.26391575  0.13678539  0.25910981  1
  O  O356  1  0.25159550  0.12528018  0.76554358  1
  O  O357  1  0.25587923  0.62087273  0.25402841  1
  O  O358  1  0.26021261  0.62896341  0.75317716  1
  O  O359  1  0.75506075  0.12230767  0.25466641  1
  O  O360  1  0.75277371  0.11602429  0.75963241  1
  O  O361  1  0.75563385  0.62578294  0.25716424  1
  O  O362  1  0.75571334  0.63353925  0.76260322  1
  O  O363  1  0.37081533  0.12424500  0.36805717  1
  O  O364  1  0.36188100  0.12156774  0.87687748  1
  O  O365  1  0.36907307  0.62480686  0.36969671  1
  O  O366  1  0.36357778  0.62049153  0.86952370  1
  O  O367  1  0.86494177  0.13150423  0.36398017  1
  O  O368  1  0.86518026  0.12594889  0.87613464  1
  O  O369  1  0.86240703  0.62723720  0.36862465  1
  O  O370  1  0.86486354  0.63200421  0.86586204  1
  O  O371  1  0.13131277  0.38476985  0.13206099  1
  O  O372  1  0.14089042  0.36692115  0.62161766  1
  O  O373  1  0.13221038  0.88030880  0.13190265  1
  O  O374  1  0.12832140  0.87957388  0.63191207  1
  O  O375  1  0.62769275  0.38133406  0.13081283  1
  O  O376  1  0.62714498  0.38839782  0.62526278  1
  O  O377  1  0.63380759  0.87074514  0.13358952  1
  O  O378  1  0.63791880  0.86470312  0.62802229  1
  O  O379  1  0.12194397  0.25851701  0.25388430  1
  O  O380  1  0.11688485  0.25220450  0.75777825  1
  O  O381  1  0.11700847  0.75711950  0.25451125  1
  O  O382  1  0.12189095  0.76113829  0.75408094  1
  O  O383  1  0.61863694  0.25978504  0.25440199  1
  O  O384  1  0.61386298  0.25758919  0.74372438  1
  O  O385  1  0.61327192  0.75908634  0.24307278  1
  O  O386  1  0.61328821  0.74888279  0.75569805  1
  O  O387  1  0.38728476  0.24248453  0.24994422  1
  O  O388  1  0.38984095  0.24121860  0.74736582  1
  O  O389  1  0.38449736  0.74570888  0.24040194  1
  O  O390  1  0.38018245  0.74069505  0.74482227  1
  O  O391  1  0.88005758  0.24232710  0.24464391  1
  O  O392  1  0.88651425  0.24890490  0.74259968  1
  O  O393  1  0.87885532  0.74277683  0.24374173  1
  O  O394  1  0.87707690  0.73953186  0.73860754  1
  O  O395  1  0.36975683  0.48427321  0.49620525  1
  O  O396  1  0.37028139  0.48741685  0.99072141  1
  O  O397  1  0.38012477  0.98547032  0.49731558  1
  O  O398  1  0.37549780  0.98458730  0.99752181  1
  O  O399  1  0.88124291  0.48927914  0.49937071  1
  O  O400  1  0.88024884  0.49759808  0.99382114  1
  O  O401  1  0.87464863  1.00605323  0.50268355  1
  O  O402  1  0.89074584  0.99679530  1.00700773  1
  O  O403  1  0.11358945  -0.00704265  0.01401275  1
  O  O404  1  0.12593379  0.01243762  0.51005431  1
  O  O405  1  0.12617814  0.49638517  0.01506141  1
  O  O406  1  0.11343703  0.51147853  0.49420875  1
  O  O407  1  0.63137872  0.01390256  0.00258762  1
  O  O408  1  0.62525383  0.01409537  0.49164314  1
  O  O409  1  0.63065809  0.48963327  0.00468125  1
  O  O410  1  0.62999520  0.51034373  0.51856743  1
  O  O411  1  0.37128181  0.37460480  0.11703186  1
  O  O412  1  0.36522966  0.36885694  0.61581167  1
  O  O413  1  0.36770723  0.86838383  0.12197527  1
  O  O414  1  0.37086651  0.86852763  0.61683593  1
  O  O415  1  0.86887658  0.37033290  0.12728770  1
  O  O416  1  0.88450803  0.36448770  0.61682602  1
  O  O417  1  0.85673079  0.85995011  0.13061536  1
  O  O418  1  0.86666546  0.86208841  0.62546667  1
  O  O419  1  0.13368792  0.13116942  0.38047681  1
  O  O420  1  0.13595664  0.13799393  0.87258521  1
  O  O421  1  0.12775679  0.63242749  0.38063679  1
  O  O422  1  0.13591812  0.63188128  0.87705900  1
  O  O423  1  0.63316199  0.13224162  0.38128143  1
  O  O424  1  0.64607059  0.12543590  0.88862685  1
  O  O425  1  0.63128284  0.61504654  0.38915110  1
  O  O426  1  0.63535238  0.63431524  0.86769092  1
