# generated using pymatgen
data_V85Zn86O256
_symmetry_space_group_name_H-M   'P 1'
_cell_length_a   16.95626763
_cell_length_b   16.94207019
_cell_length_c   16.95824575
_cell_angle_alpha   89.95667381
_cell_angle_beta   90.04665783
_cell_angle_gamma   90.11547283
_symmetry_Int_Tables_number   1
_chemical_formula_structural   V85Zn86O256
_chemical_formula_sum   'V85 Zn86 O256'
_cell_volume   4871.65487852
_cell_formula_units_Z   1
loop_
 _symmetry_equiv_pos_site_id
 _symmetry_equiv_pos_as_xyz
  1  'x, y, z'
loop_
 _atom_site_type_symbol
 _atom_site_label
 _atom_site_symmetry_multiplicity
 _atom_site_fract_x
 _atom_site_fract_y
 _atom_site_fract_z
 _atom_site_occupancy
  V  V0  1  0.00051933  0.11941788  0.62504263  1
  V  V1  1  0.12619727  0.50087340  0.12327154  1
  V  V2  1  0.74855271  0.37303661  0.62548728  1
  V  V3  1  0.50091612  0.37360147  0.37272005  1
  V  V4  1  0.12352691  0.01201182  0.12185571  1
  V  V5  1  0.25219041  0.50029757  0.24968230  1
  V  V6  1  0.87371790  0.49089182  0.87964528  1
  V  V7  1  0.12408923  0.24726105  0.88064016  1
  V  V8  1  0.48859297  0.62769281  0.62895575  1
  V  V9  1  0.75003970  0.50036030  0.25099248  1
  V  V10  1  0.12671174  0.62958879  -0.00345345  1
  V  V11  1  0.62159782  0.37104580  0.24752708  1
  V  V12  1  0.87541022  0.62831152  0.25075529  1
  V  V13  1  0.87864374  0.24962250  0.12050677  1
  V  V14  1  0.87574820  0.87936200  0.00094208  1
  V  V15  1  0.49531924  0.36989605  0.87258936  1
  V  V16  1  0.87518642  0.88016075  0.49353190  1
  V  V17  1  -0.00011240  0.37039915  0.37165407  1
  V  V18  1  0.26199860  0.75300708  0.50427826  1
  V  V19  1  0.62619774  0.00125252  0.62800314  1
  V  V20  1  0.87626143  0.49801509  0.37705117  1
  V  V21  1  0.00209889  -0.00145114  0.49629818  1
  V  V22  1  0.37345878  0.37755353  -0.00224268  1
  V  V23  1  0.50826341  0.63292357  0.12542781  1
  V  V24  1  0.62124158  0.75240424  0.37059937  1
  V  V25  1  0.87438821  0.62394314  0.75046111  1
  V  V26  1  0.74834321  0.49848528  0.75100444  1
  V  V27  1  0.37970019  0.12568045  0.24903173  1
  V  V28  1  0.37503571  0.50040325  0.37510618  1
  V  V29  1  0.25585336  0.51780182  0.75257767  1
  V  V30  1  0.87354915  0.24403372  0.62757683  1
  V  V31  1  0.49803397  0.12079544  0.62496205  1
  V  V32  1  0.38081832  -0.00178332  0.38978977  1
  V  V33  1  0.87443436  0.74920150  0.62446431  1
  V  V34  1  -0.00378033  0.88014609  0.87346827  1
  V  V35  1  0.48966630  0.74637775  0.74586209  1
  V  V36  1  0.50313810  0.10481358  0.12255228  1
  V  V37  1  0.38588695  0.25186785  0.12788961  1
  V  V38  1  -0.00037693  0.62835188  0.13136988  1
  V  V39  1  0.74903452  0.62546660  0.37584961  1
  V  V40  1  0.62021132  0.11278752  -0.00005662  1
  V  V41  1  0.75114757  0.87878587  0.62876310  1
  V  V42  1  0.87484480  0.37333472  0.49986065  1
  V  V43  1  0.62763125  0.74884719  0.87409598  1
  V  V44  1  0.74669670  0.62471638  0.87944999  1
  V  V45  1  0.74250247  -0.00350794  0.23106283  1
  V  V46  1  0.49869382  0.50048178  0.50201859  1
  V  V47  1  0.62523174  0.62474416  0.50236790  1
  V  V48  1  0.25180817  -0.00941095  0.24739096  1
  V  V49  1  0.12257641  0.87732637  0.73805568  1
  V  V50  1  0.61579412  0.36737608  0.75052423  1
  V  V51  1  0.37985079  0.62924512  0.25100580  1
  V  V52  1  0.12820835  0.74910995  0.87638900  1
  V  V53  1  0.49631336  0.88175752  0.87595426  1
  V  V54  1  -0.00088527  0.87339360  0.36844740  1
  V  V55  1  0.12793780  0.38115332  0.74395195  1
  V  V56  1  0.37062388  0.75699056  0.12782423  1
  V  V57  1  0.37463902  0.37420136  0.50024866  1
  V  V58  1  0.87974155  0.12060251  0.24982881  1
  V  V59  1  -0.00211869  0.24618070  0.74953761  1
  V  V60  1  0.75924091  0.11933829  0.87200249  1
  V  V61  1  0.74917526  0.75035529  0.50088519  1
  V  V62  1  0.50772932  0.50279745  0.00077493  1
  V  V63  1  0.24371127  0.12491375  0.88215560  1
  V  V64  1  0.49878963  0.87332627  0.38562028  1
  V  V65  1  0.12562437  0.11970204  0.50146023  1
  V  V66  1  0.75193383  0.75408504  -0.00200860  1
  V  V67  1  0.25170142  0.37537581  0.12383390  1
  V  V68  1  0.12513451  0.37335023  0.24913114  1
  V  V69  1  0.75331467  0.37399436  0.11790851  1
  V  V70  1  0.62067869  0.24786211  0.37059470  1
  V  V71  1  0.37833662  0.25208603  0.62900764  1
  V  V72  1  0.00600456  0.61697476  0.62177696  1
  V  V73  1  0.37779481  0.12941514  0.75275910  1
  V  V74  1  0.24385253  0.00303864  0.74738328  1
  V  V75  1  -0.00055700  0.74981413  0.74856107  1
  V  V76  1  0.00351034  0.01115480  0.00155253  1
  V  V77  1  -0.00483686  0.49460498  -0.00043320  1
  V  V78  1  0.87599446  0.75278778  0.12764075  1
  V  V79  1  0.24900603  0.24835348  0.49955179  1
  V  V80  1  0.62376664  0.49966271  0.62614429  1
  V  V81  1  0.12147602  0.74769585  0.37313177  1
  V  V82  1  0.74973834  0.11508646  0.37346370  1
  V  V83  1  0.26718659  0.87793497  0.62073276  1
  V  V84  1  0.61989318  0.12130614  0.49958661  1
  Zn  Zn85  1  0.37048818  0.52992824  0.87363015  1
  Zn  Zn86  1  0.00509591  0.24097259  0.24374167  1
  Zn  Zn87  1  0.24964544  0.12026946  0.37363714  1
  Zn  Zn88  1  0.78364607  0.01032819  0.75251461  1
  Zn  Zn89  1  0.37133703  0.88175163  0.00270044  1
  Zn  Zn90  1  0.23200263  0.86520494  0.10112831  1
  Zn  Zn91  1  0.61673478  0.88440648  0.23660073  1
  Zn  Zn92  1  0.62800121  0.87875359  0.75163881  1
  Zn  Zn93  1  0.37609789  0.00589349  0.88325030  1
  Zn  Zn94  1  0.75002373  0.24772808  0.49784415  1
  Zn  Zn95  1  0.62979372  0.50790519  0.12273193  1
  Zn  Zn96  1  0.24489894  0.24531559  0.00421796  1
  Zn  Zn97  1  0.62167997  0.24798552  0.87842937  1
  Zn  Zn98  1  0.28737532  0.71425225  -0.04379727  1
  Zn  Zn99  1  0.01232352  0.49195394  0.50582856  1
  Zn  Zn100  1  0.13160726  0.61929191  0.50424945  1
  Zn  Zn101  1  0.12585444  0.24627712  0.37131081  1
  Zn  Zn102  1  0.11865449  0.86880653  0.24421606  1
  Zn  Zn103  1  0.24286268  0.38483853  0.61969476  1
  Zn  Zn104  1  -0.00237912  0.37180312  0.87692779  1
  Zn  Zn105  1  0.25093588  0.62652457  0.37814714  1
  Zn  Zn106  1  0.74752246  0.25136990  -0.00280238  1
  Zn  Zn107  1  0.19528584  0.18748310  0.18892292  1
  Zn  Zn108  1  0.18516677  0.19078977  0.68775861  1
  Zn  Zn109  1  0.19003877  0.68495223  0.18905736  1
  Zn  Zn110  1  0.18862078  0.69458938  0.68635483  1
  Zn  Zn111  1  0.68798154  0.18580732  0.18508631  1
  Zn  Zn112  1  0.68700205  0.18707607  0.69060351  1
  Zn  Zn113  1  0.66627542  0.73006070  0.16296511  1
  Zn  Zn114  1  0.68477491  0.68765491  0.68979707  1
  Zn  Zn115  1  0.31297113  0.31096050  0.31223128  1
  Zn  Zn116  1  0.30861292  0.31418958  0.81489125  1
  Zn  Zn117  1  0.31537113  0.81226638  0.31680163  1
  Zn  Zn118  1  0.31278782  0.81390944  0.80479135  1
  Zn  Zn119  1  0.81060177  0.30626917  0.30902601  1
  Zn  Zn120  1  0.80655556  0.30650545  0.81187942  1
  Zn  Zn121  1  0.80872341  0.81433776  0.31050678  1
  Zn  Zn122  1  0.81616423  0.81536788  0.81204859  1
  Zn  Zn123  1  0.18615505  0.43810307  0.43625755  1
  Zn  Zn124  1  0.18571607  0.43919077  0.93230313  1
  Zn  Zn125  1  0.18856948  0.93592708  0.43573736  1
  Zn  Zn126  1  0.18927929  0.93416719  0.93567832  1
  Zn  Zn127  1  0.68729780  0.43577972  0.43907601  1
  Zn  Zn128  1  0.68394991  0.43668761  0.93537982  1
  Zn  Zn129  1  0.68409384  0.93730490  0.43909549  1
  Zn  Zn130  1  0.68680309  0.93823663  0.93670972  1
  Zn  Zn131  1  0.31345844  0.05575871  0.06247592  1
  Zn  Zn132  1  0.30862501  0.06375552  0.56766681  1
  Zn  Zn133  1  0.31852542  0.56661150  0.05861531  1
  Zn  Zn134  1  0.30705477  0.56121416  0.56707837  1
  Zn  Zn135  1  0.81329139  0.06606104  0.05894801  1
  Zn  Zn136  1  0.81203610  0.06190978  0.55846448  1
  Zn  Zn137  1  0.81180046  0.56499994  0.06294230  1
  Zn  Zn138  1  0.81519574  0.55983247  0.56232007  1
  Zn  Zn139  1  0.44035627  0.44228944  0.18534622  1
  Zn  Zn140  1  0.43105547  0.44251584  0.69018051  1
  Zn  Zn141  1  0.44110319  0.93462351  0.20083263  1
  Zn  Zn142  1  0.43975957  0.94164909  0.69532233  1
  Zn  Zn143  1  0.93761020  0.43674952  0.18730040  1
  Zn  Zn144  1  0.93578337  0.43365162  0.69130683  1
  Zn  Zn145  1  0.93557563  0.94261776  0.18386467  1
  Zn  Zn146  1  0.93808047  0.93901326  0.68291491  1
  Zn  Zn147  1  0.06555629  0.05736817  0.31384215  1
  Zn  Zn148  1  0.05741305  0.06120199  0.81165162  1
  Zn  Zn149  1  0.06371140  0.55964847  0.31466673  1
  Zn  Zn150  1  0.06223788  0.56209851  0.81238446  1
  Zn  Zn151  1  0.56006479  0.05831628  0.31049393  1
  Zn  Zn152  1  0.56661133  0.06525473  0.80985162  1
  Zn  Zn153  1  0.56312165  0.56217094  0.31157276  1
  Zn  Zn154  1  0.55999623  0.55993462  0.81399795  1
  Zn  Zn155  1  0.43823118  0.18620566  0.43834821  1
  Zn  Zn156  1  0.43550387  0.18781523  0.94218465  1
  Zn  Zn157  1  0.43943470  0.68745606  0.43961387  1
  Zn  Zn158  1  0.45269887  0.69223677  0.94379300  1
  Zn  Zn159  1  0.93492335  0.18641465  0.43546105  1
  Zn  Zn160  1  0.93626985  0.18991836  0.93839012  1
  Zn  Zn161  1  0.93660382  0.68860081  0.43851838  1
  Zn  Zn162  1  0.93948573  0.68633439  0.93801678  1
  Zn  Zn163  1  0.06091017  0.31262278  0.06336317  1
  Zn  Zn164  1  0.06160707  0.30857381  0.56054270  1
  Zn  Zn165  1  0.05876584  0.81489385  0.06141033  1
  Zn  Zn166  1  0.06393936  0.80646045  0.55706265  1
  Zn  Zn167  1  0.56606067  0.31049502  0.05961912  1
  Zn  Zn168  1  0.56104763  0.30856065  0.56088941  1
  Zn  Zn169  1  0.56196442  0.82559058  0.05771853  1
  Zn  Zn170  1  0.56054977  0.81430155  0.56159444  1
  O  O171  1  0.13186182  0.11121260  0.12635239  1
  O  O172  1  0.11264639  0.13311963  0.61296034  1
  O  O173  1  0.11571508  0.62217132  0.12171027  1
  O  O174  1  0.10778861  0.63208392  0.62686813  1
  O  O175  1  0.61004761  0.12797083  0.11758827  1
  O  O176  1  0.61812547  0.12219752  0.62014236  1
  O  O177  1  0.61177315  0.63000723  0.13514495  1
  O  O178  1  0.61984418  0.61837999  0.62061112  1
  O  O179  1  0.38117176  0.37925165  0.37929867  1
  O  O180  1  0.37924097  0.37400670  0.88549775  1
  O  O181  1  0.38617957  0.88686733  0.37463086  1
  O  O182  1  0.38983950  0.87320372  0.86718812  1
  O  O183  1  0.87990722  0.37643148  0.37796219  1
  O  O184  1  0.87280488  0.38732013  0.86957153  1
  O  O185  1  0.88370000  0.86303222  0.38728693  1
  O  O186  1  0.88809947  0.87068646  0.88392396  1
  O  O187  1  0.26297752  -0.00187477  0.36804484  1
  O  O188  1  0.24805475  0.00849194  0.86360567  1
  O  O189  1  0.25844352  0.50206111  0.36826846  1
  O  O190  1  0.25059156  0.49737884  0.85864730  1
  O  O191  1  0.74426432  0.01241471  0.37236192  1
  O  O192  1  0.74342372  0.01399659  0.87119187  1
  O  O193  1  0.75496280  0.50346902  0.36959200  1
  O  O194  1  0.75453309  0.50656590  0.87282830  1
  O  O195  1  0.24602094  0.49569187  0.12954215  1
  O  O196  1  0.25284161  0.49729585  0.64384824  1
  O  O197  1  0.23912128  0.99221132  0.12911616  1
  O  O198  1  0.25110691  0.98812732  0.63335287  1
  O  O199  1  0.75076778  0.49496221  0.13371733  1
  O  O200  1  0.74460215  0.49360991  0.63084941  1
  O  O201  1  0.74892686  1.00207110  0.13190660  1
  O  O202  1  0.74635178  0.99440644  0.62769198  1
  O  O203  1  0.00638736  0.37386127  0.25683626  1
  O  O204  1  0.00966873  0.36523679  0.75128809  1
  O  O205  1  -0.00442470  0.88388352  0.26521254  1
  O  O206  1  0.00598278  0.87055044  0.75420029  1
  O  O207  1  0.51364703  0.38501835  0.25656680  1
  O  O208  1  0.50478903  0.38580469  0.76059782  1
  O  O209  1  0.50827463  0.88333914  0.27407348  1
  O  O210  1  0.50431274  0.86135804  0.75441255  1
  O  O211  1  0.49110334  0.11828077  0.23533418  1
  O  O212  1  0.48658325  0.12255035  0.74259927  1
  O  O213  1  0.48984682  0.61552809  0.23819243  1
  O  O214  1  0.50677577  0.63702561  0.74423464  1
  O  O215  1  0.98379680  0.12077256  0.25794413  1
  O  O216  1  1.00962178  0.13642143  0.73794689  1
  O  O217  1  0.99254341  0.61653068  0.23915826  1
  O  O218  1  0.99440764  0.62902104  0.74107238  1
  O  O219  1  0.37237869  0.26192336  0.00955162  1
  O  O220  1  0.36876095  0.25284043  0.50729980  1
  O  O221  1  0.37872128  0.75598311  0.01955174  1
  O  O222  1  0.36080838  0.75340369  0.49373214  1
  O  O223  1  0.87012151  0.24386608  0.01677523  1
  O  O224  1  0.87349659  0.25504217  0.50981505  1
  O  O225  1  0.87190650  0.75793597  0.00404338  1
  O  O226  1  0.86844277  0.75776515  0.50539462  1
  O  O227  1  0.13362897  0.24175818  0.49727827  1
  O  O228  1  0.12346171  0.25622152  0.98585889  1
  O  O229  1  0.13490269  0.74584580  0.48976667  1
  O  O230  1  0.11570847  0.74297819  0.98899202  1
  O  O231  1  0.62716401  0.23937896  0.49198623  1
  O  O232  1  0.62798328  0.23754031  0.99932430  1
  O  O233  1  0.63073009  0.74418811  0.49417009  1
  O  O234  1  0.63862700  0.75734044  0.98341290  1
  O  O235  1  0.48770808  0.24970635  0.12429630  1
  O  O236  1  0.48704541  0.23894937  0.62097721  1
  O  O237  1  0.49123008  0.73585089  0.12269171  1
  O  O238  1  0.50983750  0.74396676  0.63868045  1
  O  O239  1  0.98429233  0.25587186  0.12656816  1
  O  O240  1  0.99190417  0.24207503  0.63000644  1
  O  O241  1  0.98958218  0.73770702  0.11917944  1
  O  O242  1  0.99288570  0.74171288  0.62898372  1
  O  O243  1  -0.00052719  0.26078924  0.37066690  1
  O  O244  1  0.00388986  0.24894903  0.86658535  1
  O  O245  1  0.01310162  0.75713348  0.38223353  1
  O  O246  1  0.00543486  0.75846369  0.86809521  1
  O  O247  1  0.51195903  0.25590521  0.37938587  1
  O  O248  1  0.49842110  0.26597457  0.88029045  1
  O  O249  1  0.50634342  0.76263791  0.38297818  1
  O  O250  1  0.51000314  0.75376890  0.86352007  1
  O  O251  1  0.24133199  0.13046149  0.50136726  1
  O  O252  1  0.25415996  0.12462727  0.98564697  1
  O  O253  1  0.25110383  0.64077284  0.50285121  1
  O  O254  1  0.22948344  0.62673722  1.01262155  1
  O  O255  1  0.74086459  0.12645178  0.49172725  1
  O  O256  1  0.73626494  0.12408632  0.99246702  1
  O  O257  1  0.74588430  0.62883918  0.49559805  1
  O  O258  1  0.75737372  0.63592332  0.98684273  1
  O  O259  1  0.25885774  0.37841023  0.00544382  1
  O  O260  1  0.25542598  0.36567254  0.50099956  1
  O  O261  1  0.25638611  0.86164301  -0.00935521  1
  O  O262  1  0.24603234  0.86978102  0.51400364  1
  O  O263  1  0.74420357  0.37649861  0.01405752  1
  O  O264  1  0.75521385  0.37137656  0.50760047  1
  O  O265  1  0.76425732  0.86643752  -0.01153381  1
  O  O266  1  0.75729446  0.87273988  0.50752443  1
  O  O267  1  0.13177986  0.49507804  0.24329883  1
  O  O268  1  0.12950977  0.48601679  0.75555202  1
  O  O269  1  0.13259099  0.99743661  0.23945493  1
  O  O270  1  0.13394100  0.99059955  0.75370363  1
  O  O271  1  0.63646311  0.49191473  0.25111697  1
  O  O272  1  0.62919373  0.49176324  0.74526198  1
  O  O273  1  0.63789406  1.00304586  0.24781619  1
  O  O274  1  0.62758333  0.99995900  0.73452548  1
  O  O275  1  0.36817171  0.00840891  0.25448066  1
  O  O276  1  0.36307995  0.01157659  0.75415581  1
  O  O277  1  0.37115764  0.50652594  0.25504910  1
  O  O278  1  0.36222395  0.50494596  0.75657963  1
  O  O279  1  0.86339086  0.01519571  0.24053187  1
  O  O280  1  0.89380971  0.00556580  0.75603722  1
  O  O281  1  0.86670555  0.50422205  0.25578639  1
  O  O282  1  0.86781677  0.50339806  0.75915076  1
  O  O283  1  0.11632761  0.37205696  0.36738284  1
  O  O284  1  0.12174931  0.36488051  0.86356009  1
  O  O285  1  0.11667932  0.86550441  0.37444472  1
  O  O286  1  0.11431979  0.86798551  0.86551996  1
  O  O287  1  0.62236061  0.36711837  0.36879952  1
  O  O288  1  0.61417100  0.37586822  0.86629795  1
  O  O289  1  0.61704253  0.86823097  0.37747018  1
  O  O290  1  0.61588998  0.86887962  0.87162484  1
  O  O291  1  0.38570113  0.12969472  0.12807166  1
  O  O292  1  0.38013272  0.13028806  0.63171230  1
  O  O293  1  0.38162771  0.63386788  0.13313622  1
  O  O294  1  0.39010478  0.62432007  0.62061111  1
  O  O295  1  0.86684677  0.13842279  0.13756816  1
  O  O296  1  0.88531021  0.13464094  0.61619724  1
  O  O297  1  0.88253868  0.63071048  0.12980326  1
  O  O298  1  0.87998128  0.63002987  0.63119806  1
  O  O299  1  0.26067922  0.25671635  0.12166460  1
  O  O300  1  0.25930812  0.24870742  0.61366207  1
  O  O301  1  0.26513773  0.75262533  0.13103512  1
  O  O302  1  0.24859883  0.76437384  0.61560483  1
  O  O303  1  0.75815172  0.25851393  0.12585915  1
  O  O304  1  0.75906331  0.25328158  0.62655795  1
  O  O305  1  0.76606018  0.73888482  0.10661954  1
  O  O306  1  0.75292285  0.75834010  0.62067492  1
  O  O307  1  0.25317965  0.24455588  0.38842730  1
  O  O308  1  0.24057574  0.24211010  0.87706818  1
  O  O309  1  0.24181631  0.75484633  0.38933347  1
  O  O310  1  0.23275401  0.75494068  0.86365030  1
  O  O311  1  0.73677803  0.23917091  0.37444471  1
  O  O312  1  0.74380060  0.23840253  0.87808492  1
  O  O313  1  0.74368901  0.74537777  0.38296055  1
  O  O314  1  0.74834517  0.74373231  0.87788587  1
  O  O315  1  -0.00198165  0.10936711  -0.00530463  1
  O  O316  1  0.00511137  0.11844111  0.50242860  1
  O  O317  1  0.00596275  0.61682551  0.01014176  1
  O  O318  1  -0.00351160  0.62399561  0.51533120  1
  O  O319  1  0.50660657  0.12573391  0.01180569  1
  O  O320  1  0.50967945  0.12747726  0.51053900  1
  O  O321  1  0.50106628  0.61672485  0.01705199  1
  O  O322  1  0.50570026  0.62082990  0.50894822  1
  O  O323  1  0.49487672  0.38045027  0.49437923  1
  O  O324  1  0.49374000  0.38268584  0.99366608  1
  O  O325  1  0.50546474  0.88028514  0.48715313  1
  O  O326  1  0.49592176  0.86698249  0.97931136  1
  O  O327  1  0.99403451  0.37282356  0.49043175  1
  O  O328  1  1.00316753  0.39063703  0.99804789  1
  O  O329  1  0.99426363  0.88019491  0.49484535  1
  O  O330  1  0.99290016  0.88080580  0.99055132  1
  O  O331  1  0.49527501  0.49520066  0.38291382  1
  O  O332  1  0.49274781  0.49676830  0.88493267  1
  O  O333  1  0.48780337  0.99616777  0.37854319  1
  O  O334  1  0.50072741  0.98345456  0.86157348  1
  O  O335  1  0.99348630  0.48701455  0.37437073  1
  O  O336  1  0.98962092  0.50046043  0.88189965  1
  O  O337  1  1.00431645  0.98901221  0.38775223  1
  O  O338  1  1.01220741  0.99052070  0.89098327  1
  O  O339  1  0.01349405  -0.00099370  0.11588705  1
  O  O340  1  -0.00048528  0.00945611  0.60959728  1
  O  O341  1  0.00368327  0.50702097  0.11830034  1
  O  O342  1  -0.00732542  0.51358647  0.62756112  1
  O  O343  1  0.49795827  0.00634867  0.12444502  1
  O  O344  1  0.50756104  0.01188273  0.62951981  1
  O  O345  1  0.50440020  0.51057929  0.11836114  1
  O  O346  1  0.50379678  0.50787772  0.62172798  1
  O  O347  1  0.24596642  0.38003368  0.24433783  1
  O  O348  1  0.23547847  0.37371421  0.74686355  1
  O  O349  1  0.25161333  0.88603265  0.25178048  1
  O  O350  1  0.24392574  0.88091571  0.73744249  1
  O  O351  1  0.74297801  0.38353534  0.24487518  1
  O  O352  1  0.73869111  0.37938167  0.74521933  1
  O  O353  1  0.75157850  0.89546111  0.25603315  1
  O  O354  1  0.75377730  0.87842850  0.73677573  1
  O  O355  1  0.26133914  0.11187741  0.25045715  1
  O  O356  1  0.25438723  0.11892698  0.75286008  1
  O  O357  1  0.26200346  0.61777727  0.25256685  1
  O  O358  1  0.24163442  0.61661797  0.74856879  1
  O  O359  1  0.75343998  0.11480915  0.25418422  1
  O  O360  1  0.74377589  0.12522282  0.76632447  1
  O  O361  1  0.75647021  0.61202350  0.25801982  1
  O  O362  1  0.75475631  0.61887129  0.75780148  1
  O  O363  1  0.37884464  0.11431655  0.36703473  1
  O  O364  1  0.36591679  0.12983380  0.86623986  1
  O  O365  1  0.37715114  0.61983075  0.36751974  1
  O  O366  1  0.36215395  0.63308785  0.91626742  1
  O  O367  1  0.86208515  0.13342531  0.36069497  1
  O  O368  1  0.85771323  0.12692740  0.88415606  1
  O  O369  1  0.87041780  0.62056238  0.37100474  1
  O  O370  1  0.86730289  0.61794679  0.86918372  1
  O  O371  1  0.13079153  0.38089503  0.12883519  1
  O  O372  1  0.12282071  0.36755463  0.63947798  1
  O  O373  1  0.12170962  0.88057769  0.12967537  1
  O  O374  1  0.12455008  0.86974038  0.63608484  1
  O  O375  1  0.63303538  0.37500202  0.13496459  1
  O  O376  1  0.62581513  0.37923398  0.63055442  1
  O  O377  1  0.63445495  0.83782315  0.13644720  1
  O  O378  1  0.63587645  0.88391236  0.62197198  1
  O  O379  1  0.12402171  0.25510676  0.24994629  1
  O  O380  1  0.11666553  0.25806764  0.75738016  1
  O  O381  1  0.13579330  0.75179018  0.26814279  1
  O  O382  1  0.11807727  0.75851119  0.75612342  1
  O  O383  1  0.63037724  0.25981973  0.25838680  1
  O  O384  1  0.62253611  0.26448896  0.74971270  1
  O  O385  1  0.63200703  0.74384230  0.27174968  1
  O  O386  1  0.62442464  0.75529075  0.76168533  1
  O  O387  1  0.36744473  0.23610688  0.24188166  1
  O  O388  1  0.36363540  0.24104242  0.73948370  1
  O  O389  1  0.37354769  0.73899800  0.24494924  1
  O  O390  1  0.39096280  0.74790322  0.75112950  1
  O  O391  1  0.87556948  0.23809130  0.24115323  1
  O  O392  1  0.88613795  0.25678510  0.73949650  1
  O  O393  1  0.86422574  0.74336735  0.23738458  1
  O  O394  1  0.88003740  0.74489982  0.74449383  1
  O  O395  1  0.37837788  0.49426354  0.49610743  1
  O  O396  1  0.38532307  0.48772103  1.00524136  1
  O  O397  1  0.36936325  1.00684244  0.48772177  1
  O  O398  1  0.37705107  0.99478228  0.99541579  1
  O  O399  1  0.87806446  0.49079353  0.49367711  1
  O  O400  1  0.88309960  0.50799740  0.99091646  1
  O  O401  1  0.88393141  0.98851945  0.50158607  1
  O  O402  1  0.89160952  0.99092968  1.01285744  1
  O  O403  1  0.11704697  -0.00534537  0.01198377  1
  O  O404  1  0.11866635  0.00983037  0.49620631  1
  O  O405  1  0.11623261  0.50849989  0.00317538  1
  O  O406  1  0.12453146  0.50619884  0.49858563  1
  O  O407  1  0.62471392  0.01280376  0.00081905  1
  O  O408  1  0.63077347  0.01229778  0.51300590  1
  O  O409  1  0.61293590  0.49679198  0.00318332  1
  O  O410  1  0.61870426  0.50384949  0.50604302  1
  O  O411  1  0.37266126  0.36994127  0.12064988  1
  O  O412  1  0.37516983  0.36600879  0.61961842  1
  O  O413  1  0.38416170  0.85985605  0.13422276  1
  O  O414  1  0.36567030  0.87824824  0.62873175  1
  O  O415  1  0.86443564  0.36229125  0.13536444  1
  O  O416  1  0.86975305  0.36598799  0.62068576  1
  O  O417  1  0.88523201  0.86348510  0.11422753  1
  O  O418  1  0.86917724  0.86965904  0.61421126  1
  O  O419  1  0.12748054  0.12671260  0.38531129  1
  O  O420  1  0.13343021  0.13509806  0.86527046  1
  O  O421  1  0.12649518  0.63749382  0.37584868  1
  O  O422  1  0.11411133  0.63616372  0.88442254  1
  O  O423  1  0.62586163  0.12928440  0.38052295  1
  O  O424  1  0.62142202  0.12711089  0.88837864  1
  O  O425  1  0.62779950  0.62964537  0.38367173  1
  O  O426  1  0.63765965  0.63238073  0.86892296  1
