# generated using pymatgen
data_V85Zn86O256
_symmetry_space_group_name_H-M   'P 1'
_cell_length_a   16.99780940
_cell_length_b   16.96566448
_cell_length_c   16.97264357
_cell_angle_alpha   90.10008616
_cell_angle_beta   89.83817149
_cell_angle_gamma   90.22058906
_symmetry_Int_Tables_number   1
_chemical_formula_structural   V85Zn86O256
_chemical_formula_sum   'V85 Zn86 O256'
_cell_volume   4894.49303525
_cell_formula_units_Z   1
loop_
 _symmetry_equiv_pos_site_id
 _symmetry_equiv_pos_as_xyz
  1  'x, y, z'
loop_
 _atom_site_type_symbol
 _atom_site_label
 _atom_site_symmetry_multiplicity
 _atom_site_fract_x
 _atom_site_fract_y
 _atom_site_fract_z
 _atom_site_occupancy
  V  V0  1  0.24988432  0.62404097  0.37537887  1
  V  V1  1  0.62480257  0.87783828  0.75051798  1
  V  V2  1  0.36844897  0.37401284  0.49932622  1
  V  V3  1  0.61633121  0.61763359  0.50235798  1
  V  V4  1  0.75249845  0.01749670  0.75378155  1
  V  V5  1  0.12360825  0.12545786  0.50000719  1
  V  V6  1  0.87996033  0.37951753  -0.00685628  1
  V  V7  1  0.49471308  0.87231611  0.88088005  1
  V  V8  1  0.74985316  0.50043384  0.25110497  1
  V  V9  1  0.88176350  -0.00050559  0.37626657  1
  V  V10  1  0.75593177  0.25432054  0.50134045  1
  V  V11  1  0.74759790  0.37172738  0.11992310  1
  V  V12  1  0.51953065  0.11487605  0.12498402  1
  V  V13  1  0.87828776  0.87097911  -0.01093265  1
  V  V14  1  0.25739510  0.13243549  0.37580590  1
  V  V15  1  0.37037310  0.25050358  0.62542023  1
  V  V16  1  0.12786469  -0.00443336  0.12230743  1
  V  V17  1  0.12733408  0.12228436  -0.00301233  1
  V  V18  1  -0.00238034  0.12337418  0.62986732  1
  V  V19  1  0.75165696  0.12396202  0.37397011  1
  V  V20  1  0.50120291  0.74672124  0.23930086  1
  V  V21  1  0.00957295  0.75863101  0.74997354  1
  V  V22  1  0.37493101  -0.00613919  0.88118474  1
  V  V23  1  0.11522612  0.62291398  0.50338469  1
  V  V24  1  0.62510261  0.12836910  0.49971977  1
  V  V25  1  0.10950011  0.25239085  0.37488942  1
  V  V26  1  0.76132269  0.87016756  0.12524423  1
  V  V27  1  0.37014628  0.50588134  0.87653472  1
  V  V28  1  0.49895699  -0.00084858  0.49956313  1
  V  V29  1  0.37500268  0.37538554  0.00392172  1
  V  V30  1  0.50079537  0.74454593  0.74037302  1
  V  V31  1  0.62966793  0.23938159  0.88419851  1
  V  V32  1  0.00555949  0.62156471  0.11390488  1
  V  V33  1  0.12043776  -0.00322281  0.62238018  1
  V  V34  1  0.88129740  0.87955232  0.50047239  1
  V  V35  1  0.62867574  0.75016683  0.87097040  1
  V  V36  1  0.12429170  0.49928329  0.12273583  1
  V  V37  1  0.75235919  0.38402753  0.62728635  1
  V  V38  1  0.12004905  0.25282604  0.87523179  1
  V  V39  1  0.62254454  0.37425278  0.25035541  1
  V  V40  1  0.75045759  0.87985741  0.62538475  1
  V  V41  1  0.49838749  0.37635024  0.37700409  1
  V  V42  1  0.37690011  0.50029282  0.37892985  1
  V  V43  1  -0.00234408  0.48123918  0.49497472  1
  V  V44  1  0.75043881  -0.00115832  0.24706782  1
  V  V45  1  0.24510132  0.36967548  0.62204067  1
  V  V46  1  0.00095402  0.74498291  0.24912400  1
  V  V47  1  0.11473041  0.37511149  0.75535133  1
  V  V48  1  0.75463863  0.62405357  0.37479144  1
  V  V49  1  0.37965586  0.62610438  0.24421253  1
  V  V50  1  0.62548412  0.00238495  0.62572685  1
  V  V51  1  0.12870866  0.87275656  0.25001849  1
  V  V52  1  0.25754664  0.00080120  0.25196704  1
  V  V53  1  0.87815886  0.48440283  0.37812395  1
  V  V54  1  0.00226853  0.87612708  0.37589932  1
  V  V55  1  0.49999341  0.37386632  0.87842514  1
  V  V56  1  0.87645576  0.74377971  0.62888964  1
  V  V57  1  0.12579989  0.74889692  0.37642226  1
  V  V58  1  0.25043439  0.24754911  0.00063298  1
  V  V59  1  0.62139630  0.50569772  0.12592511  1
  V  V60  1  0.24996076  0.37289701  0.13223752  1
  V  V61  1  0.25068517  0.74918435  0.50368634  1
  V  V62  1  0.49684610  0.25056749  0.75153146  1
  V  V63  1  0.37579998  0.23732220  0.13330581  1
  V  V64  1  0.49981603  0.50558023  0.00525589  1
  V  V65  1  0.00297438  -0.00772148  -0.00975846  1
  V  V66  1  0.75249877  0.61325749  0.86250988  1
  V  V67  1  0.10680877  0.36875271  0.25210318  1
  V  V68  1  0.24734973  -0.00329947  0.74951179  1
  V  V69  1  0.11691625  0.50193122  0.62485980  1
  V  V70  1  0.38050539  0.62120718  0.73895217  1
  V  V71  1  0.24723979  0.50329107  0.75344950  1
  V  V72  1  0.62709139  0.87565539  0.23900065  1
  V  V73  1  0.62443470  0.25051945  0.37485795  1
  V  V74  1  0.62526402  0.63127636  0.00218192  1
  V  V75  1  0.63016032  0.38190016  0.75240405  1
  V  V76  1  0.50156882  0.87481865  0.37236246  1
  V  V77  1  0.87208775  0.01981499  0.87201412  1
  V  V78  1  0.87424982  0.24607570  0.63217745  1
  V  V79  1  0.25750157  0.87131370  0.11376302  1
  V  V80  1  0.12608129  0.75283486  0.88326466  1
  V  V81  1  0.24732213  0.87222237  0.62907446  1
  V  V82  1  0.74901020  0.75156477  0.49783387  1
  V  V83  1  0.00123483  0.12690897  0.13155096  1
  V  V84  1  0.25643773  0.72780646  -0.00385852  1
  Zn  Zn85  1  0.87725212  0.62241373  0.24731172  1
  Zn  Zn86  1  0.49444979  0.23882634  0.25518322  1
  Zn  Zn87  1  0.88839810  0.48817480  0.85718308  1
  Zn  Zn88  1  0.37441588  0.87526749  0.49869600  1
  Zn  Zn89  1  0.62545755  0.74867851  0.37252241  1
  Zn  Zn90  1  -0.00923516  0.24751407  0.76036966  1
  Zn  Zn91  1  0.88121065  0.74374630  0.11822527  1
  Zn  Zn92  1  0.25394204  0.12488825  0.87309488  1
  Zn  Zn93  1  0.37485425  0.12240357  0.75113382  1
  Zn  Zn94  1  -0.12169336  0.61185109  0.73852565  1
  Zn  Zn95  1  0.01188968  0.49507690  0.98270301  1
  Zn  Zn96  1  0.88563291  0.13280897  0.25665840  1
  Zn  Zn97  1  0.50620766  0.00587112  0.00031021  1
  Zn  Zn98  1  0.38697600  0.75069459  0.11248771  1
  Zn  Zn99  1  0.76016428  0.74479701  -0.00364587  1
  Zn  Zn100  1  0.60412568  0.51569951  0.63445977  1
  Zn  Zn101  1  0.75603245  0.23599483  -0.00084135  1
  Zn  Zn102  1  0.37835772  0.74655659  0.62137499  1
  Zn  Zn103  1  0.88702325  0.25983749  0.13070252  1
  Zn  Zn104  1  0.37834991  0.00534275  0.37126464  1
  Zn  Zn105  1  0.24697763  0.50080967  0.25297253  1
  Zn  Zn106  1  0.49672855  0.12721002  0.62304532  1
  Zn  Zn107  1  0.18451730  0.18483116  0.19261088  1
  Zn  Zn108  1  0.18524547  0.18367096  0.69271315  1
  Zn  Zn109  1  0.19067568  0.68629850  0.18517625  1
  Zn  Zn110  1  0.18312061  0.68269446  0.69770396  1
  Zn  Zn111  1  0.69108429  0.18678460  0.18987287  1
  Zn  Zn112  1  0.68084018  0.19590691  0.68633670  1
  Zn  Zn113  1  0.68842401  0.69020920  0.18783934  1
  Zn  Zn114  1  0.68922515  0.68816975  0.68350509  1
  Zn  Zn115  1  0.30747947  0.31113733  0.31268145  1
  Zn  Zn116  1  0.30809843  0.31700600  0.81350611  1
  Zn  Zn117  1  0.31571493  0.81307356  0.31125855  1
  Zn  Zn118  1  0.31237216  0.80831977  0.81333879  1
  Zn  Zn119  1  0.81187127  0.30931903  0.30688861  1
  Zn  Zn120  1  0.80858549  0.30964292  0.81191825  1
  Zn  Zn121  1  0.81676312  0.81131887  0.31170587  1
  Zn  Zn122  1  0.80862164  0.81871685  0.81079508  1
  Zn  Zn123  1  0.18521234  0.43508627  0.43599187  1
  Zn  Zn124  1  0.19002294  0.43389373  0.93885326  1
  Zn  Zn125  1  0.18798253  0.93994751  0.43975312  1
  Zn  Zn126  1  0.18680861  0.92836957  0.93037542  1
  Zn  Zn127  1  0.68785941  0.43738535  0.43972245  1
  Zn  Zn128  1  0.68770204  0.43522403  0.93792359  1
  Zn  Zn129  1  0.68756551  0.93771291  0.43340163  1
  Zn  Zn130  1  0.68521397  1.05944802  0.94986596  1
  Zn  Zn131  1  0.31328982  0.05784029  0.05997161  1
  Zn  Zn132  1  0.30935195  0.06398626  0.56062165  1
  Zn  Zn133  1  0.31063640  0.56032460  0.06651348  1
  Zn  Zn134  1  0.30754641  0.55872474  0.56277943  1
  Zn  Zn135  1  0.81937199  0.05786085  0.06526664  1
  Zn  Zn136  1  0.81318264  0.06436685  0.56247879  1
  Zn  Zn137  1  0.81327980  0.56074919  0.05790983  1
  Zn  Zn138  1  0.81251040  0.55965453  0.55585734  1
  Zn  Zn139  1  0.43688519  0.43691298  0.19242566  1
  Zn  Zn140  1  0.43572855  0.43784376  0.69046502  1
  Zn  Zn141  1  0.43781138  0.93552095  0.18325862  1
  Zn  Zn142  1  0.43393064  0.93250863  0.68832886  1
  Zn  Zn143  1  0.93223605  0.44245381  0.18495858  1
  Zn  Zn144  1  0.93481248  0.43536239  0.68282884  1
  Zn  Zn145  1  0.94054946  0.93813118  0.18625778  1
  Zn  Zn146  1  0.93641060  0.93887663  0.69185294  1
  Zn  Zn147  1  0.07077659  0.05953005  0.31326520  1
  Zn  Zn148  1  0.06488231  0.06239521  0.81026847  1
  Zn  Zn149  1  0.06174084  0.55821449  0.31223343  1
  Zn  Zn150  1  0.06095250  0.58209281  0.80758823  1
  Zn  Zn151  1  0.56435391  0.06171026  0.30746695  1
  Zn  Zn152  1  0.55752633  0.06206160  0.81089560  1
  Zn  Zn153  1  0.56227047  0.56361407  0.31691074  1
  Zn  Zn154  1  0.55971071  0.56311150  0.81742094  1
  Zn  Zn155  1  0.43730785  0.19187657  0.44217980  1
  Zn  Zn156  1  0.43729839  0.18257165  0.94165642  1
  Zn  Zn157  1  0.43698188  0.68963388  0.43134992  1
  Zn  Zn158  1  0.44057218  0.68724414  0.93200770  1
  Zn  Zn159  1  0.93848008  0.18466985  0.44522091  1
  Zn  Zn160  1  0.93990743  0.19091083  0.95095332  1
  Zn  Zn161  1  0.93619252  0.68700935  0.43846211  1
  Zn  Zn162  1  0.94280352  0.68241304  0.92661047  1
  Zn  Zn163  1  0.06420570  0.31346026  0.06076858  1
  Zn  Zn164  1  0.06326984  0.30565311  0.56248256  1
  Zn  Zn165  1  0.06732169  0.81037991  0.06044870  1
  Zn  Zn166  1  0.06232502  0.81135946  0.56618635  1
  Zn  Zn167  1  0.55858080  0.31132105  0.06521570  1
  Zn  Zn168  1  0.54262684  0.35239889  0.58194883  1
  Zn  Zn169  1  0.62567669  0.87385158  0.01180636  1
  Zn  Zn170  1  0.56626960  0.81347268  0.56088304  1
  O  O171  1  0.12101550  0.11599079  0.11839894  1
  O  O172  1  0.12200448  0.12001255  0.61737669  1
  O  O173  1  0.11634885  0.61213984  0.13240502  1
  O  O174  1  0.13287330  0.61001666  0.61640598  1
  O  O175  1  0.61816609  0.12636054  0.12370110  1
  O  O176  1  0.62154716  0.12249826  0.61383671  1
  O  O177  1  0.63273917  0.61590873  0.11541253  1
  O  O178  1  0.63050138  0.62489734  0.60901062  1
  O  O179  1  0.37580187  0.37910220  0.37979572  1
  O  O180  1  0.37875082  0.38456214  0.88293145  1
  O  O181  1  0.38926879  0.87872683  0.37699178  1
  O  O182  1  0.38365377  0.88155392  0.86578438  1
  O  O183  1  0.86489405  0.38597222  0.37376396  1
  O  O184  1  0.86939487  0.37104974  0.88911765  1
  O  O185  1  0.88103088  0.88036547  0.38168536  1
  O  O186  1  0.86721276  0.88154471  0.88701585  1
  O  O187  1  0.25141851  0.00726456  0.36842673  1
  O  O188  1  0.25723423  -0.00527750  0.86509826  1
  O  O189  1  0.25812914  0.50422432  0.37427459  1
  O  O190  1  0.25901962  0.49220234  0.86616332  1
  O  O191  1  0.76042042  0.00261111  0.36745555  1
  O  O192  1  0.76483539  0.01057254  0.86881177  1
  O  O193  1  0.75709966  0.50623198  0.37289429  1
  O  O194  1  0.74861254  0.51229236  0.87709495  1
  O  O195  1  0.24255746  0.48888422  0.12890185  1
  O  O196  1  0.23930446  0.48858087  0.63142877  1
  O  O197  1  0.24739819  0.99135918  0.13059142  1
  O  O198  1  0.24433471  0.99229625  0.62926841  1
  O  O199  1  0.73968869  0.49395356  0.12892267  1
  O  O200  1  0.74760102  0.48418736  0.61677818  1
  O  O201  1  0.76563419  0.98507528  0.13985622  1
  O  O202  1  0.74587210  0.99825407  0.63143288  1
  O  O203  1  0.00844112  0.37477900  0.24013516  1
  O  O204  1  0.01266250  0.37052731  0.74495587  1
  O  O205  1  0.00843530  0.86528315  0.25349763  1
  O  O206  1  -0.02036248  0.85557930  0.75312752  1
  O  O207  1  0.50419975  0.37059669  0.26086812  1
  O  O208  1  0.50589591  0.36518153  0.75940604  1
  O  O209  1  0.50925995  0.87096089  0.25337190  1
  O  O210  1  0.50587697  0.86536945  0.75464233  1
  O  O211  1  0.50366839  0.12450453  0.23437761  1
  O  O212  1  0.49761153  0.13883308  0.74446266  1
  O  O213  1  0.49150756  0.63453434  0.26124791  1
  O  O214  1  0.49431473  0.63155018  0.75129420  1
  O  O215  1  1.00704216  0.11503322  0.23466371  1
  O  O216  1  1.01008986  0.13154857  0.73486846  1
  O  O217  1  1.00159521  0.63329325  0.24445253  1
  O  O218  1  0.98634498  0.65245524  0.74885032  1
  O  O219  1  0.37025109  0.25597210  0.01216037  1
  O  O220  1  0.37548000  0.26213704  0.51231447  1
  O  O221  1  0.36289048  0.73586929  -0.00018361  1
  O  O222  1  0.36197337  0.74676690  0.50079703  1
  O  O223  1  0.87312509  0.26331719  0.01056144  1
  O  O224  1  0.86144860  0.24532038  0.50790245  1
  O  O225  1  0.88004810  0.75705731  -0.00308946  1
  O  O226  1  0.86676640  0.75791852  0.50658776  1
  O  O227  1  0.12522555  0.24177915  0.48588042  1
  O  O228  1  0.13128747  0.24553458  0.99350726  1
  O  O229  1  0.13128166  0.74170529  0.49772737  1
  O  O230  1  0.13280514  0.74557789  0.98868904  1
  O  O231  1  0.63355256  0.23831147  0.49429497  1
  O  O232  1  0.62103411  0.25684008  0.98497685  1
  O  O233  1  0.63783729  0.74492269  0.49776815  1
  O  O234  1  0.62862762  0.74518916  0.98704236  1
  O  O235  1  0.48737135  0.24149617  0.12748047  1
  O  O236  1  0.48799627  0.25796487  0.63527835  1
  O  O237  1  0.50097431  0.75167963  0.13975347  1
  O  O238  1  0.49926283  0.75694796  0.63621782  1
  O  O239  1  1.00660504  0.22993477  0.11831215  1
  O  O240  1  0.98920391  0.24323971  0.62470462  1
  O  O241  1  1.00740592  0.73722191  0.13199612  1
  O  O242  1  0.98041205  0.75599517  0.62763905  1
  O  O243  1  0.01077422  0.24409919  0.37604338  1
  O  O244  1  0.01528897  0.24403030  0.87809817  1
  O  O245  1  0.00577932  0.75383307  0.36791387  1
  O  O246  1  0.01737575  0.74948144  0.86593379  1
  O  O247  1  0.50479256  0.25623773  0.37264850  1
  O  O248  1  0.50393797  0.25388380  0.87011002  1
  O  O249  1  0.50329020  0.76247519  0.36756814  1
  O  O250  1  0.50709337  0.75182881  0.86172577  1
  O  O251  1  0.23878337  0.11895775  0.48512955  1
  O  O252  1  0.24342254  0.12957058  0.99935796  1
  O  O253  1  0.24060931  0.63095885  0.49637867  1
  O  O254  1  0.24525480  0.62887400  1.00214418  1
  O  O255  1  0.74204348  0.12982360  0.49464793  1
  O  O256  1  0.75321581  0.12436709  1.00859295  1
  O  O257  1  0.74461461  0.63373890  0.49167215  1
  O  O258  1  0.73958264  0.62628057  0.99047199  1
  O  O259  1  0.25471243  0.36846416  0.01356337  1
  O  O260  1  0.25455311  0.37770201  0.51129627  1
  O  O261  1  0.24668561  0.87064049  0.01124795  1
  O  O262  1  0.25020500  0.86424650  0.50585750  1
  O  O263  1  0.75804208  0.37530059  0.00713818  1
  O  O264  1  0.73822875  0.36288062  0.51418632  1
  O  O265  1  0.75942135  0.86806924  0.01424879  1
  O  O266  1  0.75727371  0.86879573  0.50149149  1
  O  O267  1  0.12605667  0.48785756  0.24263732  1
  O  O268  1  0.12876079  0.49633156  0.74380953  1
  O  O269  1  0.13621086  0.99108039  0.24374385  1
  O  O270  1  0.13785363  1.00325995  0.73865498  1
  O  O271  1  0.62761484  0.49688465  0.24335149  1
  O  O272  1  0.61661726  0.48616046  0.75138383  1
  O  O273  1  0.64024451  0.98755734  0.25591035  1
  O  O274  1  0.63147584  0.99778628  0.74591168  1
  O  O275  1  0.36115310  -0.00468980  0.25089875  1
  O  O276  1  0.36481173  0.00033937  0.75418666  1
  O  O277  1  0.37229934  0.50689538  0.26038950  1
  O  O278  1  0.36843807  0.50138766  0.75695487  1
  O  O279  1  0.86915554  -0.00126335  0.26147956  1
  O  O280  1  0.86852975  -0.00035911  0.76494790  1
  O  O281  1  0.86799446  0.50278868  0.26028163  1
  O  O282  1  0.87246066  0.50057288  0.74645823  1
  O  O283  1  0.12906640  0.36005279  0.36810093  1
  O  O284  1  0.12991047  0.36686869  0.86671250  1
  O  O285  1  0.12135444  0.86933288  0.37190969  1
  O  O286  1  0.13780034  0.85178318  0.86058213  1
  O  O287  1  0.61632158  0.37270517  0.37221144  1
  O  O288  1  0.61961909  0.36787359  0.86958436  1
  O  O289  1  0.61770910  0.87383611  0.36381614  1
  O  O290  1  0.61597475  0.86033882  0.86610937  1
  O  O291  1  0.36886885  0.13726562  0.12611337  1
  O  O292  1  0.37443851  0.13896187  0.62394346  1
  O  O293  1  0.37169266  0.62493158  0.14061266  1
  O  O294  1  0.37514383  0.62111568  0.63426340  1
  O  O295  1  0.89667211  0.11818115  0.12695606  1
  O  O296  1  0.88634577  0.13129910  0.61853100  1
  O  O297  1  0.89003099  0.62206209  0.12634015  1
  O  O298  1  0.86395639  0.64136046  0.61973630  1
  O  O299  1  0.25687784  0.25470608  0.12335103  1
  O  O300  1  0.25650777  0.26109283  0.63660417  1
  O  O301  1  0.24741983  0.75293034  0.10887140  1
  O  O302  1  0.24677477  0.75452316  0.61787184  1
  O  O303  1  0.73943664  0.26660836  0.12085799  1
  O  O304  1  0.75741632  0.25109349  0.61859839  1
  O  O305  1  0.76064816  0.75668435  0.12648782  1
  O  O306  1  0.75602289  0.75933450  0.61454223  1
  O  O307  1  0.24344060  0.23487995  0.37087114  1
  O  O308  1  0.24238861  0.25038203  0.88290130  1
  O  O309  1  0.24510661  0.74608353  0.38452655  1
  O  O310  1  0.24963083  0.75184996  0.89284696  1
  O  O311  1  0.74497117  0.24517037  0.38338081  1
  O  O312  1  0.73237790  0.25062012  0.87653122  1
  O  O313  1  0.75315532  0.74327154  0.38227014  1
  O  O314  1  0.73836087  0.74358455  0.87141659  1
  O  O315  1  0.00857436  0.11145798  0.00883115  1
  O  O316  1  0.01319208  0.12654280  0.51311544  1
  O  O317  1  0.00181085  0.62664203  0.01356317  1
  O  O318  1  0.01318327  0.62318224  0.49797472  1
  O  O319  1  0.49585503  0.12564705  0.02035628  1
  O  O320  1  0.50891281  0.11766115  0.49909583  1
  O  O321  1  0.51255250  0.61610602  -0.00735893  1
  O  O322  1  0.51893003  0.63500293  0.48933256  1
  O  O323  1  0.48566619  0.36848641  0.48261496  1
  O  O324  1  0.49445819  0.38600693  0.99850794  1
  O  O325  1  0.50469899  0.88332817  0.49030779  1
  O  O326  1  0.50427827  0.86708733  0.98070944  1
  O  O327  1  1.00503673  0.38234125  0.49855976  1
  O  O328  1  0.98452696  0.37797734  1.00878355  1
  O  O329  1  0.98804223  0.86687775  0.49340691  1
  O  O330  1  0.99399408  0.88398022  1.00463716  1
  O  O331  1  0.48759742  0.48958312  0.37010765  1
  O  O332  1  0.49181276  0.49428862  0.88638136  1
  O  O333  1  0.50162790  0.99364396  0.38140154  1
  O  O334  1  0.48957113  0.98922674  0.86912899  1
  O  O335  1  0.99020549  0.50272438  0.38262798  1
  O  O336  1  0.99349128  0.52970023  0.87886793  1
  O  O337  1  0.99068488  0.99270725  0.36797093  1
  O  O338  1  0.99133520  1.00436294  0.88195434  1
  O  O339  1  0.00917440  0.00361337  0.11461064  1
  O  O340  1  0.01117305  0.00623023  0.63406591  1
  O  O341  1  0.00701108  0.51054963  0.12466461  1
  O  O342  1  0.01171328  0.49300217  0.61406728  1
  O  O343  1  0.49776439  0.01095475  0.12354720  1
  O  O344  1  0.50642086  -0.00043415  0.61575388  1
  O  O345  1  0.50868713  0.49558654  0.11676185  1
  O  O346  1  0.51008824  0.46029799  0.61329570  1
  O  O347  1  0.24180402  0.37440020  0.24060156  1
  O  O348  1  0.24083173  0.38598696  0.74229539  1
  O  O349  1  0.24498085  0.87876405  0.24471204  1
  O  O350  1  0.25538340  0.87978197  0.73688073  1
  O  O351  1  0.74124724  0.38248308  0.24135725  1
  O  O352  1  0.74199206  0.37094954  0.73938067  1
  O  O353  1  0.74729396  0.87745957  0.24622572  1
  O  O354  1  0.74285237  0.88828730  0.74428293  1
  O  O355  1  0.24113229  0.11329004  0.26517348  1
  O  O356  1  0.25365535  0.11196046  0.75133895  1
  O  O357  1  0.25908952  0.62584042  0.25847151  1
  O  O358  1  0.26173839  0.60834935  0.74151776  1
  O  O359  1  0.75000541  0.11253959  0.25635195  1
  O  O360  1  0.74384351  0.11579790  0.74216744  1
  O  O361  1  0.75011060  0.61986125  0.25953792  1
  O  O362  1  0.74496523  0.62456573  0.76022194  1
  O  O363  1  0.36113504  0.12696645  0.38122542  1
  O  O364  1  0.37401309  0.11271909  0.87206930  1
  O  O365  1  0.36982461  0.61596568  0.37086897  1
  O  O366  1  0.38087444  0.60979107  0.86322038  1
  O  O367  1  0.87186283  0.11511785  0.37756928  1
  O  O368  1  0.88223844  0.11784721  0.87948408  1
  O  O369  1  0.86402599  0.61994482  0.37502939  1
  O  O370  1  0.85462234  0.63143979  0.87193428  1
  O  O371  1  0.13194609  0.37580339  0.13411906  1
  O  O372  1  0.12989888  0.37919442  0.63200308  1
  O  O373  1  0.13482334  0.87701880  0.13013719  1
  O  O374  1  0.13519847  0.88617032  0.61441031  1
  O  O375  1  0.62768223  0.38623071  0.12815907  1
  O  O376  1  0.64140523  0.36387408  0.63874972  1
  O  O377  1  0.64227533  0.87052934  0.13473918  1
  O  O378  1  0.63149287  0.88269615  0.62973872  1
  O  O379  1  0.12591475  0.25441095  0.26412987  1
  O  O380  1  0.12653219  0.25927667  0.75947432  1
  O  O381  1  0.11970647  0.75231412  0.25624841  1
  O  O382  1  0.10587526  0.76377222  0.72115122  1
  O  O383  1  0.62598544  0.25746001  0.25912886  1
  O  O384  1  0.61536372  0.25765477  0.76169786  1
  O  O385  1  0.61932216  0.75778777  0.25241348  1
  O  O386  1  0.61907897  0.75342063  0.75257769  1
  O  O387  1  0.37374534  0.25441042  0.23595906  1
  O  O388  1  0.38114358  0.25452462  0.74445284  1
  O  O389  1  0.38427947  0.74037155  0.25321148  1
  O  O390  1  0.38205478  0.73678667  0.74875924  1
  O  O391  1  0.86575490  0.24179355  0.23901200  1
  O  O392  1  0.87475323  0.25130639  0.73828658  1
  O  O393  1  0.89139124  0.74845858  0.24781839  1
  O  O394  1  0.86281102  0.75189379  0.73171067  1
  O  O395  1  0.36800572  0.48848439  0.48958071  1
  O  O396  1  0.38043839  0.49838274  0.99597880  1
  O  O397  1  0.38937235  1.00085645  0.49893592  1
  O  O398  1  0.37908535  1.00007446  0.98540365  1
  O  O399  1  0.88737450  0.50379408  0.49135133  1
  O  O400  1  0.87589070  0.48658153  0.99456990  1
  O  O401  1  0.86787415  0.98932574  0.48921581  1
  O  O402  1  0.88378607  0.99306235  0.98723763  1
  O  O403  1  0.12020082  -0.00038927  -0.00090413  1
  O  O404  1  0.12831846  0.00988423  0.51127362  1
  O  O405  1  0.12405749  0.48589968  0.01754132  1
  O  O406  1  0.11736658  0.50416912  0.50382892  1
  O  O407  1  0.61616914  -0.01683716  -0.01179373  1
  O  O408  1  0.61985185  0.00829366  0.50304701  1
  O  O409  1  0.61793793  0.50775415  0.00637573  1
  O  O410  1  0.62788138  0.51565210  0.49823454  1
  O  O411  1  0.36685098  0.36998356  0.12322920  1
  O  O412  1  0.36310248  0.37018042  0.61902366  1
  O  O413  1  0.36239604  0.86572191  0.13184802  1
  O  O414  1  0.36288782  0.86983570  0.61838209  1
  O  O415  1  0.86230411  0.37985890  0.11667770  1
  O  O416  1  0.85868101  0.36376313  0.62662124  1
  O  O417  1  0.87491425  0.87126799  0.11505476  1
  O  O418  1  0.86877157  0.87207740  0.61527992  1
  O  O419  1  0.12904631  0.13318696  0.38126382  1
  O  O420  1  0.13029182  0.13277352  0.88015940  1
  O  O421  1  0.13036863  0.62811936  0.38333127  1
  O  O422  1  0.14191813  0.66236967  0.83151551  1
  O  O423  1  0.63081250  0.12807440  0.38198809  1
  O  O424  1  0.61885697  0.13583016  0.87712565  1
  O  O425  1  0.63856055  0.62621001  0.38293759  1
  O  O426  1  0.63248206  0.63078584  0.88080948  1
