# generated using pymatgen
data_V85Zn86O256
_symmetry_space_group_name_H-M   'P 1'
_cell_length_a   16.98046579
_cell_length_b   16.99217026
_cell_length_c   16.97567053
_cell_angle_alpha   90.01492473
_cell_angle_beta   89.92209925
_cell_angle_gamma   89.80355732
_symmetry_Int_Tables_number   1
_chemical_formula_structural   V85Zn86O256
_chemical_formula_sum   'V85 Zn86 O256'
_cell_volume   4898.04102553
_cell_formula_units_Z   1
loop_
 _symmetry_equiv_pos_site_id
 _symmetry_equiv_pos_as_xyz
  1  'x, y, z'
loop_
 _atom_site_type_symbol
 _atom_site_label
 _atom_site_symmetry_multiplicity
 _atom_site_fract_x
 _atom_site_fract_y
 _atom_site_fract_z
 _atom_site_occupancy
  V  V0  1  0.24838864  0.50011603  0.24997890  1
  V  V1  1  0.75742012  0.00836119  0.75607567  1
  V  V2  1  0.50034432  -0.00120468  -0.00152926  1
  V  V3  1  0.74759157  0.63163128  0.86369793  1
  V  V4  1  0.24925671  0.62784701  0.38070950  1
  V  V5  1  0.87816013  0.74386476  0.62394727  1
  V  V6  1  0.90073127  0.37282012  0.50347873  1
  V  V7  1  -0.00243335  0.25162893  0.25445109  1
  V  V8  1  0.37543296  0.49920755  0.37685179  1
  V  V9  1  0.75847072  0.86994813  0.12789408  1
  V  V10  1  -0.00065613  0.50052909  0.00081180  1
  V  V11  1  0.77507640  0.12177344  0.88019078  1
  V  V12  1  0.87463978  0.12492534  0.26172421  1
  V  V13  1  0.12373566  0.74965633  0.37548883  1
  V  V14  1  0.37271702  -0.00231412  0.87297946  1
  V  V15  1  0.37209051  0.13296273  0.74411988  1
  V  V16  1  0.50034813  0.12413550  0.12408758  1
  V  V17  1  0.37483348  0.87479682  -0.00111012  1
  V  V18  1  0.62412978  0.37186790  0.25503006  1
  V  V19  1  -0.00708988  0.75084563  0.24662274  1
  V  V20  1  0.12801527  -0.00584888  0.62253325  1
  V  V21  1  0.37700899  0.62694948  0.74766664  1
  V  V22  1  0.75386139  0.00156102  0.25805370  1
  V  V23  1  0.63762314  0.48687726  0.63442438  1
  V  V24  1  0.37996572  0.00099833  0.38020615  1
  V  V25  1  -0.00419058  0.24320135  0.74146619  1
  V  V26  1  0.62470115  0.87547124  0.25194561  1
  V  V27  1  0.49685645  0.12364443  0.62461590  1
  V  V28  1  0.25170835  0.12668289  0.37537146  1
  V  V29  1  0.62623713  0.12751440  -0.01092641  1
  V  V30  1  0.87008592  0.62388028  0.25503232  1
  V  V31  1  0.10188884  0.62477674  0.50134823  1
  V  V32  1  0.87517361  0.37159807  0.00188926  1
  V  V33  1  0.73576982  0.26260299  0.50553192  1
  V  V34  1  0.12284727  0.25129669  0.37537480  1
  V  V35  1  0.12213227  0.12207986  0.50211505  1
  V  V36  1  0.51241906  0.75494188  0.75285541  1
  V  V37  1  0.11866623  0.12523405  0.00329730  1
  V  V38  1  0.89189216  0.49255591  0.37873720  1
  V  V39  1  0.74819925  0.50166626  0.26103788  1
  V  V40  1  0.50027842  0.62577877  0.12388977  1
  V  V41  1  -0.00411139  0.88096670  0.37454843  1
  V  V42  1  0.74558798  0.74351328  0.49317358  1
  V  V43  1  0.12374982  0.62601734  0.00051667  1
  V  V44  1  0.11591176  0.50527735  0.61847366  1
  V  V45  1  0.62498621  0.50190386  0.12495282  1
  V  V46  1  0.11943766  0.00238705  0.12277759  1
  V  V47  1  0.25061025  0.37553150  0.12569440  1
  V  V48  1  -0.00095864  -0.00080745  0.50372903  1
  V  V49  1  0.13161446  0.37892503  0.74508961  1
  V  V50  1  0.12625794  0.86930127  0.74541829  1
  V  V51  1  0.24952803  0.75029571  -0.00009050  1
  V  V52  1  0.25020047  0.87561078  0.12278495  1
  V  V53  1  0.12057835  0.37578722  0.25520786  1
  V  V54  1  0.37522428  0.24858595  0.12405853  1
  V  V55  1  0.24772604  0.12428549  0.87304503  1
  V  V56  1  0.74157718  0.13263806  0.37716551  1
  V  V57  1  0.62584058  0.00004601  0.12597433  1
  V  V58  1  0.87992881  0.88574700  -0.00433823  1
  V  V59  1  0.36944508  0.87497313  0.50368656  1
  V  V60  1  0.61857473  0.11616770  0.50005885  1
  V  V61  1  0.87174603  0.88012498  0.49739014  1
  V  V62  1  0.36681576  0.37089854  0.51281958  1
  V  V63  1  0.37875366  0.37433203  -0.00316202  1
  V  V64  1  0.25054967  0.25092710  -0.00034693  1
  V  V65  1  0.50023162  0.75076430  0.24960541  1
  V  V66  1  0.49738072  0.37287931  0.37648098  1
  V  V67  1  -0.00620531  0.62899390  0.12496489  1
  V  V68  1  0.51626458  0.87316040  0.87307165  1
  V  V69  1  0.50288363  0.50074031  -0.00225663  1
  V  V70  1  0.25096587  -0.00857992  0.74294218  1
  V  V71  1  0.75300379  0.74845249  0.00326805  1
  V  V72  1  0.51870440  0.24833419  0.75511287  1
  V  V73  1  -0.00208838  0.74418802  0.74599747  1
  V  V74  1  0.37404565  0.62665344  0.24890240  1
  V  V75  1  0.25048763  0.62423265  0.87477280  1
  V  V76  1  0.37974987  0.49668416  0.87244542  1
  V  V77  1  0.74244036  0.87611116  0.63300019  1
  V  V78  1  0.87401719  0.50450556  0.86816826  1
  V  V79  1  0.12423052  0.87585564  0.24897442  1
  V  V80  1  0.75085768  0.37079557  0.12658275  1
  V  V81  1  0.36835167  0.75425809  0.62642295  1
  V  V82  1  0.50188785  0.87586357  0.38208935  1
  V  V83  1  0.50086049  0.24907656  0.25248063  1
  V  V84  1  0.12225307  0.25371529  0.87496306  1
  Zn  Zn85  1  0.11589312  0.74776407  0.87476559  1
  Zn  Zn86  1  0.87115250  0.24404815  0.62891861  1
  Zn  Zn87  1  0.61805339  -0.00722891  0.63001026  1
  Zn  Zn88  1  -0.00210464  0.37787187  0.87179972  1
  Zn  Zn89  1  -0.00830921  0.12184956  0.12472671  1
  Zn  Zn90  1  0.37588290  0.75079768  0.12450848  1
  Zn  Zn91  1  0.62129272  0.61508537  0.49371620  1
  Zn  Zn92  1  0.62840136  0.73741700  0.37110562  1
  Zn  Zn93  1  0.25126694  0.00093359  0.25056664  1
  Zn  Zn94  1  0.25809811  0.24818090  0.52158326  1
  Zn  Zn95  1  0.62444717  0.63472897  -0.00573430  1
  Zn  Zn96  1  0.37577003  0.12320552  0.25008547  1
  Zn  Zn97  1  0.25790926  0.49233980  0.73556781  1
  Zn  Zn98  1  0.49984625  0.50054284  0.50943060  1
  Zn  Zn99  1  0.24335883  0.75429655  0.50850301  1
  Zn  Zn100  1  0.87371742  0.24745261  0.12517152  1
  Zn  Zn101  1  0.87936077  0.61341111  0.73926805  1
  Zn  Zn102  1  0.70716314  0.28421140  -0.04752294  1
  Zn  Zn103  1  0.50741809  0.62449337  0.62164933  1
  Zn  Zn104  1  0.52659099  0.36779514  0.87103227  1
  Zn  Zn105  1  -0.01219741  0.88556312  0.86877812  1
  Zn  Zn106  1  0.12485368  0.49963895  0.12577357  1
  Zn  Zn107  1  0.18867421  0.18795775  0.18892041  1
  Zn  Zn108  1  0.18471257  0.18261481  0.68794857  1
  Zn  Zn109  1  0.18423065  0.68810612  0.18740039  1
  Zn  Zn110  1  0.18661306  0.68050754  0.68490369  1
  Zn  Zn111  1  0.68514385  0.18663292  0.18508667  1
  Zn  Zn112  1  0.69184483  0.18251453  0.68486522  1
  Zn  Zn113  1  0.68648738  0.68792511  0.18708384  1
  Zn  Zn114  1  0.68981968  0.67925457  0.67741862  1
  Zn  Zn115  1  0.31049412  0.31091133  0.31430681  1
  Zn  Zn116  1  0.31193214  0.31212041  0.81168392  1
  Zn  Zn117  1  0.31338843  0.81343597  0.31323601  1
  Zn  Zn118  1  0.31400214  0.81227923  0.81425334  1
  Zn  Zn119  1  0.81310384  0.31165083  0.32142460  1
  Zn  Zn120  1  0.81021615  0.31674391  0.81181377  1
  Zn  Zn121  1  0.81324944  0.81423617  0.31310895  1
  Zn  Zn122  1  0.81292911  0.81149420  0.81399075  1
  Zn  Zn123  1  0.18565508  0.44008003  0.44139028  1
  Zn  Zn124  1  0.18934848  0.43854526  0.93597739  1
  Zn  Zn125  1  0.18973015  0.93722105  0.43381580  1
  Zn  Zn126  1  0.14987350  0.95668816  0.91544959  1
  Zn  Zn127  1  0.68178589  0.44345792  0.43898100  1
  Zn  Zn128  1  0.69546949  0.45473935  0.93925042  1
  Zn  Zn129  1  0.68637657  0.93676112  0.43913136  1
  Zn  Zn130  1  0.69460119  0.94101124  0.94101388  1
  Zn  Zn131  1  0.30951696  0.06183176  0.06125189  1
  Zn  Zn132  1  0.31276533  0.06129688  0.56128445  1
  Zn  Zn133  1  0.31404014  0.56159300  0.06183283  1
  Zn  Zn134  1  0.31030508  0.56025270  0.56451996  1
  Zn  Zn135  1  0.81188239  0.06278961  0.06771297  1
  Zn  Zn136  1  0.81087493  0.06367214  0.56802512  1
  Zn  Zn137  1  0.81122256  0.56246810  0.06440004  1
  Zn  Zn138  1  0.81245691  0.55560713  0.55961536  1
  Zn  Zn139  1  0.43659893  0.43884058  0.18668372  1
  Zn  Zn140  1  0.45300513  0.43446926  0.68932315  1
  Zn  Zn141  1  0.43670696  0.93841216  0.19048778  1
  Zn  Zn142  1  0.43891400  0.93728764  0.68779212  1
  Zn  Zn143  1  0.93730479  0.43923973  0.18791735  1
  Zn  Zn144  1  0.94577734  0.43066726  0.68334522  1
  Zn  Zn145  1  0.93525044  0.94111031  0.18642727  1
  Zn  Zn146  1  0.93632973  0.93292133  0.68388023  1
  Zn  Zn147  1  0.06276898  0.06334832  0.31261868  1
  Zn  Zn148  1  0.04920516  0.06182014  0.81132513  1
  Zn  Zn149  1  0.06320219  0.56469401  0.31291335  1
  Zn  Zn150  1  0.06298164  0.56159060  0.81026715  1
  Zn  Zn151  1  0.56254557  0.06101248  0.31422468  1
  Zn  Zn152  1  0.56635309  0.05682031  0.80712265  1
  Zn  Zn153  1  0.56191412  0.56421887  0.31442448  1
  Zn  Zn154  1  0.56549473  0.56313591  0.80781908  1
  Zn  Zn155  1  0.43690448  0.19136104  0.44056236  1
  Zn  Zn156  1  0.43869776  0.18471986  0.93290067  1
  Zn  Zn157  1  0.43915632  0.69011243  0.43930111  1
  Zn  Zn158  1  0.43907258  0.68989207  0.93576895  1
  Zn  Zn159  1  0.91601105  0.17090457  0.46951633  1
  Zn  Zn160  1  0.94151431  0.19033095  0.93576043  1
  Zn  Zn161  1  0.92685964  0.69198530  0.42999531  1
  Zn  Zn162  1  0.93154371  0.69630377  0.93459840  1
  Zn  Zn163  1  0.06065270  0.31171191  0.06907356  1
  Zn  Zn164  1  0.09075956  0.30209633  0.57552447  1
  Zn  Zn165  1  0.06185288  0.81271652  0.06219142  1
  Zn  Zn166  1  0.06230027  0.81148525  0.56313372  1
  Zn  Zn167  1  0.56034751  0.31373066  0.06538889  1
  Zn  Zn168  1  0.55823558  0.31075455  0.56814593  1
  Zn  Zn169  1  0.56690259  0.81284002  0.06259610  1
  Zn  Zn170  1  0.55908679  0.80724404  0.56412827  1
  O  O171  1  0.12699489  0.11914945  0.11990786  1
  O  O172  1  0.12490196  0.10769215  0.61076654  1
  O  O173  1  0.11250097  0.62251973  0.12059882  1
  O  O174  1  0.12305248  0.62024536  0.61194947  1
  O  O175  1  0.62041654  0.11794720  0.11779992  1
  O  O176  1  0.61966577  0.12240579  0.61228540  1
  O  O177  1  0.61748650  0.61748266  0.12580544  1
  O  O178  1  0.62564106  0.61456480  0.61406657  1
  O  O179  1  0.37964236  0.38354620  0.37607706  1
  O  O180  1  0.37053276  0.38723263  0.87910851  1
  O  O181  1  0.38180763  0.88111438  0.38149761  1
  O  O182  1  0.38054545  0.88101269  0.88107814  1
  O  O183  1  0.87664182  0.38762332  0.37993241  1
  O  O184  1  0.87484290  0.38632597  0.88587394  1
  O  O185  1  0.88578365  0.87079931  0.38426434  1
  O  O186  1  0.87003468  0.87710062  0.89001848  1
  O  O187  1  0.25834483  0.00992628  0.37376232  1
  O  O188  1  0.24965661  0.00585095  0.86258264  1
  O  O189  1  0.25669612  0.50859123  0.37048327  1
  O  O190  1  0.26153343  0.51159387  0.87736348  1
  O  O191  1  0.74263052  0.00978345  0.36383653  1
  O  O192  1  0.75052701  0.00765315  0.86397536  1
  O  O193  1  0.75442047  0.49527850  0.36282602  1
  O  O194  1  0.76552981  0.51991295  0.88107307  1
  O  O195  1  0.24891879  0.49428151  0.13132026  1
  O  O196  1  0.23161948  0.51082778  0.62703050  1
  O  O197  1  0.24340098  0.99029146  0.12794842  1
  O  O198  1  0.24171082  1.00302673  0.63256779  1
  O  O199  1  0.74591847  0.48898481  0.13493761  1
  O  O200  1  0.73888109  0.49778324  0.62003174  1
  O  O201  1  0.74423212  0.99306813  0.13792649  1
  O  O202  1  0.75018745  0.98733991  0.62908598  1
  O  O203  1  0.01164331  0.36798877  0.24392893  1
  O  O204  1  0.01584375  0.36680294  0.75400927  1
  O  O205  1  0.00072753  0.86942417  0.25526253  1
  O  O206  1  0.01033536  0.86780537  0.74792284  1
  O  O207  1  0.50462712  0.36889597  0.25399614  1
  O  O208  1  0.49990774  0.35344329  0.75430141  1
  O  O209  1  0.50511794  0.87058246  0.25740956  1
  O  O210  1  0.49746082  0.86326972  0.75751721  1
  O  O211  1  0.50143569  0.13416925  0.24505312  1
  O  O212  1  0.49138710  0.13143029  0.74682561  1
  O  O213  1  0.49323024  0.63000626  0.24409300  1
  O  O214  1  0.48878338  0.63926423  0.75666724  1
  O  O215  1  0.98899173  0.13008204  0.25285677  1
  O  O216  1  1.00232319  0.14309478  0.75463308  1
  O  O217  1  0.99345847  0.63178766  0.24485981  1
  O  O218  1  0.99816522  0.63988266  0.75421765  1
  O  O219  1  0.37106137  0.25435085  0.00272433  1
  O  O220  1  0.37157851  0.26416367  0.50024229  1
  O  O221  1  0.36847605  0.75638777  0.00233103  1
  O  O222  1  0.37248441  0.75723654  0.50979241  1
  O  O223  1  0.88353327  0.26712118  0.00271735  1
  O  O224  1  0.86225193  0.27246041  0.48794331  1
  O  O225  1  0.86074059  0.76103307  0.00195345  1
  O  O226  1  0.86706022  0.75985919  0.50410967  1
  O  O227  1  0.11546275  0.23511994  0.48367262  1
  O  O228  1  0.13008160  0.24739174  0.99483269  1
  O  O229  1  0.12531534  0.74158142  0.49485302  1
  O  O230  1  0.13081491  0.74376296  0.99742856  1
  O  O231  1  0.63242917  0.24104213  0.50475871  1
  O  O232  1  0.62402561  0.23604253  1.00950890  1
  O  O233  1  0.63989294  0.75100669  0.50034755  1
  O  O234  1  0.64323244  0.75151504  1.00374096  1
  O  O235  1  0.49380764  0.24516082  0.13319759  1
  O  O236  1  0.50358941  0.23492352  0.64105404  1
  O  O237  1  0.49934893  0.74496386  0.13092218  1
  O  O238  1  0.48953209  0.74907768  0.63909963  1
  O  O239  1  0.99806459  0.24478644  0.14075602  1
  O  O240  1  1.00712099  0.25298404  0.64080154  1
  O  O241  1  1.00303656  0.74177783  0.13719878  1
  O  O242  1  0.98783682  0.75742484  0.63141942  1
  O  O243  1  0.01338755  0.24416615  0.36044512  1
  O  O244  1  0.00951201  0.25525411  0.86869680  1
  O  O245  1  0.00381289  0.75951537  0.36623691  1
  O  O246  1  -0.00193465  0.76006492  0.86226768  1
  O  O247  1  0.49165138  0.26085963  0.36289056  1
  O  O248  1  0.50006691  0.24793209  0.86155055  1
  O  O249  1  0.49985771  0.76113346  0.36724464  1
  O  O250  1  0.49708424  0.75877742  0.86274914  1
  O  O251  1  0.24070604  0.12614711  0.49209713  1
  O  O252  1  0.24299571  0.13295636  0.99406753  1
  O  O253  1  0.24940513  0.62802393  0.48595463  1
  O  O254  1  0.24534303  0.62912091  0.99471487  1
  O  O255  1  0.73573409  0.12960798  0.49245267  1
  O  O256  1  0.74446626  0.11468006  0.98614744  1
  O  O257  1  0.75823443  0.64397756  0.50065911  1
  O  O258  1  0.75098384  0.63342025  0.99791368  1
  O  O259  1  0.25674822  0.37070173  0.00524294  1
  O  O260  1  0.26428954  0.37508504  0.49425333  1
  O  O261  1  0.25476530  0.86909715  0.01081856  1
  O  O262  1  0.26348509  0.87035741  0.49188780  1
  O  O263  1  0.75723048  0.37699007  0.00916192  1
  O  O264  1  0.73937113  0.36138635  0.49395227  1
  O  O265  1  0.75787980  0.87191376  0.00981635  1
  O  O266  1  0.75751903  0.87177488  0.50604512  1
  O  O267  1  0.12970149  0.49167699  0.25150735  1
  O  O268  1  0.12874332  0.49528022  0.74437295  1
  O  O269  1  0.12824797  0.99406044  0.24214546  1
  O  O270  1  0.13187205  0.99130548  0.73876950  1
  O  O271  1  0.63038449  0.49146097  0.24497067  1
  O  O272  1  0.62502175  0.50416830  0.73527738  1
  O  O273  1  0.63277684  0.99572724  0.24573330  1
  O  O274  1  0.64649075  1.00551583  0.74309133  1
  O  O275  1  0.37259338  0.00252799  0.26408855  1
  O  O276  1  0.36648881  0.00568558  0.75342565  1
  O  O277  1  0.36860925  0.50486152  0.25789947  1
  O  O278  1  0.37729279  0.50781695  0.75754648  1
  O  O279  1  0.86415741  0.01107015  0.24810063  1
  O  O280  1  0.85735384  -0.00893366  0.74214833  1
  O  O281  1  0.86913396  0.50256063  0.26060006  1
  O  O282  1  0.88727170  0.49638702  0.76360934  1
  O  O283  1  0.13420212  0.36522810  0.36479979  1
  O  O284  1  0.12488536  0.36684106  0.87077550  1
  O  O285  1  0.11702411  0.86932968  0.36959403  1
  O  O286  1  0.13776337  0.86126319  0.85246079  1
  O  O287  1  0.61147584  0.38227055  0.36224042  1
  O  O288  1  0.65686654  0.36482374  0.87212528  1
  O  O289  1  0.61535815  0.87557711  0.37053324  1
  O  O290  1  0.61470984  0.88152421  0.88034991  1
  O  O291  1  0.38158258  0.12988113  0.12505931  1
  O  O292  1  0.38141344  0.11969301  0.63283331  1
  O  O293  1  0.38119541  0.62569189  0.13122479  1
  O  O294  1  0.37616736  0.63184618  0.63631588  1
  O  O295  1  0.87185357  0.12948484  0.14027242  1
  O  O296  1  0.88639354  0.14214076  0.57920840  1
  O  O297  1  0.88666053  0.61640101  0.13831120  1
  O  O298  1  0.86621918  0.63922727  0.62451826  1
  O  O299  1  0.25599969  0.25545742  0.12002530  1
  O  O300  1  0.19876708  0.26127081  0.61349484  1
  O  O301  1  0.24881627  0.75927958  0.12034762  1
  O  O302  1  0.26371072  0.74579943  0.62667237  1
  O  O303  1  0.75160473  0.26642430  0.13315315  1
  O  O304  1  0.75304896  0.24492746  0.60909869  1
  O  O305  1  0.74777985  0.76300009  0.12316167  1
  O  O306  1  0.75629749  0.76195126  0.61552718  1
  O  O307  1  0.24087672  0.24043454  0.37636925  1
  O  O308  1  0.24107082  0.24498270  0.87978099  1
  O  O309  1  0.24214553  0.74089612  0.37235590  1
  O  O310  1  0.25395092  0.73615154  0.88108923  1
  O  O311  1  0.74605840  0.24018949  0.38606965  1
  O  O312  1  0.76454312  0.22666457  0.87349552  1
  O  O313  1  0.74940985  0.75921142  0.38969157  1
  O  O314  1  0.75696818  0.73663146  0.88378759  1
  O  O315  1  0.01525407  0.13449242  0.00562503  1
  O  O316  1  0.01392631  0.10733560  0.48169304  1
  O  O317  1  0.00071089  0.62197380  0.00724444  1
  O  O318  1  0.00376016  0.63042791  0.49088302  1
  O  O319  1  0.50604830  0.11830169  0.00405130  1
  O  O320  1  0.51116124  0.13385149  0.50737789  1
  O  O321  1  0.50280586  0.62008574  0.00399819  1
  O  O322  1  0.49860136  0.62113800  0.50288058  1
  O  O323  1  0.48722499  0.37160595  0.48816143  1
  O  O324  1  0.49888868  0.37998763  0.99073236  1
  O  O325  1  0.49066409  0.86734025  0.48894862  1
  O  O326  1  0.49559573  0.87909663  0.99322920  1
  O  O327  1  0.99767518  0.36286048  0.50022421  1
  O  O328  1  0.99446633  0.38628389  1.00330014  1
  O  O329  1  0.99378250  0.87923172  0.49246444  1
  O  O330  1  0.98175139  0.86585827  1.00301305  1
  O  O331  1  0.48708568  0.48921185  0.37001398  1
  O  O332  1  0.49393642  0.49614730  0.87701093  1
  O  O333  1  0.49093638  0.98924890  0.37109649  1
  O  O334  1  0.49376557  0.99160878  0.87715931  1
  O  O335  1  0.99044513  0.49709332  0.37039056  1
  O  O336  1  0.99368611  0.50259218  0.88735122  1
  O  O337  1  1.00744832  0.98605986  0.38287417  1
  O  O338  1  1.03918290  0.98404967  0.88554341  1
  O  O339  1  0.01475869  0.00268134  0.12993697  1
  O  O340  1  0.01056183  -0.00940061  0.61109884  1
  O  O341  1  0.00133077  0.50933212  0.11648630  1
  O  O342  1  0.01549529  0.50859162  0.63293235  1
  O  O343  1  0.50490679  0.00391256  0.11977148  1
  O  O344  1  0.50317064  0.01612330  0.63499246  1
  O  O345  1  0.50433391  0.50471417  0.11874223  1
  O  O346  1  0.51026878  0.50615736  0.62657902  1
  O  O347  1  0.24270525  0.37944740  0.24536786  1
  O  O348  1  0.23708165  0.37669315  0.75586335  1
  O  O349  1  0.24314605  0.87302057  0.23982400  1
  O  O350  1  0.24813932  0.88544012  0.74878368  1
  O  O351  1  0.74208575  0.38074570  0.24791428  1
  O  O352  1  0.70598537  0.37176256  0.80161516  1
  O  O353  1  0.74789156  0.88277862  0.24732574  1
  O  O354  1  0.75076161  0.87561903  0.73604572  1
  O  O355  1  0.25397174  0.12536756  0.26242670  1
  O  O356  1  0.25356916  0.11606185  0.75203484  1
  O  O357  1  0.25165592  0.62100534  0.25898514  1
  O  O358  1  0.26116126  0.62578102  0.76040512  1
  O  O359  1  0.75179520  0.12181320  0.25808178  1
  O  O360  1  0.75791816  0.11645150  0.76168116  1
  O  O361  1  0.76063769  0.61403423  0.24004626  1
  O  O362  1  0.75804561  0.63620998  0.76145176  1
  O  O363  1  0.36912620  0.11836359  0.37955328  1
  O  O364  1  0.36747585  0.11681546  0.86633733  1
  O  O365  1  0.36772343  0.61808096  0.36956711  1
  O  O366  1  0.37093709  0.61633418  0.86939042  1
  O  O367  1  0.86046864  0.12871009  0.36846707  1
  O  O368  1  0.87335113  0.11306313  0.88735178  1
  O  O369  1  0.87793065  0.60978433  0.36383780  1
  O  O370  1  0.86959950  0.61916801  0.87192946  1
  O  O371  1  0.13255427  0.37612817  0.13637075  1
  O  O372  1  0.12104642  0.39675546  0.63314049  1
  O  O373  1  0.13108202  0.88243435  0.12730299  1
  O  O374  1  0.12646973  0.88220793  0.63092312  1
  O  O375  1  0.63040863  0.38147255  0.13423564  1
  O  O376  1  0.61878264  0.38650998  0.62394206  1
  O  O377  1  0.63404536  0.88227403  0.13245868  1
  O  O378  1  0.63935721  0.87455570  0.61624532  1
  O  O379  1  0.12028672  0.25658366  0.25570047  1
  O  O380  1  0.11834075  0.25527125  0.76110173  1
  O  O381  1  0.11255131  0.75504656  0.25503398  1
  O  O382  1  0.11632410  0.75414031  0.74190195  1
  O  O383  1  0.61284001  0.26083394  0.24305162  1
  O  O384  1  0.61702250  0.23640383  0.75352161  1
  O  O385  1  0.61966651  0.75823748  0.25173637  1
  O  O386  1  0.60945737  0.74339854  0.74238888  1
  O  O387  1  0.38441287  0.24965426  0.24344291  1
  O  O388  1  0.37246590  0.23454708  0.75310570  1
  O  O389  1  0.38129420  0.74420281  0.24813742  1
  O  O390  1  0.37904498  0.74423091  0.74429624  1
  O  O391  1  0.88172269  0.24424310  0.25406758  1
  O  O392  1  0.89040068  0.26596233  0.74579222  1
  O  O393  1  0.88425438  0.73903764  0.25999580  1
  O  O394  1  0.88323015  0.75450858  0.73927614  1
  O  O395  1  0.37452137  0.49104463  0.48885180  1
  O  O396  1  0.38296975  0.49505307  0.99158945  1
  O  O397  1  0.37123688  0.99078246  0.48954130  1
  O  O398  1  0.38027557  0.99566963  0.99310615  1
  O  O399  1  0.87446744  0.48787883  0.48666331  1
  O  O400  1  0.88318126  0.49386072  0.99566294  1
  O  O401  1  0.88441239  0.98719709  0.50530846  1
  O  O402  1  0.87225734  0.98516254  1.00825316  1
  O  O403  1  0.13707050  0.01484595  0.01328974  1
  O  O404  1  0.12107536  0.00085482  0.50405188  1
  O  O405  1  0.11488622  0.50610465  -0.00013426  1
  O  O406  1  0.12327061  0.50918403  0.50872648  1
  O  O407  1  0.61964726  0.00662371  0.00673760  1
  O  O408  1  0.62660620  0.01309679  0.50424034  1
  O  O409  1  0.61923659  0.50358000  0.00752885  1
  O  O410  1  0.61806345  0.49823304  0.51032411  1
  O  O411  1  0.37171064  0.36962768  0.11721222  1
  O  O412  1  0.37913436  0.38486232  0.61018628  1
  O  O413  1  0.36599658  0.87651573  0.11970113  1
  O  O414  1  0.38273965  0.86787257  0.61451333  1
  O  O415  1  0.86669487  0.37767813  0.11909093  1
  O  O416  1  0.88210087  0.37370042  0.60648267  1
  O  O417  1  0.86403627  0.87846871  0.12110377  1
  O  O418  1  0.86464458  0.86575231  0.61434649  1
  O  O419  1  0.13514192  0.12807005  0.37924447  1
  O  O420  1  0.12894261  0.13619787  0.88354020  1
  O  O421  1  0.13050503  0.62851492  0.38274957  1
  O  O422  1  0.13536347  0.62612287  0.87974586  1
  O  O423  1  0.62722790  0.12245963  0.38824691  1
  O  O424  1  0.62615795  0.11852301  0.88749991  1
  O  O425  1  0.62699916  0.62488760  0.37918605  1
  O  O426  1  0.64401260  0.61815553  0.87556397  1
