# generated using pymatgen
data_V85Zn86O256
_symmetry_space_group_name_H-M   'P 1'
_cell_length_a   16.97699932
_cell_length_b   16.98935361
_cell_length_c   16.97049725
_cell_angle_alpha   89.92027828
_cell_angle_beta   89.97539560
_cell_angle_gamma   90.09388580
_symmetry_Int_Tables_number   1
_chemical_formula_structural   V85Zn86O256
_chemical_formula_sum   'V85 Zn86 O256'
_cell_volume   4894.75896821
_cell_formula_units_Z   1
loop_
 _symmetry_equiv_pos_site_id
 _symmetry_equiv_pos_as_xyz
  1  'x, y, z'
loop_
 _atom_site_type_symbol
 _atom_site_label
 _atom_site_symmetry_multiplicity
 _atom_site_fract_x
 _atom_site_fract_y
 _atom_site_fract_z
 _atom_site_occupancy
  V  V0  1  0.37393477  0.49498832  0.87222756  1
  V  V1  1  0.49905953  0.24761514  0.75105409  1
  V  V2  1  0.00464510  0.12887858  0.12271945  1
  V  V3  1  0.12335643  0.62156760  0.50882100  1
  V  V4  1  0.37194831  0.25353437  0.62469913  1
  V  V5  1  0.74461405  0.62521976  0.87745282  1
  V  V6  1  0.50835799  0.86883025  0.87258029  1
  V  V7  1  0.62594307  0.24802947  0.87463142  1
  V  V8  1  0.74640412  -0.00317898  0.74835189  1
  V  V9  1  0.23179982  0.49365688  0.74175347  1
  V  V10  1  0.87298114  0.12490833  0.25324958  1
  V  V11  1  -0.00358674  0.50245412  0.50859473  1
  V  V12  1  0.25086394  0.24930517  0.48232176  1
  V  V13  1  0.12572202  0.74961207  0.37502115  1
  V  V14  1  0.75587116  0.62907251  0.37452198  1
  V  V15  1  0.74927555  0.37840193  0.12335084  1
  V  V16  1  0.49970747  0.37202549  0.87803498  1
  V  V17  1  0.62984976  0.75280559  0.38081623  1
  V  V18  1  0.62458977  0.12122231  0.00086847  1
  V  V19  1  0.62867653  0.12929266  0.49934464  1
  V  V20  1  0.74941781  0.36384944  0.62234942  1
  V  V21  1  0.74988498  0.25266191  -0.00092695  1
  V  V22  1  0.12458568  0.87517871  0.24848208  1
  V  V23  1  0.10891134  0.24563781  0.87366762  1
  V  V24  1  0.62609683  -0.00477894  0.62902766  1
  V  V25  1  0.24576010  0.74988228  -0.00146305  1
  V  V26  1  0.62366504  0.87575086  0.25262541  1
  V  V27  1  0.62661956  0.37173149  0.75085647  1
  V  V28  1  0.00070117  0.38256827  0.37345193  1
  V  V29  1  0.00101483  0.00266109  0.00194374  1
  V  V30  1  -0.00139548  0.74102740  0.25123172  1
  V  V31  1  0.75494138  0.49503593  0.75195603  1
  V  V32  1  0.62365362  0.00194281  0.12381882  1
  V  V33  1  0.50132651  0.25359958  0.25714205  1
  V  V34  1  -0.00338840  0.63968235  0.62761702  1
  V  V35  1  0.24381369  0.50161929  0.24825874  1
  V  V36  1  0.37508263  0.75162398  0.12543987  1
  V  V37  1  0.12183259  0.87209570  0.74914638  1
  V  V38  1  0.74514979  0.74859708  -0.00038516  1
  V  V39  1  0.88724201  0.12518798  0.74558478  1
  V  V40  1  0.37382023  0.12281276  0.74542447  1
  V  V41  1  0.25051330  0.62308765  0.37614371  1
  V  V42  1  0.24824240  0.87097343  0.62828253  1
  V  V43  1  0.75522461  0.50760559  0.24927242  1
  V  V44  1  0.25101421  0.35995254  0.12169455  1
  V  V45  1  0.25467700  0.74554195  0.50449548  1
  V  V46  1  0.38157779  0.87955869  -0.00082202  1
  V  V47  1  0.38044190  -0.00192430  0.87793112  1
  V  V48  1  0.62285013  0.50222512  0.12379754  1
  V  V49  1  0.25100210  0.87689659  0.12383348  1
  V  V50  1  -0.00536511  0.88580227  0.38112806  1
  V  V51  1  0.24561062  0.13175036  0.88680793  1
  V  V52  1  0.37469104  0.62679908  0.24999802  1
  V  V53  1  0.00688953  0.62138324  0.10402575  1
  V  V54  1  0.87360111  0.25307569  0.12168268  1
  V  V55  1  0.50135252  0.13189914  0.12301188  1
  V  V56  1  0.24731569  -0.00357808  0.74921128  1
  V  V57  1  0.88891823  0.24263812  0.62387476  1
  V  V58  1  0.38337967  0.37506821  0.49338537  1
  V  V59  1  0.75279158  0.12493504  0.87363538  1
  V  V60  1  0.37541708  0.00191954  0.37380536  1
  V  V61  1  0.75438025  0.00223154  0.25650584  1
  V  V62  1  0.00089943  0.87292701  0.87644988  1
  V  V63  1  -0.00407775  0.26222850  0.24710235  1
  V  V64  1  0.49841161  0.62619526  0.12441130  1
  V  V65  1  0.87625845  0.63743896  0.74905400  1
  V  V66  1  0.00077930  0.37871325  0.85221415  1
  V  V67  1  0.38160968  0.49713742  0.37317363  1
  V  V68  1  0.63004080  0.62768045  0.50305961  1
  V  V69  1  0.74886266  0.13406157  0.37753442  1
  V  V70  1  0.12642241  0.00536702  0.12357988  1
  V  V71  1  0.75305788  0.87455510  0.12660818  1
  V  V72  1  0.86962833  0.37103590  0.49700148  1
  V  V73  1  0.25244220  0.00335307  0.25161494  1
  V  V74  1  0.50928015  0.74897126  0.75696174  1
  V  V75  1  0.37817530  0.12934969  0.24702878  1
  V  V76  1  0.86006945  0.88378302  0.50691723  1
  V  V77  1  0.49693713  -0.00066797  0.50169632  1
  V  V78  1  0.88816991  0.38005821  -0.00143050  1
  V  V79  1  0.87532099  0.74329642  0.13133721  1
  V  V80  1  0.49471388  0.49678941  0.00136243  1
  V  V81  1  0.12538020  0.74936020  0.87674646  1
  V  V82  1  0.62062848  0.37739148  0.25750808  1
  V  V83  1  0.22305827  0.59053223  0.90649109  1
  V  V84  1  0.49611500  0.62081917  0.62806880  1
  Zn  Zn85  1  0.09896646  0.23432022  0.38924919  1
  Zn  Zn86  1  0.87603514  0.00145475  0.87520313  1
  Zn  Zn87  1  0.11951395  0.38565880  0.23699886  1
  Zn  Zn88  1  0.16395778  0.09818447  0.43456904  1
  Zn  Zn89  1  0.37373992  0.87382640  0.50104496  1
  Zn  Zn90  1  0.37649801  0.74821798  0.63317961  1
  Zn  Zn91  1  0.68872653  0.83148690  0.68813692  1
  Zn  Zn92  1  0.49937517  0.75100700  0.25125213  1
  Zn  Zn93  1  0.87525513  0.87571490  0.00221469  1
  Zn  Zn94  1  0.62407811  0.49409797  0.62161618  1
  Zn  Zn95  1  0.50321866  0.49709922  0.49614635  1
  Zn  Zn96  1  0.23551874  0.37249654  0.63070007  1
  Zn  Zn97  1  0.87425341  0.50864118  0.37289786  1
  Zn  Zn98  1  0.50028411  0.12345350  0.62516711  1
  Zn  Zn99  1  0.49784813  0.87216735  0.37697847  1
  Zn  Zn100  1  0.36440094  0.62497278  0.75695941  1
  Zn  Zn101  1  0.62409007  0.25974149  0.38449707  1
  Zn  Zn102  1  0.84441051  0.74936060  0.60698894  1
  Zn  Zn103  1  0.37000212  0.34038062  0.00598178  1
  Zn  Zn104  1  0.88320576  0.50588355  0.88157205  1
  Zn  Zn105  1  0.13293400  0.50906707  0.08892026  1
  Zn  Zn106  1  0.61704927  0.63068607  -0.00593713  1
  Zn  Zn107  1  0.18022222  0.18398438  0.21926947  1
  Zn  Zn108  1  0.19918843  0.20017677  0.70202933  1
  Zn  Zn109  1  0.18500299  0.68628711  0.18476328  1
  Zn  Zn110  1  0.18693922  0.68115535  0.69489411  1
  Zn  Zn111  1  0.68616601  0.19299444  0.18956533  1
  Zn  Zn112  1  0.69057079  0.18142451  0.68632145  1
  Zn  Zn113  1  0.68451701  0.68809064  0.18784489  1
  Zn  Zn114  1  0.68320049  0.67105173  0.69235023  1
  Zn  Zn115  1  0.31630320  0.31940942  0.30360937  1
  Zn  Zn116  1  0.31092143  0.31471985  0.81368181  1
  Zn  Zn117  1  0.31206830  0.81390271  0.31414146  1
  Zn  Zn118  1  0.31614582  0.80746251  0.81420364  1
  Zn  Zn119  1  0.80962200  0.31695265  0.31142782  1
  Zn  Zn120  1  0.81903247  0.30779394  0.81017494  1
  Zn  Zn121  1  0.81617870  0.81386610  0.31691714  1
  Zn  Zn122  1  0.81228356  0.81183374  0.82084584  1
  Zn  Zn123  1  0.16720438  0.41503664  0.47683453  1
  Zn  Zn124  1  0.18801636  0.41609905  0.93400316  1
  Zn  Zn125  1  0.18271961  0.92819220  0.43904725  1
  Zn  Zn126  1  0.18910684  0.93926121  0.93795085  1
  Zn  Zn127  1  0.68952107  0.44427980  0.43797561  1
  Zn  Zn128  1  0.68754211  0.43976574  0.93798551  1
  Zn  Zn129  1  0.68554022  0.94432737  0.43839120  1
  Zn  Zn130  1  0.69121942  0.93733787  0.93764837  1
  Zn  Zn131  1  0.31676688  0.06874420  0.06382171  1
  Zn  Zn132  1  0.28454501  0.04791384  0.54734164  1
  Zn  Zn133  1  0.31509012  0.55862242  0.06560006  1
  Zn  Zn134  1  0.31526707  0.55878122  0.56272380  1
  Zn  Zn135  1  0.81411756  0.06289429  0.06487636  1
  Zn  Zn136  1  0.81363647  0.05670312  0.56092476  1
  Zn  Zn137  1  0.81574969  0.56392012  0.06265740  1
  Zn  Zn138  1  0.81217600  0.56005532  0.56512131  1
  Zn  Zn139  1  0.43276414  0.43507612  0.18662349  1
  Zn  Zn140  1  0.43648873  0.43589144  0.68756933  1
  Zn  Zn141  1  0.44028137  0.94069675  0.18496465  1
  Zn  Zn142  1  0.43731756  0.93319014  0.68877927  1
  Zn  Zn143  1  0.93656045  0.44743328  0.17951328  1
  Zn  Zn144  1  0.93302664  0.44040475  0.68236396  1
  Zn  Zn145  1  0.93874973  0.93519112  0.19103428  1
  Zn  Zn146  1  0.92012884  0.91989852  0.70028506  1
  Zn  Zn147  1  0.04765240  0.08301854  0.32939294  1
  Zn  Zn148  1  0.06748209  0.05841797  0.81419369  1
  Zn  Zn149  1  0.06249035  0.56374230  0.31938916  1
  Zn  Zn150  1  0.05880443  0.56243124  0.80880098  1
  Zn  Zn151  1  0.56256136  0.06380611  0.31441535  1
  Zn  Zn152  1  0.56164687  0.05980939  0.81453821  1
  Zn  Zn153  1  0.56565569  0.56688217  0.31128330  1
  Zn  Zn154  1  0.56285862  0.55846144  0.81029916  1
  Zn  Zn155  1  0.43669676  0.18460831  0.43622727  1
  Zn  Zn156  1  0.43675240  0.18308774  0.93583279  1
  Zn  Zn157  1  0.44272361  0.68437387  0.43648234  1
  Zn  Zn158  1  0.42726784  0.68402016  0.93524392  1
  Zn  Zn159  1  0.93650807  0.18658439  0.43926982  1
  Zn  Zn160  1  0.93604196  0.18826650  0.93713858  1
  Zn  Zn161  1  0.93720803  0.69762198  0.44106259  1
  Zn  Zn162  1  0.93099584  0.69193608  0.93638618  1
  Zn  Zn163  1  0.07482210  0.31101835  0.05656622  1
  Zn  Zn164  1  0.06497118  0.31061224  0.57176687  1
  Zn  Zn165  1  0.06126087  0.81323340  0.06376056  1
  Zn  Zn166  1  0.06332887  0.81424602  0.56072070  1
  Zn  Zn167  1  0.56219848  0.31243601  0.06470434  1
  Zn  Zn168  1  0.55926528  0.31036376  0.56636776  1
  Zn  Zn169  1  0.56243744  0.81438046  0.06324966  1
  Zn  Zn170  1  0.55791666  0.80860176  0.56332716  1
  O  O171  1  0.11216339  0.11780645  0.13788253  1
  O  O172  1  0.10449679  0.09987366  0.62549324  1
  O  O173  1  0.11200378  0.62664278  0.11958582  1
  O  O174  1  0.11515877  0.63022790  0.61602873  1
  O  O175  1  0.62354750  0.12037676  0.12013506  1
  O  O176  1  0.62327024  0.11560868  0.61642832  1
  O  O177  1  0.61602728  0.61902561  0.12296488  1
  O  O178  1  0.61491515  0.61764928  0.61762622  1
  O  O179  1  0.37458538  0.38623942  0.37970864  1
  O  O180  1  0.38125699  0.37934285  0.88193346  1
  O  O181  1  0.37713448  0.88683937  0.37722320  1
  O  O182  1  0.37924015  0.88105822  0.88239965  1
  O  O183  1  0.87664197  0.37959059  0.38347285  1
  O  O184  1  0.88967027  0.37003594  0.87896705  1
  O  O185  1  0.88840172  0.87518133  0.38396980  1
  O  O186  1  0.88912861  0.87819639  0.87713508  1
  O  O187  1  0.25972548  -0.00527696  0.35785528  1
  O  O188  1  0.25841000  0.00489398  0.86736150  1
  O  O189  1  0.26335348  0.50841435  0.36501647  1
  O  O190  1  0.25618060  0.48917942  0.86129793  1
  O  O191  1  0.74490860  0.01209464  0.36102507  1
  O  O192  1  0.75187596  0.00793827  0.86846887  1
  O  O193  1  0.75102028  0.51168943  0.36585038  1
  O  O194  1  0.75488451  0.50461797  0.86752433  1
  O  O195  1  0.24672964  0.50048995  0.13633654  1
  O  O196  1  0.25736972  0.49892398  0.64050578  1
  O  O197  1  0.24473869  0.99622146  0.12826292  1
  O  O198  1  0.25889045  0.98560727  0.64220641  1
  O  O199  1  0.74356651  0.49948748  0.13105769  1
  O  O200  1  0.75040196  0.48688500  0.63613664  1
  O  O201  1  0.74323044  0.99708733  0.13555517  1
  O  O202  1  0.73900783  1.00381782  0.63617200  1
  O  O203  1  -0.00599688  0.37939561  0.25489577  1
  O  O204  1  -0.00636325  0.37336631  0.75353469  1
  O  O205  1  0.00544557  0.86328183  0.25510254  1
  O  O206  1  0.01035439  0.88535563  0.76193628  1
  O  O207  1  0.50927362  0.36642144  0.24114798  1
  O  O208  1  0.50592061  0.36722542  0.75690247  1
  O  O209  1  0.51432085  0.87757043  0.25081036  1
  O  O210  1  0.49211198  0.86190830  0.76057658  1
  O  O211  1  0.49814872  0.13187786  0.24304693  1
  O  O212  1  0.48833156  0.12891084  0.75276958  1
  O  O213  1  0.49304055  0.62722021  0.24180898  1
  O  O214  1  0.50091786  0.62986286  0.74435732  1
  O  O215  1  0.98823896  0.13962447  0.24242913  1
  O  O216  1  0.98564692  0.10962372  0.75272842  1
  O  O217  1  1.00515670  0.63896459  0.25061984  1
  O  O218  1  0.98699965  0.61811928  0.73928226  1
  O  O219  1  0.38764433  0.23270242  0.01799891  1
  O  O220  1  0.37359865  0.25513451  0.50520691  1
  O  O221  1  0.36506861  0.76042114  0.00457913  1
  O  O222  1  0.36260596  0.74690334  0.50003787  1
  O  O223  1  0.86862371  0.25847747  0.00348123  1
  O  O224  1  0.87828784  0.25788331  0.51027726  1
  O  O225  1  0.86466298  0.75334627  0.01233818  1
  O  O226  1  0.87962101  0.77309852  0.49887159  1
  O  O227  1  0.14616140  0.25674732  0.49579676  1
  O  O228  1  0.12506224  0.24867745  0.97602583  1
  O  O229  1  0.13492867  0.74076920  0.49628560  1
  O  O230  1  0.13634490  0.76050869  0.99177820  1
  O  O231  1  0.61551438  0.23413725  0.50088710  1
  O  O232  1  0.63106024  0.24212857  0.99507014  1
  O  O233  1  0.61968295  0.74180273  0.49045041  1
  O  O234  1  0.64039979  0.74769248  1.01050589  1
  O  O235  1  0.51191666  0.23768515  0.13824708  1
  O  O236  1  0.48841881  0.24371307  0.63263015  1
  O  O237  1  0.49246375  0.74515231  0.12592480  1
  O  O238  1  0.49806160  0.73994791  0.63527107  1
  O  O239  1  0.99464641  0.24676991  0.12720896  1
  O  O240  1  0.98853430  0.24720461  0.62172994  1
  O  O241  1  0.99568957  0.74151149  0.12997939  1
  O  O242  1  0.99981718  0.74003869  0.62231494  1
  O  O243  1  -0.01441706  0.26890996  0.36006270  1
  O  O244  1  0.00389137  0.25390389  0.87034877  1
  O  O245  1  0.00658921  0.75882200  0.36751462  1
  O  O246  1  0.01140105  0.76249843  0.88587859  1
  O  O247  1  0.50481769  0.24435294  0.36164925  1
  O  O248  1  0.50672117  0.25213881  0.86961481  1
  O  O249  1  0.51269026  0.75272281  0.37157146  1
  O  O250  1  0.49303587  0.75454777  0.86967298  1
  O  O251  1  0.26252968  0.14749385  0.49370731  1
  O  O252  1  0.25174572  0.11595351  0.98466482  1
  O  O253  1  0.24249687  0.62791163  0.49904278  1
  O  O254  1  0.25709040  0.64152773  1.00188003  1
  O  O255  1  0.74082052  0.11445029  0.48835305  1
  O  O256  1  0.74523089  0.13195756  0.99628891  1
  O  O257  1  0.73770731  0.61829496  0.49327233  1
  O  O258  1  0.74961607  0.63053307  0.99337087  1
  O  O259  1  0.25337243  0.36895517  0.01509806  1
  O  O260  1  0.26977088  0.36340538  0.50348196  1
  O  O261  1  0.25927009  0.86976735  0.00424038  1
  O  O262  1  0.24850767  0.85968080  0.51105496  1
  O  O263  1  0.75420900  0.36958799  0.00433513  1
  O  O264  1  0.75925493  0.38253163  0.50916057  1
  O  O265  1  0.75215472  0.86707196  0.00713145  1
  O  O266  1  0.76027076  0.88310728  0.49627476  1
  O  O267  1  0.13749874  0.50208827  0.25825867  1
  O  O268  1  0.13290072  0.49688820  0.74865968  1
  O  O269  1  0.13660946  0.99462452  0.23749392  1
  O  O270  1  0.13759378  0.98588489  0.75805436  1
  O  O271  1  0.63019342  0.49471078  0.24429392  1
  O  O272  1  0.63756127  0.48986009  0.75029689  1
  O  O273  1  0.63425800  0.99482333  0.24435476  1
  O  O274  1  0.63296900  1.00868795  0.74120887  1
  O  O275  1  0.37265038  0.00412028  0.25476518  1
  O  O276  1  0.36810008  0.00447285  0.75796511  1
  O  O277  1  0.36720137  0.50644655  0.25459077  1
  O  O278  1  0.37915430  0.50144314  0.76507680  1
  O  O279  1  0.86590148  0.01312618  0.24051384  1
  O  O280  1  0.86399888  0.00683491  0.74923554  1
  O  O281  1  0.85846803  0.49884351  0.24872788  1
  O  O282  1  0.86431594  0.50619339  0.75095903  1
  O  O283  1  0.10417477  0.37466036  0.38191339  1
  O  O284  1  0.10672030  0.36289370  0.87440194  1
  O  O285  1  0.12069794  0.86769784  0.36705010  1
  O  O286  1  0.11983585  0.86958145  0.87010541  1
  O  O287  1  0.63091307  0.37789497  0.36235830  1
  O  O288  1  0.62041907  0.36732949  0.87086372  1
  O  O289  1  0.62658980  0.87022435  0.36824026  1
  O  O290  1  0.60672932  0.88266481  0.88402119  1
  O  O291  1  0.39419408  0.11065427  0.13513828  1
  O  O292  1  0.37170949  0.13124702  0.63794597  1
  O  O293  1  0.37945052  0.63200449  0.13044400  1
  O  O294  1  0.38636985  0.62439286  0.62776735  1
  O  O295  1  0.88186439  0.13292191  0.13337579  1
  O  O296  1  0.86990372  0.13724855  0.62632434  1
  O  O297  1  0.88889325  0.63531129  0.12107949  1
  O  O298  1  0.87793604  0.63169283  0.63046338  1
  O  O299  1  0.23321528  0.26447412  0.14383957  1
  O  O300  1  0.26050755  0.25088796  0.62081224  1
  O  O301  1  0.25418997  0.75739867  0.11833838  1
  O  O302  1  0.25080589  0.75135097  0.62093318  1
  O  O303  1  0.75416818  0.25769191  0.11979716  1
  O  O304  1  0.75489033  0.26058040  0.62741346  1
  O  O305  1  0.75820931  0.75251242  0.12290457  1
  O  O306  1  0.73552706  0.74878035  0.63141622  1
  O  O307  1  0.25708274  0.25939228  0.38262960  1
  O  O308  1  0.25404549  0.23334337  0.87366226  1
  O  O309  1  0.24620548  0.74454448  0.38429055  1
  O  O310  1  0.24078722  0.75138714  0.88534339  1
  O  O311  1  0.74499643  0.23866538  0.36976445  1
  O  O312  1  0.74507024  0.24455888  0.87823689  1
  O  O313  1  0.73817386  0.74345281  0.36733407  1
  O  O314  1  0.75620317  0.73884091  0.88840481  1
  O  O315  1  -0.00660719  0.11783026  0.01344990  1
  O  O316  1  0.03640184  0.13644979  0.43600366  1
  O  O317  1  0.00000554  0.62893005  0.00506698  1
  O  O318  1  0.00316617  0.62250585  0.50714497  1
  O  O319  1  0.51879695  0.12536013  0.00693220  1
  O  O320  1  0.50615347  0.11300781  0.50059454  1
  O  O321  1  0.49708718  0.61583906  0.00403286  1
  O  O322  1  0.50912118  0.62410000  0.51061752  1
  O  O323  1  0.48885926  0.37590486  0.50342854  1
  O  O324  1  0.49912702  0.38219557  0.99669778  1
  O  O325  1  0.49545150  0.88727860  0.50051493  1
  O  O326  1  0.48708918  0.86788456  0.99277252  1
  O  O327  1  0.98726609  0.38418042  0.49288212  1
  O  O328  1  0.98951709  0.36990400  0.99852860  1
  O  O329  1  1.01221421  0.87929533  0.48218689  1
  O  O330  1  0.99959857  0.88508686  0.99496536  1
  O  O331  1  0.48559812  0.51071865  0.37386808  1
  O  O332  1  0.49384029  0.49365581  0.88250471  1
  O  O333  1  0.49382245  0.99760098  0.38356649  1
  O  O334  1  0.48583253  0.98977069  0.86773371  1
  O  O335  1  0.99133117  0.49852765  0.38366576  1
  O  O336  1  0.99964863  0.48272434  0.86857149  1
  O  O337  1  1.00670275  0.98133254  0.35605907  1
  O  O338  1  1.00343208  0.99287126  0.88804583  1
  O  O339  1  0.00698758  0.00744336  0.12274651  1
  O  O340  1  0.04154014  0.09256168  0.58975460  1
  O  O341  1  0.00405260  0.51850558  0.12257547  1
  O  O342  1  -0.00788635  0.51136936  0.61269160  1
  O  O343  1  0.51782335  0.01067760  0.13172227  1
  O  O344  1  0.50359980  0.00250227  0.61925826  1
  O  O345  1  0.50082138  0.50447126  0.11778032  1
  O  O346  1  0.50194661  0.50805334  0.62516652  1
  O  O347  1  0.24506105  0.38608279  0.24105212  1
  O  O348  1  0.25409628  0.38764402  0.74763369  1
  O  O349  1  0.24684161  0.88296937  0.24262673  1
  O  O350  1  0.24429138  0.87716712  0.74758830  1
  O  O351  1  0.74112166  0.38523573  0.24323477  1
  O  O352  1  0.74818831  0.37750430  0.74456472  1
  O  O353  1  0.74422997  0.88371215  0.24818046  1
  O  O354  1  0.75172840  0.89011309  0.76227321  1
  O  O355  1  0.26927259  0.11135953  0.23169419  1
  O  O356  1  0.25700194  0.11436843  0.75704566  1
  O  O357  1  0.25457471  0.62149848  0.25462421  1
  O  O358  1  0.24649817  0.60555714  0.76081784  1
  O  O359  1  0.75483275  0.12131991  0.25382514  1
  O  O360  1  0.75890729  0.11656622  0.75544775  1
  O  O361  1  0.74049088  0.61736767  0.26027198  1
  O  O362  1  0.75730256  0.61386716  0.75894656  1
  O  O363  1  0.38205309  0.11151965  0.36070620  1
  O  O364  1  0.36712383  0.11591421  0.86610523  1
  O  O365  1  0.36930278  0.62086339  0.36985043  1
  O  O366  1  0.35211592  0.60588761  0.88420715  1
  O  O367  1  0.86568897  0.13266634  0.36023107  1
  O  O368  1  0.86991247  0.12519393  0.86518993  1
  O  O369  1  0.85960363  0.63006668  0.38496556  1
  O  O370  1  0.86799228  0.62304018  0.86721803  1
  O  O371  1  0.13465331  0.39118037  0.11670302  1
  O  O372  1  0.13335785  0.39288208  0.58733717  1
  O  O373  1  0.12989164  0.88414399  0.12940081  1
  O  O374  1  0.13592808  0.86590570  0.63711701  1
  O  O375  1  0.63061059  0.38291379  0.13240445  1
  O  O376  1  0.63265811  0.37254543  0.63116593  1
  O  O377  1  0.63115271  0.88296395  0.13287826  1
  O  O378  1  0.61717532  0.89064210  0.62144935  1
  O  O379  1  0.10070684  0.26680758  0.24600312  1
  O  O380  1  0.13074787  0.24931413  0.77064700  1
  O  O381  1  0.11980983  0.75580754  0.25386672  1
  O  O382  1  0.13146667  0.76052629  0.76434442  1
  O  O383  1  0.61985568  0.26166977  0.25325716  1
  O  O384  1  0.62045135  0.25087413  0.75486044  1
  O  O385  1  0.62436399  0.76223617  0.25678152  1
  O  O386  1  0.61222441  0.75056423  0.74843039  1
  O  O387  1  0.38482642  0.23807417  0.25384269  1
  O  O388  1  0.37724329  0.24302147  0.74427175  1
  O  O389  1  0.37485930  0.74601785  0.24377517  1
  O  O390  1  0.38369092  0.73977929  0.75251963  1
  O  O391  1  0.87783673  0.24806490  0.24070706  1
  O  O392  1  0.87309304  0.23999736  0.73336857  1
  O  O393  1  0.88395823  0.75519085  0.24084574  1
  O  O394  1  0.86877210  0.73836625  0.75088019  1
  O  O395  1  0.37611395  0.49183208  0.49059960  1
  O  O396  1  0.38519777  0.49691533  0.99382474  1
  O  O397  1  0.37937632  1.00175177  0.49072145  1
  O  O398  1  0.36936942  0.98973443  0.99055672  1
  O  O399  1  0.88053774  0.49088967  0.49954485  1
  O  O400  1  0.86818651  0.48565986  0.99690873  1
  O  O401  1  0.88284429  0.98427284  0.50774606  1
  O  O402  1  0.88717042  0.99810911  1.00124853  1
  O  O403  1  0.11667680  -0.00378684  0.01409598  1
  O  O404  1  0.17865170  0.01496461  0.50497994  1
  O  O405  1  0.17102160  0.52269949  -0.02379419  1
  O  O406  1  0.11034762  0.51728238  0.48868243  1
  O  O407  1  0.63825942  0.01079437  0.01288707  1
  O  O408  1  0.61569957  0.00808419  0.50717528  1
  O  O409  1  0.61156077  0.50119748  0.00466016  1
  O  O410  1  0.62041772  0.51063158  0.50033388  1
  O  O411  1  0.35626483  0.37498893  0.12718134  1
  O  O412  1  0.37665262  0.36297297  0.61849572  1
  O  O413  1  0.37236440  0.87366389  0.11768622  1
  O  O414  1  0.36156489  0.86872581  0.62433277  1
  O  O415  1  0.86978779  0.37277211  0.11661950  1
  O  O416  1  0.86978364  0.36246638  0.61807118  1
  O  O417  1  0.87038797  0.86503024  0.12628878  1
  O  O418  1  0.87689009  0.86806243  0.61401145  1
  O  O419  1  0.14780259  0.14326828  0.33039716  1
  O  O420  1  0.13712262  0.13030378  0.87199108  1
  O  O421  1  0.13106193  0.63301362  0.38528523  1
  O  O422  1  0.12953783  0.63471028  0.87050961  1
  O  O423  1  0.63222899  0.12575386  0.38287742  1
  O  O424  1  0.63035572  0.12760431  0.88311617  1
  O  O425  1  0.63170178  0.63399949  0.38279483  1
  O  O426  1  0.63995324  0.61818085  0.87561765  1
