# generated using pymatgen
data_V85Zn86O256
_symmetry_space_group_name_H-M   'P 1'
_cell_length_a   16.97316728
_cell_length_b   16.96965072
_cell_length_c   16.96991986
_cell_angle_alpha   89.96571238
_cell_angle_beta   90.01798184
_cell_angle_gamma   89.96186598
_symmetry_Int_Tables_number   1
_chemical_formula_structural   V85Zn86O256
_chemical_formula_sum   'V85 Zn86 O256'
_cell_volume   4887.82210623
_cell_formula_units_Z   1
loop_
 _symmetry_equiv_pos_site_id
 _symmetry_equiv_pos_as_xyz
  1  'x, y, z'
loop_
 _atom_site_type_symbol
 _atom_site_label
 _atom_site_symmetry_multiplicity
 _atom_site_fract_x
 _atom_site_fract_y
 _atom_site_fract_z
 _atom_site_occupancy
  V  V0  1  0.87991947  0.24886686  0.12514538  1
  V  V1  1  0.74560995  0.37705318  0.13097104  1
  V  V2  1  0.25075302  0.37282786  0.62620133  1
  V  V3  1  -0.00171356  0.74811576  0.75086119  1
  V  V4  1  0.24960190  0.00052735  0.24958870  1
  V  V5  1  0.37334534  0.00438036  0.87510192  1
  V  V6  1  0.74904198  0.74925171  0.49953015  1
  V  V7  1  0.87716234  0.36915038  0.49764384  1
  V  V8  1  0.12157738  0.37177184  0.75119823  1
  V  V9  1  0.12308042  0.87321825  0.75503886  1
  V  V10  1  0.74753131  0.12394665  0.36670410  1
  V  V11  1  0.62086192  0.74471537  0.36965127  1
  V  V12  1  0.62380907  0.63045587  -0.00160312  1
  V  V13  1  0.63063518  0.00043649  0.13038903  1
  V  V14  1  0.62463331  0.12027405  0.50157743  1
  V  V15  1  0.87019859  -0.00191966  0.36444187  1
  V  V16  1  0.01576946  0.50277575  0.00116515  1
  V  V17  1  0.87271404  0.38239657  -0.00130116  1
  V  V18  1  0.37721703  0.24492982  0.63536051  1
  V  V19  1  0.24990198  0.74732980  0.49952971  1
  V  V20  1  0.51596188  0.25980467  0.75952947  1
  V  V21  1  0.62368593  0.12825646  -0.00616633  1
  V  V22  1  0.87554848  0.12695703  0.75788527  1
  V  V23  1  0.37357643  0.62520624  0.75300047  1
  V  V24  1  0.61449012  0.26237701  0.36334126  1
  V  V25  1  0.24694469  0.24349089  0.00117569  1
  V  V26  1  0.87458317  0.49933871  0.36977941  1
  V  V27  1  0.12418660  0.00011700  0.62411884  1
  V  V28  1  0.25049782  0.12427466  0.37623649  1
  V  V29  1  0.62571933  0.62228637  0.50317029  1
  V  V30  1  0.49959956  0.49669098  0.50134518  1
  V  V31  1  0.75556254  0.62564197  0.86789443  1
  V  V32  1  0.37466786  0.74894732  0.62681933  1
  V  V33  1  0.74396502  0.88278259  0.62479587  1
  V  V34  1  0.62837588  0.49931364  0.12459716  1
  V  V35  1  0.25210727  0.00600655  0.75166968  1
  V  V36  1  0.12426542  0.87379964  0.24945049  1
  V  V37  1  0.61727788  0.75699431  0.87449413  1
  V  V38  1  0.12479544  0.12400219  0.50000342  1
  V  V39  1  0.11827850  0.25499323  0.37470809  1
  V  V40  1  0.37860677  0.49581530  0.87656005  1
  V  V41  1  0.24013717  0.62489496  0.87988127  1
  V  V42  1  0.75326264  0.24839910  0.50487696  1
  V  V43  1  0.49782924  0.62751145  0.13756199  1
  V  V44  1  0.37983508  0.37642721  0.49950266  1
  V  V45  1  0.25221789  0.24963354  0.50103745  1
  V  V46  1  -0.00532572  0.74360671  0.24954256  1
  V  V47  1  0.37691476  -0.00047092  0.37590961  1
  V  V48  1  0.24976714  0.87397932  0.62502462  1
  V  V49  1  0.50026277  0.87101789  0.36947315  1
  V  V50  1  0.75319368  0.62343876  0.36954008  1
  V  V51  1  -0.00439901  0.01292231  -0.00225364  1
  V  V52  1  0.24220851  0.74687543  0.00075281  1
  V  V53  1  0.26229750  0.61978132  0.37130096  1
  V  V54  1  0.50011157  -0.00400286  -0.00347099  1
  V  V55  1  0.61804783  0.88326130  0.75091001  1
  V  V56  1  0.75642247  -0.00196753  0.75789019  1
  V  V57  1  0.86812752  0.74213046  0.12305289  1
  V  V58  1  0.11667228  0.38196531  0.24717289  1
  V  V59  1  0.12399551  0.24416562  0.87861849  1
  V  V60  1  0.37647510  0.87406272  0.49973556  1
  V  V61  1  0.87549074  0.87770013  0.49746595  1
  V  V62  1  0.37723034  0.12853740  0.25230608  1
  V  V63  1  0.88015848  0.12473814  0.24558266  1
  V  V64  1  0.00260643  0.49194021  0.49137490  1
  V  V65  1  0.50284843  0.62566785  0.63129108  1
  V  V66  1  0.12419646  0.74858918  0.37447808  1
  V  V67  1  0.38124402  0.37347236  -0.00471302  1
  V  V68  1  0.63093939  0.87763721  0.25009374  1
  V  V69  1  0.74885665  0.38010803  0.63146718  1
  V  V70  1  0.37585110  0.25220691  0.12965403  1
  V  V71  1  0.25048008  0.87409335  0.12543285  1
  V  V72  1  0.12026271  0.01463083  0.12051543  1
  V  V73  1  0.24820865  0.49982648  0.75101997  1
  V  V74  1  -0.00861002  0.12927504  0.62308620  1
  V  V75  1  0.50323607  0.11948710  0.63190368  1
  V  V76  1  0.50012814  0.12885001  0.13088063  1
  V  V77  1  0.37846854  0.74684601  0.13587572  1
  V  V78  1  0.01269933  0.62165684  0.12291205  1
  V  V79  1  0.87574400  0.75007194  0.62500197  1
  V  V80  1  0.74453158  0.25163281  -0.00711563  1
  V  V81  1  0.25418330  0.50496594  0.24153275  1
  V  V82  1  0.12602729  0.62188114  0.49909472  1
  V  V83  1  0.12490089  0.49770371  0.62212042  1
  V  V84  1  0.37788370  0.87249626  -0.00423986  1
  Zn  Zn85  1  0.62795304  0.49276498  0.63717249  1
  Zn  Zn86  1  0.24580168  0.38243274  0.12150670  1
  Zn  Zn87  1  0.50618505  -0.00289918  0.50418024  1
  Zn  Zn88  1  -0.00630560  0.25156730  0.74924590  1
  Zn  Zn89  1  0.87403018  0.49558912  0.86505774  1
  Zn  Zn90  1  -0.00075534  0.37616907  0.87577498  1
  Zn  Zn91  1  -0.01223325  0.87996637  0.87714430  1
  Zn  Zn92  1  0.74977473  0.75876955  -0.00306239  1
  Zn  Zn93  1  0.74987607  0.12450603  0.87511622  1
  Zn  Zn94  1  0.86263982  0.61269405  0.73550486  1
  Zn  Zn95  1  0.75624791  0.50178918  0.24797958  1
  Zn  Zn96  1  0.11897494  0.74634929  0.88164782  1
  Zn  Zn97  1  0.49407777  0.76039980  0.75655596  1
  Zn  Zn98  1  -0.00016645  0.00010355  0.49739396  1
  Zn  Zn99  1  -0.00121534  0.87486350  0.37259051  1
  Zn  Zn100  1  -0.00002677  0.25166807  0.24953963  1
  Zn  Zn101  1  0.40886029  0.45978425  0.34101179  1
  Zn  Zn102  1  -0.00186160  0.62140426  0.62258063  1
  Zn  Zn103  1  0.87201709  0.88166269  -0.00498619  1
  Zn  Zn104  1  0.50358184  0.49714669  -0.00424584  1
  Zn  Zn105  1  0.75820962  0.88368742  0.12829870  1
  Zn  Zn106  1  0.24725474  0.12381976  0.87692221  1
  Zn  Zn107  1  0.19029894  0.19292079  0.19048834  1
  Zn  Zn108  1  0.18407376  0.18714106  0.68625368  1
  Zn  Zn109  1  0.18739760  0.68799212  0.18633766  1
  Zn  Zn110  1  0.18569153  0.68540740  0.68826366  1
  Zn  Zn111  1  0.68893361  0.19066044  0.18546846  1
  Zn  Zn112  1  0.68791937  0.18862720  0.68750259  1
  Zn  Zn113  1  0.68305637  0.68551353  0.19128398  1
  Zn  Zn114  1  0.68449004  0.69551083  0.68907072  1
  Zn  Zn115  1  0.30389765  0.31353998  0.31081424  1
  Zn  Zn116  1  0.31176243  0.30990363  0.81427896  1
  Zn  Zn117  1  0.31047243  0.81136703  0.31485753  1
  Zn  Zn118  1  0.30935737  0.81359200  0.81500958  1
  Zn  Zn119  1  0.80934466  0.31032173  0.31547976  1
  Zn  Zn120  1  0.81337915  0.30949923  0.81273935  1
  Zn  Zn121  1  0.81112926  0.80890066  0.30947275  1
  Zn  Zn122  1  0.80972522  0.81060537  0.81408365  1
  Zn  Zn123  1  0.19399352  0.43642867  0.43152589  1
  Zn  Zn124  1  0.19314418  0.43093030  0.93659302  1
  Zn  Zn125  1  0.18765160  0.93617582  0.43688699  1
  Zn  Zn126  1  0.18525786  0.93706346  0.94036060  1
  Zn  Zn127  1  0.68858830  0.43694993  0.44208585  1
  Zn  Zn128  1  0.69010733  0.44461378  0.93345399  1
  Zn  Zn129  1  0.68865991  0.93780434  0.43482052  1
  Zn  Zn130  1  0.68990681  0.93696327  0.93951491  1
  Zn  Zn131  1  0.31235162  0.06248528  0.06427326  1
  Zn  Zn132  1  0.31565608  0.06220856  0.56375487  1
  Zn  Zn133  1  0.31222251  0.56325883  0.06210949  1
  Zn  Zn134  1  0.31303272  0.56147717  0.56344791  1
  Zn  Zn135  1  0.81248094  0.06617800  0.06111979  1
  Zn  Zn136  1  0.81117749  0.06214043  0.56166427  1
  Zn  Zn137  1  0.81332170  0.56804654  0.05853826  1
  Zn  Zn138  1  0.81266055  0.55757904  0.55675917  1
  Zn  Zn139  1  0.44126613  0.43648477  0.17631787  1
  Zn  Zn140  1  0.43886496  0.43560749  0.68906615  1
  Zn  Zn141  1  0.43950402  0.93750682  0.18676700  1
  Zn  Zn142  1  0.43357976  0.94104117  0.68711196  1
  Zn  Zn143  1  0.93736499  0.43788421  0.18387329  1
  Zn  Zn144  1  0.93477637  0.43563098  0.68023956  1
  Zn  Zn145  1  0.93947453  0.93380912  0.18308539  1
  Zn  Zn146  1  0.93738694  0.94022609  0.68752182  1
  Zn  Zn147  1  0.05973362  0.06198941  0.31225396  1
  Zn  Zn148  1  0.06067957  0.06128894  0.81311358  1
  Zn  Zn149  1  0.06501449  0.56414353  0.31255653  1
  Zn  Zn150  1  0.05302468  0.55878716  0.80868986  1
  Zn  Zn151  1  0.56314226  0.06224659  0.31543157  1
  Zn  Zn152  1  0.56100107  0.06145002  0.81187180  1
  Zn  Zn153  1  0.55199241  0.52036986  0.29953964  1
  Zn  Zn154  1  0.56118965  0.56779060  0.81847248  1
  Zn  Zn155  1  0.44045214  0.19000982  0.44169490  1
  Zn  Zn156  1  0.43717674  0.18659563  0.93789407  1
  Zn  Zn157  1  0.44095381  0.68444305  0.43963283  1
  Zn  Zn158  1  0.43445797  0.68592027  0.94076759  1
  Zn  Zn159  1  0.93674657  0.18393295  0.43547080  1
  Zn  Zn160  1  0.93858617  0.19068941  0.93849799  1
  Zn  Zn161  1  0.93852136  0.68312209  0.43831263  1
  Zn  Zn162  1  0.93986643  0.69079840  0.94044892  1
  Zn  Zn163  1  0.06339660  0.31552432  0.06271904  1
  Zn  Zn164  1  0.06133428  0.30988956  0.56219770  1
  Zn  Zn165  1  0.05652205  0.82072282  0.06502406  1
  Zn  Zn166  1  0.06249148  0.81285246  0.56254139  1
  Zn  Zn167  1  0.56199034  0.31245500  0.06359175  1
  Zn  Zn168  1  0.56661013  0.30721786  0.56393538  1
  Zn  Zn169  1  0.56173597  0.81210115  0.06598781  1
  Zn  Zn170  1  0.56199385  0.81088198  0.56217834  1
  O  O171  1  0.12961691  0.11306876  0.13232196  1
  O  O172  1  0.11799918  0.11822138  0.61922792  1
  O  O173  1  0.11143567  0.63008275  0.11988547  1
  O  O174  1  0.12699753  0.61531881  0.61648646  1
  O  O175  1  0.61750944  0.11977058  0.12003338  1
  O  O176  1  0.61305385  0.13134926  0.61509019  1
  O  O177  1  0.61699783  0.62402784  0.11662840  1
  O  O178  1  0.61854685  0.62341177  0.62490003  1
  O  O179  1  0.36399328  0.36966073  0.39480363  1
  O  O180  1  0.36592982  0.38512152  0.88276435  1
  O  O181  1  0.38260844  0.87677415  0.37901085  1
  O  O182  1  0.36955783  0.88310735  0.88897768  1
  O  O183  1  0.86500284  0.38500639  0.38688197  1
  O  O184  1  0.87702383  0.37448263  0.88594726  1
  O  O185  1  0.87069052  0.88078294  0.38068044  1
  O  O186  1  0.87464346  0.86985756  0.87986267  1
  O  O187  1  0.25602106  0.00436141  0.36948522  1
  O  O188  1  0.25372214  0.00023885  0.86938071  1
  O  O189  1  0.25181249  0.50817264  0.36341411  1
  O  O190  1  0.25598760  0.50703523  0.87137260  1
  O  O191  1  0.75981679  0.01042954  0.37755753  1
  O  O192  1  0.74628266  0.00365188  0.86230437  1
  O  O193  1  0.75618247  0.50729812  0.37604938  1
  O  O194  1  0.75732084  0.52200707  0.88061396  1
  O  O195  1  0.24563282  0.50535428  0.13652392  1
  O  O196  1  0.24464034  0.49361099  0.63152645  1
  O  O197  1  0.24187354  0.99519996  0.12975153  1
  O  O198  1  0.24695925  0.99395291  0.63241232  1
  O  O199  1  0.74650062  0.49415513  0.12077773  1
  O  O200  1  0.74811120  0.48735098  0.62202255  1
  O  O201  1  0.73340981  1.00387011  0.12182951  1
  O  O202  1  0.75320104  0.98794194  0.63262707  1
  O  O203  1  0.01274557  0.37484289  0.24719976  1
  O  O204  1  0.01142327  0.37219048  0.74785808  1
  O  O205  1  0.00662259  0.86183517  0.25017595  1
  O  O206  1  0.00756389  0.86771265  0.74880623  1
  O  O207  1  0.49429086  0.42401917  0.27198858  1
  O  O208  1  0.49971366  0.35891857  0.74489546  1
  O  O209  1  0.50757385  0.87710178  0.26323594  1
  O  O210  1  0.51434195  0.87992405  0.74303048  1
  O  O211  1  0.49379120  0.11787660  0.23785319  1
  O  O212  1  0.50677460  0.12989639  0.73571898  1
  O  O213  1  0.50607321  0.61735417  0.23483213  1
  O  O214  1  0.49450460  0.62589265  0.74311351  1
  O  O215  1  0.98478428  0.12997588  0.25420218  1
  O  O216  1  0.98761664  0.12103231  0.74349292  1
  O  O217  1  1.00641154  0.63194919  0.23650014  1
  O  O218  1  1.00354823  0.64039713  0.74221702  1
  O  O219  1  0.36865709  0.25548649  0.00644351  1
  O  O220  1  0.37186520  0.25746331  0.51077051  1
  O  O221  1  0.36803249  0.75753471  0.00714078  1
  O  O222  1  0.36959772  0.75421606  0.50674731  1
  O  O223  1  0.86665230  0.25842090  0.00640368  1
  O  O224  1  0.86546142  0.25684207  0.48853456  1
  O  O225  1  0.87445853  0.75038740  0.01592452  1
  O  O226  1  0.87026746  0.75883903  0.50454322  1
  O  O227  1  0.13215610  0.24520939  0.49389926  1
  O  O228  1  0.13489130  0.26152752  0.99037099  1
  O  O229  1  0.13062878  0.74411422  0.49594121  1
  O  O230  1  0.13903883  0.75998580  1.00126599  1
  O  O231  1  0.63380212  0.23893292  0.49060672  1
  O  O232  1  0.63273780  0.24021958  1.00823415  1
  O  O233  1  0.63050471  0.74431104  0.49296157  1
  O  O234  1  0.62446514  0.74721757  0.99302951  1
  O  O235  1  0.48863887  0.23960382  0.11876664  1
  O  O236  1  0.49529123  0.24138745  0.63447194  1
  O  O237  1  0.49429211  0.73669729  0.12279232  1
  O  O238  1  0.49413596  0.74018232  0.62794961  1
  O  O239  1  0.98302936  0.25676453  0.12326175  1
  O  O240  1  1.00788138  0.23422311  0.63020892  1
  O  O241  1  0.99368277  0.73903902  0.12929175  1
  O  O242  1  0.98968497  0.75123849  0.62995071  1
  O  O243  1  0.01480891  0.24504918  0.37509290  1
  O  O244  1  0.00933447  0.25566677  0.87280091  1
  O  O245  1  0.00439215  0.74677157  0.36572653  1
  O  O246  1  0.00332947  0.75016293  0.86385732  1
  O  O247  1  0.51534791  0.24730221  0.37893161  1
  O  O248  1  0.49131860  0.24122221  0.85647334  1
  O  O249  1  0.51057230  0.75798901  0.38332050  1
  O  O250  1  0.51136697  0.74519385  0.87418843  1
  O  O251  1  0.24555237  0.12963337  0.49625217  1
  O  O252  1  0.25412879  0.13914659  1.00068736  1
  O  O253  1  0.24635490  0.62721502  0.49275446  1
  O  O254  1  0.25528007  0.63522697  0.99175049  1
  O  O255  1  0.74592888  0.13031216  0.49286163  1
  O  O256  1  0.74111630  0.13348949  0.99933840  1
  O  O257  1  0.74389877  0.62997266  0.49412554  1
  O  O258  1  0.73803096  0.63338762  0.99257847  1
  O  O259  1  0.26084305  0.36510367  0.00396617  1
  O  O260  1  0.25638245  0.36987246  0.50856327  1
  O  O261  1  0.25903170  0.86772989  0.00607525  1
  O  O262  1  0.25533852  0.86745967  0.50483140  1
  O  O263  1  0.75398925  0.37060649  0.00253852  1
  O  O264  1  0.75792551  0.36640065  0.50678773  1
  O  O265  1  0.75173180  0.87402768  0.01075633  1
  O  O266  1  0.75541230  0.87057926  0.50573327  1
  O  O267  1  0.12953258  0.48628016  0.25608295  1
  O  O268  1  0.12747504  0.49073747  0.74440883  1
  O  O269  1  0.12895617  0.99524612  0.24230564  1
  O  O270  1  0.13089571  0.99092012  0.74497128  1
  O  O271  1  0.63844160  0.50974005  0.22799908  1
  O  O272  1  0.63037993  0.48220680  0.77708002  1
  O  O273  1  0.61826119  0.99115773  0.24134038  1
  O  O274  1  0.63322925  0.98820654  0.75250431  1
  O  O275  1  0.36971109  0.00560158  0.25526288  1
  O  O276  1  0.36319473  -0.01126021  0.76302867  1
  O  O277  1  0.35594261  0.50265161  0.24505370  1
  O  O278  1  0.36782835  0.50365950  0.75705468  1
  O  O279  1  0.87893725  0.00607924  0.25607953  1
  O  O280  1  0.86608175  0.00929093  0.74642072  1
  O  O281  1  0.87573738  0.49314226  0.26462389  1
  O  O282  1  0.90246408  0.51069930  0.75651038  1
  O  O283  1  0.13357573  0.36400458  0.36303292  1
  O  O284  1  0.12505191  0.36792663  0.86446168  1
  O  O285  1  0.12348743  0.86750264  0.36850750  1
  O  O286  1  0.12622697  0.87186812  0.86150122  1
  O  O287  1  0.63195157  0.36099613  0.37902472  1
  O  O288  1  0.63572552  0.41946084  0.82691543  1
  O  O289  1  0.61997914  0.86783601  0.37028390  1
  O  O290  1  0.62997765  0.86988627  0.86123267  1
  O  O291  1  0.38170168  0.13166562  0.13025289  1
  O  O292  1  0.39061323  0.13423306  0.61613030  1
  O  O293  1  0.39082797  0.63101863  0.11737610  1
  O  O294  1  0.38181545  0.62894296  0.63255876  1
  O  O295  1  0.86311861  0.13780687  0.13589975  1
  O  O296  1  0.88496922  0.11823976  0.63052686  1
  O  O297  1  0.88391517  0.63647646  0.12328281  1
  O  O298  1  0.87364217  0.63819254  0.61867438  1
  O  O299  1  0.26060832  0.25118207  0.11783587  1
  O  O300  1  0.25686776  0.25159907  0.62057790  1
  O  O301  1  0.25814981  0.75179959  0.11804734  1
  O  O302  1  0.25509063  0.75331031  0.61996292  1
  O  O303  1  0.75588093  0.25977031  0.11467041  1
  O  O304  1  0.74643537  0.25540679  0.61019476  1
  O  O305  1  0.76268330  0.74465357  0.12970859  1
  O  O306  1  0.75790415  0.75969214  0.62040933  1
  O  O307  1  0.24197875  0.24238769  0.38135719  1
  O  O308  1  0.24334080  0.24734822  0.88316095  1
  O  O309  1  0.24354072  0.74256231  0.37995359  1
  O  O310  1  0.24769266  0.74175950  0.88332944  1
  O  O311  1  0.74261047  0.23988250  0.38348832  1
  O  O312  1  0.75181592  0.24819011  0.88915714  1
  O  O313  1  0.74316550  0.74333128  0.38040134  1
  O  O314  1  0.73510341  0.74310144  0.87626407  1
  O  O315  1  -0.00196338  0.11379590  -0.00035835  1
  O  O316  1  0.00507589  0.12283190  0.50696081  1
  O  O317  1  -0.00159764  0.61316196  0.00863425  1
  O  O318  1  0.00849362  0.61411166  0.50137880  1
  O  O319  1  0.50523791  0.11810708  0.01029557  1
  O  O320  1  0.50922128  0.12376328  0.50940804  1
  O  O321  1  0.51352899  0.62455381  0.00192814  1
  O  O322  1  0.50397554  0.62018329  0.51606673  1
  O  O323  1  0.49257620  0.38422403  0.51150009  1
  O  O324  1  0.48625664  0.37558964  1.00201581  1
  O  O325  1  0.49598164  0.87642518  0.49167662  1
  O  O326  1  0.49033913  0.88549646  1.00838158  1
  O  O327  1  0.99307561  0.38179874  0.50258698  1
  O  O328  1  0.99087508  0.38907329  1.00509204  1
  O  O329  1  0.98682888  0.87469975  0.49697849  1
  O  O330  1  0.99705998  0.88793270  0.99811320  1
  O  O331  1  0.49276369  0.51945557  0.39986993  1
  O  O332  1  0.48229040  0.50758162  0.87778950  1
  O  O333  1  0.49425214  0.98963144  0.37859334  1
  O  O334  1  0.49139693  1.00523575  0.88897370  1
  O  O335  1  0.99217578  0.50631515  0.38464168  1
  O  O336  1  0.99800153  0.50044980  0.89267431  1
  O  O337  1  0.98590993  0.99670122  0.37712957  1
  O  O338  1  1.01063111  0.99854983  0.89317541  1
  O  O339  1  0.01541301  -0.00165466  0.12017342  1
  O  O340  1  0.00695426  0.00792282  0.62163764  1
  O  O341  1  -0.00456981  0.51302600  0.11595437  1
  O  O342  1  0.00770218  0.49995663  0.60954836  1
  O  O343  1  0.50489307  0.00909363  0.11608613  1
  O  O344  1  0.49426874  0.01516658  0.62382576  1
  O  O345  1  0.50919299  0.51367327  0.11555075  1
  O  O346  1  0.50623433  0.50962308  0.62512219  1
  O  O347  1  0.24285295  0.38939546  0.24729455  1
  O  O348  1  0.24128751  0.37980820  0.74582013  1
  O  O349  1  0.24495677  0.88090476  0.24587845  1
  O  O350  1  0.24128672  0.88059602  0.74434069  1
  O  O351  1  0.75507109  0.37569388  0.23316532  1
  O  O352  1  0.76459774  0.36639353  0.72905666  1
  O  O353  1  0.73561796  0.87244076  0.24800575  1
  O  O354  1  0.74304225  0.88103119  0.74222568  1
  O  O355  1  0.25738929  0.12006310  0.25688083  1
  O  O356  1  0.24433854  0.10859484  0.74899254  1
  O  O357  1  0.23662333  0.61243657  0.25769838  1
  O  O358  1  0.25437269  0.61974617  0.75782734  1
  O  O359  1  0.75987920  0.13074664  0.26054993  1
  O  O360  1  0.75990940  0.11748648  0.74759893  1
  O  O361  1  0.74797000  0.62525466  0.26597042  1
  O  O362  1  0.74829594  0.63203655  0.76240172  1
  O  O363  1  0.37122989  0.12117399  0.37254219  1
  O  O364  1  0.36925968  0.10777099  0.88303469  1
  O  O365  1  0.36213528  0.63198562  0.37624094  1
  O  O366  1  0.36386896  0.61770115  0.87174518  1
  O  O367  1  0.86721331  0.11750522  0.36729659  1
  O  O368  1  0.87473520  0.12519259  0.86139631  1
  O  O369  1  0.86342772  0.61367517  0.38566421  1
  O  O370  1  0.85879988  0.63723620  0.87645483  1
  O  O371  1  0.12958258  0.36661596  0.14264631  1
  O  O372  1  0.13080195  0.37706357  0.63207843  1
  O  O373  1  0.13293271  0.88057881  0.13310571  1
  O  O374  1  0.13029128  0.87986210  0.63165473  1
  O  O375  1  0.63354951  0.38754561  0.11309770  1
  O  O376  1  0.64260894  0.37431783  0.62093310  1
  O  O377  1  0.62078873  0.88314590  0.13547245  1
  O  O378  1  0.63458311  0.86643320  0.63645748  1
  O  O379  1  0.12490970  0.25899727  0.25827497  1
  O  O380  1  0.12739497  0.25919499  0.75784876  1
  O  O381  1  0.11746064  0.75427443  0.25422547  1
  O  O382  1  0.11656097  0.75933970  0.74621087  1
  O  O383  1  0.62920240  0.24698885  0.26381125  1
  O  O384  1  0.61606124  0.24706442  0.75353218  1
  O  O385  1  0.62595712  0.75781060  0.26315578  1
  O  O386  1  0.62061641  0.76414445  0.75733758  1
  O  O387  1  0.36642426  0.24582020  0.23827209  1
  O  O388  1  0.37543615  0.25037103  0.73812431  1
  O  O389  1  0.36933295  0.75375991  0.23482481  1
  O  O390  1  0.37531261  0.74575879  0.74616443  1
  O  O391  1  0.87596822  0.24531828  0.24322774  1
  O  O392  1  0.87419401  0.23156744  0.74879788  1
  O  O393  1  0.88645763  0.75174287  0.24115195  1
  O  O394  1  0.88134380  0.74989103  0.73752677  1
  O  O395  1  0.38450000  0.48797956  0.51262701  1
  O  O396  1  0.37200141  0.49025195  0.99320234  1
  O  O397  1  0.37499459  0.99088957  0.49300158  1
  O  O398  1  0.37980432  0.99190082  0.99720197  1
  O  O399  1  0.88418850  0.49112475  0.49129117  1
  O  O400  1  0.87748597  0.49037255  0.99805280  1
  O  O401  1  0.87279060  0.98927115  0.49043921  1
  O  O402  1  0.89147819  1.00061581  1.01384111  1
  O  O403  1  0.12207896  -0.00048766  0.01532046  1
  O  O404  1  0.12506324  0.00542623  0.50517800  1
  O  O405  1  0.11397417  0.48989095  0.00081649  1
  O  O406  1  0.12056693  0.49967786  0.50060614  1
  O  O407  1  0.61634215  0.00586681  0.00832607  1
  O  O408  1  0.62668817  0.01427761  0.49463181  1
  O  O409  1  0.62578566  0.51160445  0.00510482  1
  O  O410  1  0.61619681  0.50602689  0.50448942  1
  O  O411  1  0.37330500  0.36694720  0.11595847  1
  O  O412  1  0.36918077  0.36559906  0.61973606  1
  O  O413  1  0.37153391  0.86828118  0.11751723  1
  O  O414  1  0.36982819  0.86908437  0.62032584  1
  O  O415  1  0.86545062  0.37041123  0.11574783  1
  O  O416  1  0.86566349  0.37807613  0.60716483  1
  O  O417  1  0.87441258  0.85894639  0.12597983  1
  O  O418  1  0.86727213  0.86893374  0.61625111  1
  O  O419  1  0.13118319  0.13031047  0.37956218  1
  O  O420  1  0.12626332  0.14034932  0.86732321  1
  O  O421  1  0.13350732  0.63022672  0.38188409  1
  O  O422  1  0.13723109  0.62372840  0.86815018  1
  O  O423  1  0.63283649  0.12963270  0.38003952  1
  O  O424  1  0.62442577  0.11842454  0.89120581  1
  O  O425  1  0.63296877  0.63294631  0.38374049  1
  O  O426  1  0.63307912  0.63439991  0.88044342  1
