# generated using pymatgen
data_V85Zn86O256
_symmetry_space_group_name_H-M   'P 1'
_cell_length_a   16.95867913
_cell_length_b   16.96916217
_cell_length_c   16.98562667
_cell_angle_alpha   89.96026708
_cell_angle_beta   90.01273372
_cell_angle_gamma   90.08249047
_symmetry_Int_Tables_number   1
_chemical_formula_structural   V85Zn86O256
_chemical_formula_sum   'V85 Zn86 O256'
_cell_volume   4888.02515858
_cell_formula_units_Z   1
loop_
 _symmetry_equiv_pos_site_id
 _symmetry_equiv_pos_as_xyz
  1  'x, y, z'
loop_
 _atom_site_type_symbol
 _atom_site_label
 _atom_site_symmetry_multiplicity
 _atom_site_fract_x
 _atom_site_fract_y
 _atom_site_fract_z
 _atom_site_occupancy
  V  V0  1  0.87013769  0.00926158  0.87343381  1
  V  V1  1  -0.00268324  0.50000809  0.49937661  1
  V  V2  1  0.12413952  0.37554089  0.75375937  1
  V  V3  1  0.75503330  0.11955287  0.37569035  1
  V  V4  1  0.75997152  0.62097233  0.36898785  1
  V  V5  1  0.50850200  0.37571285  0.37115088  1
  V  V6  1  0.50170965  0.50006332  -0.00080035  1
  V  V7  1  0.24966460  0.87441899  0.12436341  1
  V  V8  1  0.25613275  0.12297130  0.37299515  1
  V  V9  1  0.12509789  -0.00030118  0.12342065  1
  V  V10  1  0.62099159  0.36663913  0.75161117  1
  V  V11  1  0.74792381  0.24989516  0.49883824  1
  V  V12  1  0.00043839  -0.00038069  -0.00189315  1
  V  V13  1  0.00516740  0.62861841  0.63476081  1
  V  V14  1  0.87808350  0.75159525  0.63594009  1
  V  V15  1  0.24631623  0.62630728  0.37422915  1
  V  V16  1  0.12147283  0.87731069  0.74226930  1
  V  V17  1  0.37192105  0.62484052  0.25042022  1
  V  V18  1  0.25198004  0.75206750  -0.00061812  1
  V  V19  1  0.50643753  0.25081692  0.25053304  1
  V  V20  1  -0.00490334  0.87746176  0.37687618  1
  V  V21  1  0.75348113  0.75023792  0.00324485  1
  V  V22  1  0.37700536  0.37472290  0.50090761  1
  V  V23  1  0.50513900  0.51405877  0.50450714  1
  V  V24  1  0.00134053  0.49350445  -0.00478497  1
  V  V25  1  0.61995174  0.00476211  0.11078200  1
  V  V26  1  0.37571958  0.73695839  0.62792974  1
  V  V27  1  0.87713833  0.11797570  0.25185537  1
  V  V28  1  0.12900730  0.50084765  0.12821916  1
  V  V29  1  0.37180552  0.50166916  0.37211818  1
  V  V30  1  0.49633475  0.11555192  0.62804173  1
  V  V31  1  0.12142133  0.87156038  0.25163760  1
  V  V32  1  0.12863995  0.12461027  -0.00205818  1
  V  V33  1  0.25250765  0.25014613  0.50028084  1
  V  V34  1  0.12891366  0.24709884  0.87521030  1
  V  V35  1  0.25296360  0.00346307  0.25146374  1
  V  V36  1  0.00086787  0.25332494  0.75582958  1
  V  V37  1  0.62532900  0.62194438  0.00244904  1
  V  V38  1  0.75155290  0.61915584  0.87051358  1
  V  V39  1  0.87602319  0.25191969  0.62477526  1
  V  V40  1  0.25252043  0.50171736  0.74857012  1
  V  V41  1  0.49476765  0.87514526  0.87817323  1
  V  V42  1  0.37440073  0.75022641  0.12625999  1
  V  V43  1  0.87383364  0.49790942  0.87051808  1
  V  V44  1  0.00375889  0.12300761  0.62692894  1
  V  V45  1  0.49418488  0.73509862  0.74790573  1
  V  V46  1  0.37593040  0.37527676  0.00153639  1
  V  V47  1  0.12315675  0.74796424  0.37536857  1
  V  V48  1  0.87157062  0.87584010  0.50278694  1
  V  V49  1  0.74274145  0.87440756  0.12370484  1
  V  V50  1  -0.00437072  0.37752133  0.37646783  1
  V  V51  1  0.87461237  0.37186410  -0.00251082  1
  V  V52  1  0.50016939  0.12121604  0.12287545  1
  V  V53  1  0.62281236  0.75093305  0.87296022  1
  V  V54  1  0.24949460  0.00841400  0.74262123  1
  V  V55  1  0.25371740  0.62757346  0.87044527  1
  V  V56  1  -0.00368640  0.00162169  0.49906302  1
  V  V57  1  0.62747951  0.49439450  0.13758511  1
  V  V58  1  0.62592522  0.51177573  0.62755070  1
  V  V59  1  0.12581672  0.62487676  -0.00015003  1
  V  V60  1  0.87627835  0.24678496  0.12324801  1
  V  V61  1  0.74740914  0.37899805  0.63094570  1
  V  V62  1  0.38768236  -0.00483743  0.37636569  1
  V  V63  1  0.11758977  0.75286648  0.87141699  1
  V  V64  1  0.12722335  0.24973934  0.37498088  1
  V  V65  1  0.61797227  0.11862574  0.49562710  1
  V  V66  1  0.25463214  0.24589493  -0.00324480  1
  V  V67  1  0.25078195  0.37725826  0.12758807  1
  V  V68  1  0.12621613  0.11901044  0.50357578  1
  V  V69  1  0.38443265  0.25109055  0.63027206  1
  V  V70  1  0.37043190  0.00457303  0.88089029  1
  V  V71  1  0.50258735  0.36453060  0.87149084  1
  V  V72  1  0.50310645  0.75646623  0.25302656  1
  V  V73  1  0.37437078  0.24571717  0.13281300  1
  V  V74  1  0.74070644  0.23814998  -0.00325368  1
  V  V75  1  0.00231949  0.24664981  0.25008610  1
  V  V76  1  0.37726346  0.50375378  0.87093107  1
  V  V77  1  -0.01258026  0.63406603  0.12796069  1
  V  V78  1  0.62316741  0.74751033  0.38533896  1
  V  V79  1  0.38890101  0.87980259  0.50308173  1
  V  V80  1  0.00171037  0.12095743  0.12554469  1
  V  V81  1  0.74915886  0.00144251  0.24948228  1
  V  V82  1  0.12964535  0.38129981  0.25036247  1
  V  V83  1  0.74291560  0.00494759  0.74804751  1
  V  V84  1  0.87376062  0.87517601  -0.00047962  1
  Zn  Zn85  1  0.74439723  0.36805891  0.13459029  1
  Zn  Zn86  1  0.74680804  0.73963920  0.50530328  1
  Zn  Zn87  1  0.77037684  0.49055312  0.25593010  1
  Zn  Zn88  1  0.61702786  -0.00991755  0.61417985  1
  Zn  Zn89  1  0.87068521  0.37973381  0.49515061  1
  Zn  Zn90  1  0.86458169  0.13077275  0.75393034  1
  Zn  Zn91  1  0.74712613  0.87238396  0.62601773  1
  Zn  Zn92  1  0.66149053  0.19826101  0.84782200  1
  Zn  Zn93  1  0.37940242  0.87919909  0.00362764  1
  Zn  Zn94  1  0.63350335  0.25757148  0.36420388  1
  Zn  Zn95  1  -0.05663047  0.71809983  0.27769581  1
  Zn  Zn96  1  0.87676328  0.62600585  0.75346385  1
  Zn  Zn97  1  0.25008158  0.75521223  0.50109417  1
  Zn  Zn98  1  0.12560661  0.62482020  0.50064311  1
  Zn  Zn99  1  0.62108216  0.87125587  0.74289466  1
  Zn  Zn100  1  0.61696774  0.88180275  0.25675041  1
  Zn  Zn101  1  0.25225401  0.37462862  0.62620049  1
  Zn  Zn102  1  -0.00392393  0.87291734  0.86894382  1
  Zn  Zn103  1  0.50041019  0.62529319  0.12761347  1
  Zn  Zn104  1  0.12665657  0.49827404  0.62428751  1
  Zn  Zn105  1  0.24817559  0.87972468  0.61999148  1
  Zn  Zn106  1  0.37252425  0.13506195  0.76189038  1
  Zn  Zn107  1  0.18815094  0.18842311  0.18707923  1
  Zn  Zn108  1  0.19141352  0.19034297  0.68571650  1
  Zn  Zn109  1  0.18455312  0.68593645  0.18911106  1
  Zn  Zn110  1  0.19004660  0.69333380  0.68836619  1
  Zn  Zn111  1  0.68663014  0.18770497  0.18405015  1
  Zn  Zn112  1  0.68235426  0.18541868  0.67799586  1
  Zn  Zn113  1  0.69010900  0.68461155  0.19300500  1
  Zn  Zn114  1  0.69100887  0.69100311  0.68957102  1
  Zn  Zn115  1  0.31492511  0.31488606  0.31335077  1
  Zn  Zn116  1  0.31395911  0.31611770  0.81401679  1
  Zn  Zn117  1  0.31270688  0.81477964  0.31438334  1
  Zn  Zn118  1  0.30985664  0.81778241  0.80738651  1
  Zn  Zn119  1  0.81413526  0.31159908  0.30660547  1
  Zn  Zn120  1  0.81153448  0.31613467  0.81335967  1
  Zn  Zn121  1  0.80093202  0.81283742  0.31579493  1
  Zn  Zn122  1  0.80820587  0.81810672  0.81347367  1
  Zn  Zn123  1  0.18495801  0.44054973  0.43731701  1
  Zn  Zn124  1  0.18848755  0.43468821  0.93760458  1
  Zn  Zn125  1  0.19025043  0.93603744  0.43999185  1
  Zn  Zn126  1  0.19045189  0.93725555  0.93239277  1
  Zn  Zn127  1  0.68985954  0.44411786  0.44069674  1
  Zn  Zn128  1  0.69031744  0.43087003  0.94033631  1
  Zn  Zn129  1  0.68479849  0.93394534  0.43531285  1
  Zn  Zn130  1  0.68538059  0.94050093  0.93132504  1
  Zn  Zn131  1  0.31638748  0.06560097  0.06402931  1
  Zn  Zn132  1  0.31568399  0.06090654  0.55961470  1
  Zn  Zn133  1  0.31215296  0.56386734  0.06059540  1
  Zn  Zn134  1  0.31063834  0.56212159  0.55791279  1
  Zn  Zn135  1  0.81180254  0.06023110  0.06331459  1
  Zn  Zn136  1  0.81351162  0.06300098  0.56456778  1
  Zn  Zn137  1  0.81096570  0.55766110  0.06318291  1
  Zn  Zn138  1  0.81537628  0.56519896  0.56122963  1
  Zn  Zn139  1  0.44160265  0.43814973  0.18795427  1
  Zn  Zn140  1  0.44188727  0.43958167  0.68823357  1
  Zn  Zn141  1  0.43555223  0.93813981  0.19024382  1
  Zn  Zn142  1  0.43434551  0.93187128  0.69436613  1
  Zn  Zn143  1  0.94392817  0.43182609  0.17929274  1
  Zn  Zn144  1  0.93941681  0.43850857  0.68557738  1
  Zn  Zn145  1  0.91499406  0.90157368  0.20497551  1
  Zn  Zn146  1  0.93541251  0.94175450  0.68831103  1
  Zn  Zn147  1  0.06566359  0.05919463  0.31509724  1
  Zn  Zn148  1  0.06298375  0.06189282  0.81306398  1
  Zn  Zn149  1  -0.05716659  0.55522729  0.31304448  1
  Zn  Zn150  1  0.06443138  0.56182587  0.81519494  1
  Zn  Zn151  1  0.56616590  0.07174209  0.30464700  1
  Zn  Zn152  1  0.55563875  0.05355160  0.80206046  1
  Zn  Zn153  1  0.56219141  0.57149610  0.31927477  1
  Zn  Zn154  1  0.56716444  0.55640897  0.81087524  1
  Zn  Zn155  1  0.43912696  0.18795771  0.43620262  1
  Zn  Zn156  1  0.49184557  0.15618779  0.91588968  1
  Zn  Zn157  1  0.43586099  0.69313106  0.43831119  1
  Zn  Zn158  1  0.43788668  0.68827733  0.93857237  1
  Zn  Zn159  1  0.93684596  0.18967133  0.43682365  1
  Zn  Zn160  1  0.93917409  0.18803525  0.93781044  1
  Zn  Zn161  1  0.93491267  0.68770219  0.44997357  1
  Zn  Zn162  1  0.93782872  0.68346710  0.94265721  1
  Zn  Zn163  1  0.06307654  0.31145395  0.06193143  1
  Zn  Zn164  1  0.06634384  0.31266176  0.56370006  1
  Zn  Zn165  1  0.06363049  0.81329019  0.05909213  1
  Zn  Zn166  1  0.06091392  0.81073041  0.56177493  1
  Zn  Zn167  1  0.56007790  0.31199490  0.06163245  1
  Zn  Zn168  1  0.56326050  0.31315864  0.56048022  1
  Zn  Zn169  1  0.56148468  0.81155985  0.06360624  1
  Zn  Zn170  1  0.55863394  0.80837464  0.56470657  1
  O  O171  1  0.12150525  0.11932705  0.11926095  1
  O  O172  1  0.11560701  0.13646792  0.61325359  1
  O  O173  1  0.12383134  0.61631310  0.11922117  1
  O  O174  1  0.11446726  0.62839312  0.62560412  1
  O  O175  1  0.61029057  0.11845766  0.13081815  1
  O  O176  1  0.61015020  0.12213510  0.61516266  1
  O  O177  1  0.62576294  0.61790146  0.11428367  1
  O  O178  1  0.63371549  0.61016145  0.62934191  1
  O  O179  1  0.38192667  0.38412169  0.38209000  1
  O  O180  1  0.38122613  0.38569566  0.88046172  1
  O  O181  1  0.37253147  0.88618469  0.38567454  1
  O  O182  1  0.37840694  0.88090535  0.87745772  1
  O  O183  1  0.89235823  0.36327583  0.37750069  1
  O  O184  1  0.86973476  0.38379940  0.88723543  1
  O  O185  1  0.88776604  0.86971655  0.38921462  1
  O  O186  1  0.87498992  0.88488149  0.88440016  1
  O  O187  1  0.25261539  0.00693982  0.36848854  1
  O  O188  1  0.26400055  -0.00237649  0.86474243  1
  O  O189  1  0.26352770  0.50908767  0.38179442  1
  O  O190  1  0.25694881  0.50652843  0.86986662  1
  O  O191  1  0.74194900  0.01034734  0.36317907  1
  O  O192  1  0.75680853  -0.00293241  0.86136794  1
  O  O193  1  0.74878716  0.51528631  0.37383438  1
  O  O194  1  0.76037144  0.50943967  0.88626058  1
  O  O195  1  0.23804210  0.49317272  0.11582168  1
  O  O196  1  0.25008584  0.50119647  0.63643626  1
  O  O197  1  0.24675931  0.99689744  0.13322516  1
  O  O198  1  0.25475300  1.00103507  0.63822921  1
  O  O199  1  0.73496361  0.50134984  0.12839315  1
  O  O200  1  0.73607725  0.48956027  0.61095151  1
  O  O201  1  0.73813651  0.99623899  0.12915263  1
  O  O202  1  0.75151369  0.99969485  0.63868527  1
  O  O203  1  0.01095985  0.36638228  0.25659862  1
  O  O204  1  0.01053248  0.36296736  0.74237063  1
  O  O205  1  0.01431432  0.88934160  0.26291143  1
  O  O206  1  0.01672890  0.88724598  0.75155533  1
  O  O207  1  0.49525793  0.36858357  0.26248129  1
  O  O208  1  0.50874315  0.37811399  0.75831797  1
  O  O209  1  0.49890867  0.86180996  0.24862642  1
  O  O210  1  0.50061520  0.86040041  0.76065770  1
  O  O211  1  0.49754838  0.14121565  0.24234032  1
  O  O212  1  0.49375777  0.12635223  0.73050178  1
  O  O213  1  0.48697833  0.63537844  0.25117205  1
  O  O214  1  0.50114705  0.63556030  0.75816980  1
  O  O215  1  0.99824931  0.12574826  0.24700777  1
  O  O216  1  1.00380937  0.13573434  0.74049438  1
  O  O217  1  0.99816639  0.62808588  0.23350097  1
  O  O218  1  1.00020632  0.62058036  0.73805005  1
  O  O219  1  0.36554067  0.25825252  0.01519920  1
  O  O220  1  0.37225924  0.25922526  0.50396360  1
  O  O221  1  0.36839510  0.74932644  0.00825750  1
  O  O222  1  0.37669461  0.76186863  0.50945034  1
  O  O223  1  0.87177786  0.25517829  0.00297558  1
  O  O224  1  0.86653511  0.25080679  0.50992633  1
  O  O225  1  0.86237196  0.76037720  -0.00919961  1
  O  O226  1  0.87647440  0.76263295  0.51455484  1
  O  O227  1  0.13210377  0.24226743  0.49409485  1
  O  O228  1  0.13301508  0.24733823  0.99357653  1
  O  O229  1  0.12601206  0.74935605  0.48726444  1
  O  O230  1  0.13353603  0.74621288  0.99057846  1
  O  O231  1  0.63770127  0.24072372  0.50163056  1
  O  O232  1  0.64107414  0.25410574  1.00519652  1
  O  O233  1  0.62379744  0.74924993  0.48888009  1
  O  O234  1  0.63023811  0.74087960  0.99150580  1
  O  O235  1  0.49372558  0.24598497  0.13210529  1
  O  O236  1  0.49007804  0.24263727  0.61761302  1
  O  O237  1  0.49408074  0.74627141  0.13358240  1
  O  O238  1  0.48594373  0.75172492  0.63391017  1
  O  O239  1  0.99807393  0.24083748  0.12970363  1
  O  O240  1  0.99306122  0.24433692  0.63048312  1
  O  O241  1  1.00591030  0.73317249  0.11523798  1
  O  O242  1  0.99353020  0.73570230  0.62080051  1
  O  O243  1  0.00875817  0.25456940  0.37068764  1
  O  O244  1  0.00913526  0.24686769  0.86332317  1
  O  O245  1  0.00757761  0.75938429  0.37497683  1
  O  O246  1  0.01332870  0.74923478  0.88113248  1
  O  O247  1  0.49989589  0.25837902  0.36681575  1
  O  O248  1  0.49248008  0.26666185  0.88110495  1
  O  O249  1  0.51452844  0.74068854  0.36832375  1
  O  O250  1  0.50499979  0.75256222  0.86875948  1
  O  O251  1  0.24307783  0.12757747  0.49321970  1
  O  O252  1  0.24441698  0.13819766  1.00857949  1
  O  O253  1  0.24769017  0.62966709  0.48745815  1
  O  O254  1  0.24511060  0.63019935  0.98952937  1
  O  O255  1  0.74628090  0.13071280  0.49404303  1
  O  O256  1  0.75354669  0.13867918  1.00368705  1
  O  O257  1  0.76807353  0.62775185  0.47924306  1
  O  O258  1  0.74389857  0.63268772  0.99404932  1
  O  O259  1  0.25468811  0.36634310  0.00678270  1
  O  O260  1  0.26272737  0.37224968  0.49858452  1
  O  O261  1  0.24981412  0.86902652  0.00777818  1
  O  O262  1  0.25981466  0.87402138  0.50336246  1
  O  O263  1  0.76071596  0.36591665  0.00835748  1
  O  O264  1  0.75007115  0.36569092  0.50759097  1
  O  O265  1  0.75155733  0.86843668  0.00247248  1
  O  O266  1  0.76424385  0.87776287  0.50138085  1
  O  O267  1  0.11998027  0.48636879  0.23658032  1
  O  O268  1  0.13352200  0.49103471  0.75308243  1
  O  O269  1  0.13523000  0.99273322  0.24592363  1
  O  O270  1  0.13922655  0.99046693  0.75971463  1
  O  O271  1  0.61613550  0.50941125  0.23615796  1
  O  O272  1  0.62031748  0.48934157  0.73238866  1
  O  O273  1  0.63348955  1.00075332  0.24062640  1
  O  O274  1  0.63493807  0.99550616  0.74444342  1
  O  O275  1  0.36130178  -0.00867652  0.26422051  1
  O  O276  1  0.36197401  0.00041823  0.75757130  1
  O  O277  1  0.38480846  0.51035827  0.26306107  1
  O  O278  1  0.36622449  0.49412536  0.76068477  1
  O  O279  1  0.85755508  0.00204262  0.24140653  1
  O  O280  1  0.86446315  0.00421546  0.75649917  1
  O  O281  1  0.88173424  0.49722644  0.24138930  1
  O  O282  1  0.88308728  0.49842847  0.76690733  1
  O  O283  1  0.12072242  0.37002931  0.36794125  1
  O  O284  1  0.12975304  0.36256033  0.86465555  1
  O  O285  1  0.11865801  0.86861161  0.37084404  1
  O  O286  1  0.12345969  0.86729269  0.86761675  1
  O  O287  1  0.61220045  0.37438640  0.38627349  1
  O  O288  1  0.61658757  0.38447553  0.86368846  1
  O  O289  1  0.63555454  0.85480480  0.37022511  1
  O  O290  1  0.61691224  0.86252264  0.87478958  1
  O  O291  1  0.38316755  0.13494731  0.12893730  1
  O  O292  1  0.38699700  0.13325664  0.61593013  1
  O  O293  1  0.37355585  0.62939477  0.13478106  1
  O  O294  1  0.37327928  0.63858968  0.61755231  1
  O  O295  1  0.88304477  0.12650008  0.13120996  1
  O  O296  1  0.88332922  0.13745588  0.62775310  1
  O  O297  1  0.88894068  0.62492897  0.11232313  1
  O  O298  1  0.88478578  0.63166684  0.63048793  1
  O  O299  1  0.25583036  0.25599156  0.12028441  1
  O  O300  1  0.26247649  0.25078962  0.61554696  1
  O  O301  1  0.25354697  0.75474407  0.12084595  1
  O  O302  1  0.26446260  0.75418093  0.62415172  1
  O  O303  1  0.75859051  0.24811863  0.11564455  1
  O  O304  1  0.75716526  0.25567339  0.61798821  1
  O  O305  1  0.73753416  0.76027790  0.11227036  1
  O  O306  1  0.76108248  0.75076796  0.62184080  1
  O  O307  1  0.24967921  0.24141957  0.37939377  1
  O  O308  1  0.24513943  0.25424837  0.88709972  1
  O  O309  1  0.24317805  0.74414075  0.37606071  1
  O  O310  1  0.24577125  0.74259824  0.87734707  1
  O  O311  1  0.75188420  0.24218421  0.38445244  1
  O  O312  1  0.75229985  0.25182322  0.88899851  1
  O  O313  1  0.74108706  0.74087456  0.37875151  1
  O  O314  1  0.74054232  0.74417519  0.88335534  1
  O  O315  1  0.00803836  0.11990029  0.00541403  1
  O  O316  1  0.00587332  0.12088550  0.50449594  1
  O  O317  1  0.00778939  0.61487635  0.00749077  1
  O  O318  1  0.00244065  0.61624516  0.51076475  1
  O  O319  1  0.49507558  0.13092544  0.02522588  1
  O  O320  1  0.51087526  0.12968985  0.50438677  1
  O  O321  1  0.51101812  0.62018395  -0.00054044  1
  O  O322  1  0.49589698  0.61178248  0.49683569  1
  O  O323  1  0.49007957  0.37936747  0.49214047  1
  O  O324  1  0.49563659  0.38186723  0.99208357  1
  O  O325  1  0.48787867  0.87471352  0.49883848  1
  O  O326  1  0.49751929  0.86605407  0.98459960  1
  O  O327  1  1.00339055  0.37982442  0.49292474  1
  O  O328  1  0.99218623  0.38366581  1.00482559  1
  O  O329  1  0.99645259  0.88373332  0.49624338  1
  O  O330  1  0.98860326  0.88067908  1.00028466  1
  O  O331  1  0.49483898  0.49623769  0.38675763  1
  O  O332  1  0.49206321  0.49565950  0.87895333  1
  O  O333  1  0.48482448  1.00733531  0.36288746  1
  O  O334  1  0.48312115  0.98350067  0.86141582  1
  O  O335  1  1.00298574  0.48848723  0.38569943  1
  O  O336  1  0.99221455  0.50754530  0.88852476  1
  O  O337  1  1.00558521  0.99103264  0.38771041  1
  O  O338  1  0.99074325  0.99831607  0.88097749  1
  O  O339  1  0.00860959  0.00472803  0.11618285  1
  O  O340  1  -0.00318260  0.01590450  0.61766451  1
  O  O341  1  0.01187445  0.50818753  0.11364960  1
  O  O342  1  0.00368526  0.51124318  0.62078460  1
  O  O343  1  0.50280732  0.01350558  0.13526061  1
  O  O344  1  0.49565376  0.01172475  0.62621150  1
  O  O345  1  0.50913318  0.50416449  0.11734189  1
  O  O346  1  0.50963735  0.49787821  0.61326389  1
  O  O347  1  0.23851470  0.36896142  0.24465525  1
  O  O348  1  0.24325291  0.38588187  0.75041158  1
  O  O349  1  0.24072116  0.88328712  0.24647398  1
  O  O350  1  0.24006713  0.88668820  0.74516685  1
  O  O351  1  0.74785705  0.37742650  0.24801510  1
  O  O352  1  0.74246358  0.37407824  0.73756255  1
  O  O353  1  0.74303047  0.88551441  0.23812643  1
  O  O354  1  0.74532455  0.88805532  0.74752125  1
  O  O355  1  0.24298238  0.11568969  0.26094134  1
  O  O356  1  0.25062558  0.11355318  0.74827933  1
  O  O357  1  0.26233199  0.63064323  0.25978473  1
  O  O358  1  0.24216945  0.61542605  0.76179145  1
  O  O359  1  0.75477966  0.12047074  0.25632147  1
  O  O360  1  0.74412941  0.11486177  0.74930967  1
  O  O361  1  0.75605138  0.62418521  0.26263902  1
  O  O362  1  0.75228247  0.62900648  0.76747488  1
  O  O363  1  0.36340652  0.11149775  0.38548669  1
  O  O364  1  0.39116342  0.10818090  0.87424811  1
  O  O365  1  0.36832182  0.62137703  0.37026891  1
  O  O366  1  0.36524877  0.61522828  0.88088072  1
  O  O367  1  0.86378006  0.12816538  0.36952757  1
  O  O368  1  0.87914750  0.11401736  0.87241324  1
  O  O369  1  0.87624871  0.64101692  0.36174180  1
  O  O370  1  0.86844908  0.61726133  0.87700720  1
  O  O371  1  0.12911265  0.38001763  0.13075135  1
  O  O372  1  0.13164825  0.37391033  0.63875403  1
  O  O373  1  0.12874049  0.87955902  0.13284812  1
  O  O374  1  0.12529435  0.86889708  0.63876618  1
  O  O375  1  0.62189257  0.39219229  0.12079045  1
  O  O376  1  0.63071000  0.37677984  0.63164162  1
  O  O377  1  0.63011794  0.88428517  0.12493842  1
  O  O378  1  0.62753046  0.87552423  0.62460310  1
  O  O379  1  0.12101229  0.25635062  0.25489655  1
  O  O380  1  0.12229732  0.25513427  0.75657487  1
  O  O381  1  0.12908605  0.76327904  0.25827174  1
  O  O382  1  0.13305773  0.76615232  0.75997959  1
  O  O383  1  0.61336027  0.25166646  0.24781880  1
  O  O384  1  0.63219805  0.26098986  0.75132852  1
  O  O385  1  0.61497378  0.74918476  0.25487513  1
  O  O386  1  0.61735937  0.74729701  0.76076862  1
  O  O387  1  0.38249401  0.25847332  0.23838629  1
  O  O388  1  0.36574440  0.24923886  0.73616611  1
  O  O389  1  0.38094210  0.74474340  0.24753473  1
  O  O390  1  0.37838445  0.75332546  0.73602145  1
  O  O391  1  0.88387058  0.23904134  0.24340088  1
  O  O392  1  0.88259776  0.25092904  0.74376313  1
  O  O393  1  0.87882075  0.79634809  0.23833787  1
  O  O394  1  0.87248919  0.75259249  0.74060426  1
  O  O395  1  0.38564537  0.49389147  0.49481071  1
  O  O396  1  0.37964141  0.49580446  0.99179316  1
  O  O397  1  0.37474138  0.99065586  0.48789800  1
  O  O398  1  0.36798095  0.99791640  0.98600564  1
  O  O399  1  0.89147282  0.49441048  0.50869630  1
  O  O400  1  0.88211113  0.49086715  0.99548092  1
  O  O401  1  0.88729091  0.99249232  0.50662481  1
  O  O402  1  0.87737760  0.99493111  0.99119582  1
  O  O403  1  0.12283733  0.00444330  0.00241157  1
  O  O404  1  0.11693709  0.01207488  0.49808493  1
  O  O405  1  0.11957654  0.50204303  0.00401149  1
  O  O406  1  0.11586725  0.50283828  0.50508448  1
  O  O407  1  0.62708182  -0.00217234  0.01163918  1
  O  O408  1  0.63289809  0.01361917  0.49886637  1
  O  O409  1  0.62244879  0.50827863  0.00430698  1
  O  O410  1  0.61134358  0.49738324  0.50985688  1
  O  O411  1  0.37088205  0.37192400  0.12113794  1
  O  O412  1  0.37738667  0.36998670  0.61620541  1
  O  O413  1  0.36772684  0.86968158  0.12447114  1
  O  O414  1  0.37488889  0.87425121  0.61176399  1
  O  O415  1  0.87750450  0.36360165  0.11291683  1
  O  O416  1  0.86687781  0.36633539  0.62564617  1
  O  O417  1  0.85529373  0.88759193  0.10606982  1
  O  O418  1  0.87913315  0.86825461  0.61916318  1
  O  O419  1  0.13423201  0.12927651  0.38388733  1
  O  O420  1  0.12270295  0.13855438  0.88119091  1
  O  O421  1  0.13587677  0.63758960  0.37092901  1
  O  O422  1  0.13358846  0.63222032  0.87938493  1
  O  O423  1  0.63590608  0.13193998  0.38025187  1
  O  O424  1  0.59406737  0.12097027  0.88132573  1
  O  O425  1  0.64111207  0.63745933  0.37176162  1
  O  O426  1  0.63180994  0.62855915  0.88323810  1
