# generated using pymatgen
data_V85Zn86O256
_symmetry_space_group_name_H-M   'P 1'
_cell_length_a   16.98447985
_cell_length_b   17.02606639
_cell_length_c   17.00371984
_cell_angle_alpha   89.87629930
_cell_angle_beta   89.90221211
_cell_angle_gamma   89.91550757
_symmetry_Int_Tables_number   1
_chemical_formula_structural   V85Zn86O256
_chemical_formula_sum   'V85 Zn86 O256'
_cell_volume   4917.09274499
_cell_formula_units_Z   1
loop_
 _symmetry_equiv_pos_site_id
 _symmetry_equiv_pos_as_xyz
  1  'x, y, z'
loop_
 _atom_site_type_symbol
 _atom_site_label
 _atom_site_symmetry_multiplicity
 _atom_site_fract_x
 _atom_site_fract_y
 _atom_site_fract_z
 _atom_site_occupancy
  V  V0  1  0.12583806  0.50057392  0.12486866  1
  V  V1  1  0.62418909  0.00636196  0.62340640  1
  V  V2  1  0.62902811  0.50380079  0.61871443  1
  V  V3  1  0.00135733  0.74916197  0.25012316  1
  V  V4  1  0.12731609  0.87482117  0.25172767  1
  V  V5  1  0.00041535  0.50460784  0.49782303  1
  V  V6  1  0.36421067  0.00561202  0.37322903  1
  V  V7  1  0.62603811  0.75111281  0.87460914  1
  V  V8  1  0.12455103  0.12662838  0.00084154  1
  V  V9  1  0.50820506  0.50026764  0.49968051  1
  V  V10  1  0.49881225  0.50083873  -0.00388621  1
  V  V11  1  0.63231105  0.24456436  0.86870008  1
  V  V12  1  0.00134220  0.62519671  0.12579994  1
  V  V13  1  0.49141281  0.24721054  0.23432945  1
  V  V14  1  0.74480682  0.49648778  0.74983117  1
  V  V15  1  -0.00116922  0.37684109  0.87541653  1
  V  V16  1  0.62487896  0.87288038  0.25243074  1
  V  V17  1  0.87527969  0.00111229  0.37765280  1
  V  V18  1  0.86815230  0.74836888  0.61977821  1
  V  V19  1  0.62605456  0.62274030  0.00042725  1
  V  V20  1  0.00759127  0.12141930  0.62180721  1
  V  V21  1  0.26167812  0.62101903  0.87385841  1
  V  V22  1  0.62547564  0.87821206  0.75275691  1
  V  V23  1  0.74890322  0.62340557  0.87300882  1
  V  V24  1  0.37422185  0.49461797  0.37712781  1
  V  V25  1  0.12684475  0.74802399  0.37662924  1
  V  V26  1  0.63769320  0.48796870  0.12842502  1
  V  V27  1  0.00247608  0.87546662  0.87190124  1
  V  V28  1  0.49961808  0.87290394  0.37482477  1
  V  V29  1  0.37523800  0.12714701  0.74860709  1
  V  V30  1  0.50097331  0.36027943  0.37153239  1
  V  V31  1  0.38123317  0.88071418  0.00335181  1
  V  V32  1  0.75142055  0.75011079  -0.00189086  1
  V  V33  1  -0.00191267  0.12598549  0.12571493  1
  V  V34  1  0.87265185  0.12645254  0.24696633  1
  V  V35  1  0.37411048  0.38057139  -0.00660079  1
  V  V36  1  0.50151582  0.87724075  0.87847251  1
  V  V37  1  0.24980898  0.12565501  0.87702956  1
  V  V38  1  0.87509981  0.62351353  0.74726409  1
  V  V39  1  -0.00095195  0.74734063  0.74288487  1
  V  V40  1  0.37705765  0.62370300  0.25195170  1
  V  V41  1  0.24351345  -0.00691816  0.74343404  1
  V  V42  1  0.73903839  0.12559898  0.37597758  1
  V  V43  1  0.00430123  0.25468690  0.74805399  1
  V  V44  1  0.00017615  0.87502305  0.37478877  1
  V  V45  1  0.13273235  0.24251704  0.37515123  1
  V  V46  1  0.12612718  0.75447561  0.87358806  1
  V  V47  1  0.25651919  0.37433334  0.12286856  1
  V  V48  1  0.87407936  0.12530801  0.75457861  1
  V  V49  1  0.49793723  0.25547301  0.74906481  1
  V  V50  1  -0.00041450  0.37612850  0.37392572  1
  V  V51  1  0.87593091  0.87599492  -0.00180186  1
  V  V52  1  0.24668710  0.62421656  0.38176530  1
  V  V53  1  0.50302302  0.37694333  0.87156439  1
  V  V54  1  0.75233964  0.00567505  0.75411895  1
  V  V55  1  -0.00161110  0.00072830  -0.00120051  1
  V  V56  1  0.37094309  0.86808800  0.51211004  1
  V  V57  1  0.75083563  0.87584560  0.61876416  1
  V  V58  1  0.87539992  0.24911590  0.62125499  1
  V  V59  1  0.12503616  0.62705893  0.00077325  1
  V  V60  1  0.00623864  -0.00133979  0.50339478  1
  V  V61  1  0.74276307  0.24481806  0.49860583  1
  V  V62  1  0.12451053  0.25485988  0.87169435  1
  V  V63  1  0.74433157  0.37149562  0.62775679  1
  V  V64  1  0.37654139  0.74841293  0.12791524  1
  V  V65  1  0.25113154  0.75254323  0.00064123  1
  V  V66  1  0.25275198  0.25121922  0.00101504  1
  V  V67  1  0.25134069  0.24297910  0.50764664  1
  V  V68  1  0.87640422  0.74937309  0.12314122  1
  V  V69  1  0.25109364  0.49877763  0.25057924  1
  V  V70  1  0.87610579  0.00119975  0.87447638  1
  V  V71  1  0.86285410  0.62064302  0.25549807  1
  V  V72  1  0.50437704  0.74571928  0.25629570  1
  V  V73  1  0.36863232  0.37189907  0.51366232  1
  V  V74  1  0.74633273  0.24940212  0.01320736  1
  V  V75  1  0.25214345  0.74714200  0.51721782  1
  V  V76  1  0.74722766  -0.00067857  0.24767977  1
  V  V77  1  0.74936519  0.87593364  0.12425804  1
  V  V78  1  -0.00090580  0.49977263  -0.00047808  1
  V  V79  1  0.24994277  0.87844544  0.12933464  1
  V  V80  1  0.12793650  0.37321039  0.25022115  1
  V  V81  1  0.87545136  0.25998840  0.12750381  1
  V  V82  1  0.12470148  -0.00045960  0.12572867  1
  V  V83  1  0.49820201  0.12952819  0.62680410  1
  V  V84  1  0.37873600  0.00105256  0.88291634  1
  Zn  Zn85  1  0.49484472  0.00383846  0.49654034  1
  Zn  Zn86  1  0.87383384  0.37757719  0.49505359  1
  Zn  Zn87  1  0.11628251  0.62804861  0.51578368  1
  Zn  Zn88  1  0.61463646  0.12948573  0.49035832  1
  Zn  Zn89  1  0.25468256  0.49064239  0.75158926  1
  Zn  Zn90  1  0.22447740  0.36988397  0.64523265  1
  Zn  Zn91  1  0.12140825  0.49911263  0.63920958  1
  Zn  Zn92  1  0.84078539  0.48951623  0.36279950  1
  Zn  Zn93  1  0.87116889  0.86850861  0.49681842  1
  Zn  Zn94  1  0.86843508  0.38097853  0.00637874  1
  Zn  Zn95  1  0.64602997  0.37085638  0.25519367  1
  Zn  Zn96  1  0.50171430  0.62003312  0.12690392  1
  Zn  Zn97  1  0.24974899  0.01327140  0.25583325  1
  Zn  Zn98  1  0.13598134  0.86782025  0.71940562  1
  Zn  Zn99  1  0.59582668  0.12047105  0.00543258  1
  Zn  Zn100  1  0.49821323  0.74844424  0.73914105  1
  Zn  Zn101  1  0.13353642  0.11838837  0.49705672  1
  Zn  Zn102  1  0.00287365  0.24895929  0.25232488  1
  Zn  Zn103  1  0.60160834  0.00120263  0.11673661  1
  Zn  Zn104  1  0.87259851  0.49857828  0.87544025  1
  Zn  Zn105  1  0.37754543  0.62979675  0.73220913  1
  Zn  Zn106  1  0.49571380  0.63270183  0.61631167  1
  Zn  Zn107  1  0.19046359  0.18916743  0.18436235  1
  Zn  Zn108  1  0.18954024  0.18476590  0.68749554  1
  Zn  Zn109  1  0.19014850  0.68756006  0.18996304  1
  Zn  Zn110  1  0.17875046  0.67141469  0.69196026  1
  Zn  Zn111  1  0.67013880  0.18917722  0.19328147  1
  Zn  Zn112  1  0.68585191  0.18836825  0.68928906  1
  Zn  Zn113  1  0.68368515  0.68614365  0.18241397  1
  Zn  Zn114  1  0.66054950  0.70446350  0.66349413  1
  Zn  Zn115  1  0.31303371  0.30736574  0.31511792  1
  Zn  Zn116  1  0.31814035  0.31366130  0.81360049  1
  Zn  Zn117  1  0.31507890  0.81235056  0.31819682  1
  Zn  Zn118  1  0.31672246  0.80853663  0.80675752  1
  Zn  Zn119  1  0.81094890  0.30923380  0.31352487  1
  Zn  Zn120  1  0.81553072  0.31433217  0.81224332  1
  Zn  Zn121  1  0.81702216  0.81359759  0.30682220  1
  Zn  Zn122  1  0.81171409  0.81445801  0.80892863  1
  Zn  Zn123  1  0.18364051  0.43359525  0.44306100  1
  Zn  Zn124  1  0.18371101  0.43938613  0.93256474  1
  Zn  Zn125  1  0.18870017  0.93069128  0.44612549  1
  Zn  Zn126  1  0.19139042  0.93942933  0.93789064  1
  Zn  Zn127  1  0.69550610  0.41887722  0.42343785  1
  Zn  Zn128  1  0.68513945  0.43149533  0.93819240  1
  Zn  Zn129  1  0.68286876  0.94236658  0.43631725  1
  Zn  Zn130  1  0.68794754  0.93878124  0.93707236  1
  Zn  Zn131  1  0.44798640  0.11223828  0.12752516  1
  Zn  Zn132  1  0.31604160  0.05716647  0.56270845  1
  Zn  Zn133  1  0.31404661  0.56349326  0.06044970  1
  Zn  Zn134  1  0.31211244  0.55641988  0.57483364  1
  Zn  Zn135  1  0.74520041  0.06899294  0.05791400  1
  Zn  Zn136  1  0.81464690  0.06413747  0.56307624  1
  Zn  Zn137  1  0.81441511  0.56354366  0.06418233  1
  Zn  Zn138  1  0.83973989  0.54426444  0.57340214  1
  Zn  Zn139  1  0.44186166  0.43446895  0.18461769  1
  Zn  Zn140  1  0.43272419  0.44751172  0.69169246  1
  Zn  Zn141  1  0.43290805  0.93563535  0.19310052  1
  Zn  Zn142  1  0.43717043  0.94156304  0.69509933  1
  Zn  Zn143  1  0.93929601  0.44100982  0.19315737  1
  Zn  Zn144  1  0.93776565  0.43353108  0.68674715  1
  Zn  Zn145  1  0.93587285  0.93859786  0.18641218  1
  Zn  Zn146  1  0.94143225  0.93307417  0.68567293  1
  Zn  Zn147  1  0.06221808  0.06202409  0.31276752  1
  Zn  Zn148  1  0.06255383  0.06616963  0.81158028  1
  Zn  Zn149  1  0.06065708  0.56157320  0.31249981  1
  Zn  Zn150  1  0.06567730  0.56455133  0.81222470  1
  Zn  Zn151  1  0.55102430  0.06006550  0.29969549  1
  Zn  Zn152  1  0.56341881  0.06512218  0.81524679  1
  Zn  Zn153  1  0.56796117  0.55333962  0.31276247  1
  Zn  Zn154  1  0.56124730  0.56396380  0.80774122  1
  Zn  Zn155  1  0.43053027  0.18689322  0.43825020  1
  Zn  Zn156  1  0.43622971  0.19015182  0.93897485  1
  Zn  Zn157  1  0.43510015  0.68488942  0.44087243  1
  Zn  Zn158  1  0.44153300  0.69312049  0.93829877  1
  Zn  Zn159  1  0.93990924  0.18680903  0.43577158  1
  Zn  Zn160  1  0.93210321  0.18923537  0.94189874  1
  Zn  Zn161  1  0.93341932  0.68689270  0.43424528  1
  Zn  Zn162  1  0.93791481  0.68628385  0.93328156  1
  Zn  Zn163  1  0.06208785  0.31418541  0.06262864  1
  Zn  Zn164  1  0.06415352  0.31625394  0.55786193  1
  Zn  Zn165  1  0.06225559  0.81340627  0.06170791  1
  Zn  Zn166  1  0.06214802  0.81125025  0.56052532  1
  Zn  Zn167  1  0.56306974  0.31092066  0.06069339  1
  Zn  Zn168  1  0.55998450  0.31533416  0.56126442  1
  Zn  Zn169  1  0.56340387  0.81086949  0.06623102  1
  Zn  Zn170  1  0.54974762  0.82866304  0.57097974  1
  O  O171  1  0.11890376  0.11983951  0.12120334  1
  O  O172  1  0.11064343  0.12932164  0.62176660  1
  O  O173  1  0.12208724  0.62059464  0.12136172  1
  O  O174  1  0.11327075  0.61259384  0.62626135  1
  O  O175  1  0.64841310  0.11324823  0.11628441  1
  O  O176  1  0.61648457  0.11797181  0.62818805  1
  O  O177  1  0.62153328  0.61422504  0.11720285  1
  O  O178  1  0.63989946  0.60323014  0.61131432  1
  O  O179  1  0.37859168  0.38356801  0.38260473  1
  O  O180  1  0.38780993  0.37400261  0.88549520  1
  O  O181  1  0.38319497  0.87956949  0.38597594  1
  O  O182  1  0.38290562  0.88085150  0.88363717  1
  O  O183  1  0.89060054  0.37364866  0.37201301  1
  O  O184  1  0.88877073  0.37528553  0.87733354  1
  O  O185  1  0.87856445  0.88525601  0.37371378  1
  O  O186  1  0.88196907  0.88022238  0.87771918  1
  O  O187  1  0.25872519  -0.00375358  0.37891743  1
  O  O188  1  0.25982169  0.00728971  0.87097815  1
  O  O189  1  0.25610738  0.50371803  0.37313858  1
  O  O190  1  0.24571469  0.52005345  0.88238451  1
  O  O191  1  0.75804288  0.00598687  0.36974015  1
  O  O192  1  0.75856427  -0.00627598  0.85966117  1
  O  O193  1  0.72250883  0.52668625  0.37735582  1
  O  O194  1  0.74833094  0.50122498  0.86553842  1
  O  O195  1  0.24553913  0.49383332  0.12920964  1
  O  O196  1  0.24288850  0.48723688  0.62561413  1
  O  O197  1  0.24225893  0.98205531  0.12969572  1
  O  O198  1  0.25605805  1.00575091  0.64517190  1
  O  O199  1  0.73678745  0.50170055  0.11919856  1
  O  O200  1  0.75029774  0.48849225  0.62738056  1
  O  O201  1  0.76375159  0.98724205  0.13638921  1
  O  O202  1  0.74424640  0.99815737  0.63403435  1
  O  O203  1  0.01059121  0.37320450  0.25693206  1
  O  O204  1  -0.00733286  0.36139219  0.75828650  1
  O  O205  1  0.00613452  0.87055895  0.25466542  1
  O  O206  1  0.00208783  0.86440018  0.75632642  1
  O  O207  1  0.49527304  0.37141521  0.26526531  1
  O  O208  1  0.48948738  0.36543965  0.75780584  1
  O  O209  1  0.50558641  0.86477890  0.25747917  1
  O  O210  1  0.50777573  0.87472576  0.76050809  1
  O  O211  1  0.50196083  0.14212612  0.23760772  1
  O  O212  1  0.49323368  0.13184711  0.74581236  1
  O  O213  1  0.49667002  0.63105407  0.25558407  1
  O  O214  1  0.50401609  0.62808528  0.73761742  1
  O  O215  1  0.98894890  0.12549668  0.24574373  1
  O  O216  1  0.99319685  0.13259708  0.74117009  1
  O  O217  1  0.99545031  0.63094937  0.24375400  1
  O  O218  1  0.98628349  0.63661303  0.75999282  1
  O  O219  1  0.35860162  0.26440061  -0.00830480  1
  O  O220  1  0.36127222  0.26077434  0.49650357  1
  O  O221  1  0.37222268  0.76144479  0.00754475  1
  O  O222  1  0.36912693  0.76073038  0.49790279  1
  O  O223  1  0.87247494  0.25653590  0.01351991  1
  O  O224  1  0.86633961  0.24380403  0.51065308  1
  O  O225  1  0.87189202  0.75510083  0.00303091  1
  O  O226  1  0.87884984  0.74829710  0.51475117  1
  O  O227  1  0.13674141  0.24891289  0.49250232  1
  O  O228  1  0.13007503  0.24753443  0.99108570  1
  O  O229  1  0.13289291  0.74487186  0.49246047  1
  O  O230  1  0.12953097  0.74678914  0.99409370  1
  O  O231  1  0.63843401  0.24547773  0.50837658  1
  O  O232  1  0.63808386  0.24853930  0.99474239  1
  O  O233  1  0.70289856  0.76162110  0.43051715  1
  O  O234  1  0.63153642  0.74442190  0.99579829  1
  O  O235  1  0.48976793  0.26739224  0.13544130  1
  O  O236  1  0.50915653  0.24069975  0.63680656  1
  O  O237  1  0.49471272  0.74675967  0.13791534  1
  O  O238  1  0.55033568  0.73577148  0.62593830  1
  O  O239  1  0.99396709  0.24417925  0.12846989  1
  O  O240  1  0.99236782  0.24334730  0.62931304  1
  O  O241  1  0.99655624  0.74505147  0.12952228  1
  O  O242  1  0.98717416  0.75450582  0.63710536  1
  O  O243  1  0.01040632  0.25814047  0.37501714  1
  O  O244  1  0.00517636  0.25532029  0.86873190  1
  O  O245  1  0.00548687  0.75608338  0.37041295  1
  O  O246  1  0.00728539  0.75542940  0.86755618  1
  O  O247  1  0.49273881  0.25860148  0.37482190  1
  O  O248  1  0.50462623  0.25777269  0.86678940  1
  O  O249  1  0.49324885  0.75779846  0.36642564  1
  O  O250  1  0.50977514  0.76390345  0.87758699  1
  O  O251  1  0.25283973  0.13877412  0.50859477  1
  O  O252  1  0.24113575  0.14009004  0.99269271  1
  O  O253  1  0.25066669  0.62875834  0.48958036  1
  O  O254  1  0.24434858  0.63346227  0.99606368  1
  O  O255  1  0.74681564  0.12785233  0.49321921  1
  O  O256  1  0.76756811  0.15339713  0.98526101  1
  O  O257  1  0.69621495  0.59591171  0.41665519  1
  O  O258  1  0.74675770  0.63070856  0.99291146  1
  O  O259  1  0.25461756  0.37394630  0.00261697  1
  O  O260  1  0.26120049  0.36870638  0.50169391  1
  O  O261  1  0.25891062  0.87127887  0.00923881  1
  O  O262  1  0.26397702  0.86344023  0.50109163  1
  O  O263  1  0.75643266  0.35453533  -0.01391113  1
  O  O264  1  0.75495803  0.36145797  0.50711878  1
  O  O265  1  0.75751490  0.86877657  0.00359855  1
  O  O266  1  0.75174986  0.88912751  0.51438759  1
  O  O267  1  0.13243688  0.49420760  0.24482635  1
  O  O268  1  0.13755037  0.50652243  0.75421428  1
  O  O269  1  0.13043833  0.99536217  0.24571150  1
  O  O270  1  0.14151438  1.00255841  0.75885276  1
  O  O271  1  0.61710221  0.49198622  0.23193569  1
  O  O272  1  0.63904679  0.50168323  0.73745140  1
  O  O273  1  0.63027019  0.98689462  0.24791058  1
  O  O274  1  0.63368501  1.00013384  0.74524326  1
  O  O275  1  0.36551018  -0.01246921  0.26954448  1
  O  O276  1  0.36698224  0.00766680  0.76259379  1
  O  O277  1  0.37167936  0.50235231  0.25892924  1
  O  O278  1  0.36707121  0.51630246  0.74690115  1
  O  O279  1  0.87088463  0.00723246  0.25931845  1
  O  O280  1  0.87147742  0.00719197  0.75260897  1
  O  O281  1  0.87581549  0.51535566  0.25215671  1
  O  O282  1  0.86836371  0.50809856  0.74812572  1
  O  O283  1  0.12080584  0.36525947  0.36951127  1
  O  O284  1  0.11304846  0.36326376  0.88047457  1
  O  O285  1  0.12054918  0.86774210  0.37103660  1
  O  O286  1  0.12147070  0.86325950  0.88044028  1
  O  O287  1  0.59960622  0.37298292  0.38187748  1
  O  O288  1  0.61152809  0.35773626  0.88180720  1
  O  O289  1  0.61296388  0.88152073  0.36574301  1
  O  O290  1  0.61889237  0.87346625  0.87294238  1
  O  O291  1  0.32769471  0.12023456  0.14434350  1
  O  O292  1  0.38681222  0.11624229  0.63804095  1
  O  O293  1  0.37701370  0.62991657  0.13338044  1
  O  O294  1  0.38198343  0.63088573  0.61405019  1
  O  O295  1  0.87863184  0.13593555  0.13858826  1
  O  O296  1  0.88226753  0.13308923  0.63357096  1
  O  O297  1  0.88229885  0.63098728  0.13255486  1
  O  O298  1  0.86275372  0.63487538  0.63700746  1
  O  O299  1  0.23980671  0.26550188  0.11111698  1
  O  O300  1  0.24083355  0.25588126  0.61134806  1
  O  O301  1  0.25514689  0.75780133  0.12126529  1
  O  O302  1  0.24136371  0.73869381  0.61438650  1
  O  O303  1  0.75687900  0.24907370  0.11704750  1
  O  O304  1  0.75637660  0.25270985  0.62172601  1
  O  O305  1  0.75557874  0.75648963  0.11711057  1
  O  O306  1  0.75430671  0.76481319  0.62980024  1
  O  O307  1  0.24176135  0.25512133  0.38898009  1
  O  O308  1  0.24080217  0.24710777  0.88075989  1
  O  O309  1  0.24710811  0.73951658  0.38169093  1
  O  O310  1  0.24254272  0.74750310  0.88247391  1
  O  O311  1  0.75702781  0.23417669  0.38776820  1
  O  O312  1  0.73342070  0.25207416  0.86491513  1
  O  O313  1  0.75436447  0.73803738  0.38221035  1
  O  O314  1  0.74621382  0.74631564  0.87989736  1
  O  O315  1  0.00421795  0.12065741  0.00534298  1
  O  O316  1  -0.00015029  0.11680534  0.50674454  1
  O  O317  1  0.00502319  0.62087433  0.00508338  1
  O  O318  1  -0.00121715  0.60811214  0.48404012  1
  O  O319  1  0.48779291  0.14541257  0.02537859  1
  O  O320  1  0.49745126  0.12552976  0.51293419  1
  O  O321  1  0.50641695  0.61593312  -0.00182531  1
  O  O322  1  0.49853764  0.60276554  0.49420154  1
  O  O323  1  0.48563032  0.37500010  0.49175494  1
  O  O324  1  0.49207750  0.38057389  0.99262276  1
  O  O325  1  0.49162139  0.87626591  0.49047448  1
  O  O326  1  0.49188611  0.87113399  0.99347341  1
  O  O327  1  0.99561028  0.38154148  0.48822616  1
  O  O328  1  0.99847976  0.38189171  0.99231803  1
  O  O329  1  0.99264009  0.88320947  0.49104425  1
  O  O330  1  0.99534996  0.88077261  0.99367716  1
  O  O331  1  0.49142799  0.48965200  0.38368989  1
  O  O332  1  0.51486397  0.48909320  0.88566949  1
  O  O333  1  0.48913366  0.98892467  0.37372882  1
  O  O334  1  0.49140942  0.98967415  0.86982231  1
  O  O335  1  1.00477036  0.48628967  0.37966090  1
  O  O336  1  1.00051517  0.49126087  0.87999913  1
  O  O337  1  0.99186408  0.99581960  0.38038540  1
  O  O338  1  0.99681001  0.99564430  0.87865282  1
  O  O339  1  0.00479568  0.00526811  0.11956545  1
  O  O340  1  -0.01268192  0.01029065  0.61351272  1
  O  O341  1  0.00666643  0.50550682  0.12042638  1
  O  O342  1  -0.02434689  0.49603665  0.59850176  1
  O  O343  1  0.49160310  0.00730011  0.13574627  1
  O  O344  1  0.50985619  0.01047236  0.62995755  1
  O  O345  1  0.50756721  0.49854956  0.11085400  1
  O  O346  1  0.51141797  0.49221595  0.61114061  1
  O  O347  1  0.24837638  0.37910828  0.24156943  1
  O  O348  1  0.25191953  0.37493683  0.75457211  1
  O  O349  1  0.24363697  0.86775468  0.24269606  1
  O  O350  1  0.24947308  0.88919370  0.75781543  1
  O  O351  1  0.74213524  0.39558852  0.31323192  1
  O  O352  1  0.75981028  0.38461164  0.73887395  1
  O  O353  1  0.74211344  0.87689084  0.24689206  1
  O  O354  1  0.74652147  0.88744099  0.74042194  1
  O  O355  1  0.28532026  0.12516801  0.21436575  1
  O  O356  1  0.25842993  0.12091438  0.75690354  1
  O  O357  1  0.25665038  0.61888571  0.26013663  1
  O  O358  1  0.25343042  0.63500001  0.77125514  1
  O  O359  1  0.75655927  0.12106714  0.25885789  1
  O  O360  1  0.76215921  0.11664427  0.74237771  1
  O  O361  1  0.76449988  0.63416961  0.24350033  1
  O  O362  1  0.75844484  0.61307224  0.75668751  1
  O  O363  1  0.37873772  0.10382900  0.38270178  1
  O  O364  1  0.37226968  0.11796319  0.86916900  1
  O  O365  1  0.36710958  0.61305646  0.37319421  1
  O  O366  1  0.36071634  0.63111528  0.88779233  1
  O  O367  1  0.86990410  0.11757592  0.36617196  1
  O  O368  1  0.88512644  0.12053178  0.86041534  1
  O  O369  1  0.87333626  0.62992671  0.35658243  1
  O  O370  1  0.86717017  0.62327916  0.86553219  1
  O  O371  1  0.13380968  0.38203893  0.12896325  1
  O  O372  1  0.11184683  0.38473748  0.62854620  1
  O  O373  1  0.13046873  0.87847097  0.13060820  1
  O  O374  1  0.11927108  0.88654176  0.61396561  1
  O  O375  1  0.62823195  0.38629985  0.12076674  1
  O  O376  1  0.63922822  0.38036104  0.62048483  1
  O  O377  1  0.63075986  0.87761402  0.13410548  1
  O  O378  1  0.63102959  0.88945764  0.63123992  1
  O  O379  1  0.12941301  0.25394509  0.25779698  1
  O  O380  1  0.11399006  0.24008324  0.76049170  1
  O  O381  1  0.12016639  0.75436991  0.25610580  1
  O  O382  1  0.11663590  0.75151249  0.75785372  1
  O  O383  1  0.60666134  0.26373279  0.24611767  1
  O  O384  1  0.61359363  0.24376759  0.76150534  1
  O  O385  1  0.61602556  0.75956463  0.24523187  1
  O  O386  1  0.63078867  0.76277290  0.76169234  1
  O  O387  1  0.39113409  0.25534238  0.25563362  1
  O  O388  1  0.38515403  0.23545487  0.75805577  1
  O  O389  1  0.38375637  0.74383855  0.24805704  1
  O  O390  1  0.38579135  0.74330309  0.75313001  1
  O  O391  1  0.87404861  0.24153296  0.24568121  1
  O  O392  1  0.88246606  0.24265443  0.74237841  1
  O  O393  1  0.88262881  0.74321529  0.24266565  1
  O  O394  1  0.87856567  0.74326236  0.74304476  1
  O  O395  1  0.38250691  0.48589572  0.49408451  1
  O  O396  1  0.38595216  0.49230107  1.00215682  1
  O  O397  1  0.37406746  0.98502572  0.49240261  1
  O  O398  1  0.37112597  0.98746479  0.98881407  1
  O  O399  1  0.87716333  0.49800382  0.47792882  1
  O  O400  1  0.88280131  0.49864783  0.99769682  1
  O  O401  1  0.88199280  1.00227133  0.48788860  1
  O  O402  1  0.88189221  0.99261822  0.99043212  1
  O  O403  1  0.11904138  0.00564684  0.00517392  1
  O  O404  1  0.11019213  0.00297593  0.48923287  1
  O  O405  1  0.11889349  0.50706903  0.00582554  1
  O  O406  1  0.10710442  0.49961583  0.49894994  1
  O  O407  1  0.64779150  0.01336880  0.00686139  1
  O  O408  1  0.61878463  0.00490479  0.51278963  1
  O  O409  1  0.61911508  0.50248317  0.00721661  1
  O  O410  1  0.61063012  0.48304955  0.50151350  1
  O  O411  1  0.36203959  0.38234706  0.11365127  1
  O  O412  1  0.38089204  0.37580703  0.61152880  1
  O  O413  1  0.36809125  0.86853194  0.12099895  1
  O  O414  1  0.39000143  0.87894290  0.60965474  1
  O  O415  1  0.88052321  0.36323662  0.13180523  1
  O  O416  1  0.86667965  0.36081381  0.62202938  1
  O  O417  1  0.87233333  0.86734930  0.11923681  1
  O  O418  1  0.86591743  0.86687377  0.62496800  1
  O  O419  1  0.12181184  0.13737009  0.37565369  1
  O  O420  1  0.12752012  0.13559212  0.88165942  1
  O  O421  1  0.13634835  0.62856897  0.37247965  1
  O  O422  1  0.13064711  0.64047697  0.88253036  1
  O  O423  1  0.63592386  0.11267867  0.37236762  1
  O  O424  1  0.61202603  0.14208263  0.88505302  1
  O  O425  1  0.62975248  0.62317236  0.38623076  1
  O  O426  1  0.63096570  0.63057196  0.88038487  1
