# generated using pymatgen
data_V85Zn86O256
_symmetry_space_group_name_H-M   'P 1'
_cell_length_a   16.96032390
_cell_length_b   16.99569928
_cell_length_c   16.96915413
_cell_angle_alpha   90.08083028
_cell_angle_beta   89.97546612
_cell_angle_gamma   89.78658334
_symmetry_Int_Tables_number   1
_chemical_formula_structural   V85Zn86O256
_chemical_formula_sum   'V85 Zn86 O256'
_cell_volume   4891.36294052
_cell_formula_units_Z   1
loop_
 _symmetry_equiv_pos_site_id
 _symmetry_equiv_pos_as_xyz
  1  'x, y, z'
loop_
 _atom_site_type_symbol
 _atom_site_label
 _atom_site_symmetry_multiplicity
 _atom_site_fract_x
 _atom_site_fract_y
 _atom_site_fract_z
 _atom_site_occupancy
  V  V0  1  0.25262722  0.62021841  0.87585478  1
  V  V1  1  0.50460728  0.25419299  0.77232235  1
  V  V2  1  0.25466703  0.37462776  0.62314862  1
  V  V3  1  0.74645827  0.24816525  -0.00555958  1
  V  V4  1  0.12647582  0.74966727  0.87549950  1
  V  V5  1  0.37919184  0.25443593  0.12815878  1
  V  V6  1  0.87080841  0.62680805  0.25627254  1
  V  V7  1  0.12275925  0.62677713  0.49489223  1
  V  V8  1  0.87237958  0.25166044  0.12666806  1
  V  V9  1  0.37363318  0.87297176  0.51115762  1
  V  V10  1  0.37683518  0.37555469  -0.00153561  1
  V  V11  1  0.50194415  0.25011481  0.26105839  1
  V  V12  1  0.13256765  0.37339881  0.24717142  1
  V  V13  1  -0.00079355  0.00035577  -0.00009990  1
  V  V14  1  0.24731579  0.75875922  0.50488379  1
  V  V15  1  0.51225643  -0.00265409  0.51787317  1
  V  V16  1  0.73885062  0.25330788  0.49176424  1
  V  V17  1  0.88207194  0.50154055  0.37884651  1
  V  V18  1  0.00135269  0.25344048  0.25234337  1
  V  V19  1  0.62396790  0.50610413  0.63283952  1
  V  V20  1  0.75140041  0.00354114  0.25581619  1
  V  V21  1  0.37912089  -0.00176179  0.37273917  1
  V  V22  1  0.87533881  0.88055351  0.00146743  1
  V  V23  1  0.50335485  0.74516484  0.24648621  1
  V  V24  1  0.26178825  0.12325777  0.86682263  1
  V  V25  1  0.87310084  0.11815693  0.75983494  1
  V  V26  1  0.75384582  0.87832774  0.12538134  1
  V  V27  1  0.75201726  0.75128221  0.00199982  1
  V  V28  1  0.11992314  0.49864757  0.61687665  1
  V  V29  1  0.62690737  0.62723853  0.49836715  1
  V  V30  1  0.75719073  0.74279456  0.49393578  1
  V  V31  1  0.74513519  0.38000953  0.63081905  1
  V  V32  1  0.87127131  0.24825243  0.62414917  1
  V  V33  1  0.75132406  0.87724500  0.62738701  1
  V  V34  1  -0.00024407  0.87872706  0.87631102  1
  V  V35  1  0.11561130  0.11912754  0.49873585  1
  V  V36  1  0.61408823  0.00527084  0.12141815  1
  V  V37  1  0.12120873  0.37176702  0.74900021  1
  V  V38  1  0.62075424  0.87732072  0.74952933  1
  V  V39  1  0.36865908  0.38303336  0.49222658  1
  V  V40  1  0.37941869  0.62073844  0.25585500  1
  V  V41  1  0.25565292  -0.00250230  0.24703166  1
  V  V42  1  0.61734996  0.50538345  0.13083836  1
  V  V43  1  0.50224890  0.87274641  0.37258434  1
  V  V44  1  0.61802550  0.75157783  0.87471584  1
  V  V45  1  0.74995302  0.50274896  0.25707806  1
  V  V46  1  0.00334989  0.74866550  0.75107052  1
  V  V47  1  0.87467322  0.37700453  0.00164482  1
  V  V48  1  0.73432012  0.13127364  0.37524221  1
  V  V49  1  0.12432990  0.12369151  -0.00549139  1
  V  V50  1  0.87545746  0.89843737  0.49752713  1
  V  V51  1  0.25682787  0.74863912  0.00027530  1
  V  V52  1  0.87325198  0.61880794  0.75141508  1
  V  V53  1  0.62388814  0.37281020  0.25938592  1
  V  V54  1  0.75625507  -0.00831447  0.76593096  1
  V  V55  1  0.61187724  0.12879469  0.00180704  1
  V  V56  1  0.00089267  0.12701620  0.12477249  1
  V  V57  1  0.25638008  0.49947312  0.25662335  1
  V  V58  1  0.25733629  0.87194382  0.12171357  1
  V  V59  1  0.00136585  0.62316745  0.62194384  1
  V  V60  1  -0.00323540  0.24669460  0.74992265  1
  V  V61  1  0.38105702  0.74371635  0.12490656  1
  V  V62  1  0.87749368  0.75232760  0.12646266  1
  V  V63  1  0.27080173  0.21640691  0.53259243  1
  V  V64  1  0.50223583  0.49420426  -0.00236307  1
  V  V65  1  0.12430113  0.62204726  0.00228915  1
  V  V66  1  0.12825731  0.24837998  0.37694581  1
  V  V67  1  0.87353551  0.12702931  0.25843425  1
  V  V68  1  0.12845457  0.00049446  0.12258207  1
  V  V69  1  0.62621380  0.87479704  0.24897957  1
  V  V70  1  0.00359424  0.75109966  0.25242910  1
  V  V71  1  0.38194922  0.12360290  0.24501054  1
  V  V72  1  0.25305896  0.12541028  0.37000538  1
  V  V73  1  0.24889397  0.49738091  0.75401809  1
  V  V74  1  0.24859380  0.25477628  0.00649677  1
  V  V75  1  0.75289886  0.62036939  0.87489293  1
  V  V76  1  0.25692277  -0.00329914  0.74297314  1
  V  V77  1  0.13411439  0.49450917  0.12567241  1
  V  V78  1  0.49376674  0.50846545  0.49897100  1
  V  V79  1  -0.00110846  0.49831063  0.00117417  1
  V  V80  1  0.12676321  0.87332376  0.25038783  1
  V  V81  1  0.00064867  0.62322695  0.12610025  1
  V  V82  1  0.61916781  0.62638357  0.00640921  1
  V  V83  1  0.11752468  -0.00790317  0.62229060  1
  V  V84  1  0.88459888  0.37885738  0.49985739  1
  Zn  Zn85  1  0.58218794  0.15566360  0.55985796  1
  Zn  Zn86  1  0.12763055  0.75224479  0.37372692  1
  Zn  Zn87  1  0.51093093  0.73012427  0.73019197  1
  Zn  Zn88  1  0.63094613  0.74510584  0.37186825  1
  Zn  Zn89  1  -0.00180741  0.37630362  0.87422749  1
  Zn  Zn90  1  0.41623282  0.18623454  0.65662739  1
  Zn  Zn91  1  -0.01366703  0.11615402  0.61646908  1
  Zn  Zn92  1  0.38766465  0.62098551  0.74192050  1
  Zn  Zn93  1  0.40872647  -0.04160194  -0.08985479  1
  Zn  Zn94  1  0.25718251  0.62610122  0.37865703  1
  Zn  Zn95  1  0.87806742  0.75010126  0.62362962  1
  Zn  Zn96  1  0.87444006  0.49778382  0.87197726  1
  Zn  Zn97  1  -0.00302517  0.89478044  0.38517064  1
  Zn  Zn98  1  0.38580357  0.74034615  0.62266169  1
  Zn  Zn99  1  0.50256149  0.37367624  0.38310229  1
  Zn  Zn100  1  0.74628725  0.37657164  0.12799554  1
  Zn  Zn101  1  0.75031073  0.11276956  0.88436530  1
  Zn  Zn102  1  0.12508686  0.25033082  0.87472991  1
  Zn  Zn103  1  0.62621996  0.37385509  0.77175451  1
  Zn  Zn104  1  0.38169678  0.49365595  0.87232009  1
  Zn  Zn105  1  0.13100519  0.86841944  0.74010724  1
  Zn  Zn106  1  0.00702094  0.37876117  0.38173817  1
  Zn  Zn107  1  0.18939909  0.18765894  0.18616212  1
  Zn  Zn108  1  0.18167424  0.18003522  0.68696858  1
  Zn  Zn109  1  0.19171582  0.68285363  0.18826070  1
  Zn  Zn110  1  0.21541218  0.67346894  0.67215783  1
  Zn  Zn111  1  0.68426536  0.18885935  0.18547741  1
  Zn  Zn112  1  0.67761375  0.17934411  0.70716309  1
  Zn  Zn113  1  0.69078148  0.68798812  0.18713928  1
  Zn  Zn114  1  0.69253365  0.69120300  0.68572269  1
  Zn  Zn115  1  0.31365875  0.31197676  0.31485762  1
  Zn  Zn116  1  0.31684027  0.30636649  0.81244420  1
  Zn  Zn117  1  0.31484556  0.80865409  0.31615394  1
  Zn  Zn118  1  0.33396526  0.81932730  0.79718113  1
  Zn  Zn119  1  0.81198628  0.31823929  0.31514657  1
  Zn  Zn120  1  0.81028247  0.31192228  0.81504006  1
  Zn  Zn121  1  0.81568350  0.81734072  0.31652531  1
  Zn  Zn122  1  0.81388818  0.80715915  0.81734623  1
  Zn  Zn123  1  0.18752639  0.43909002  0.43458773  1
  Zn  Zn124  1  0.18632484  0.43299281  0.93769645  1
  Zn  Zn125  1  0.18879473  0.93927603  0.43557614  1
  Zn  Zn126  1  0.22758759  0.91561647  0.91141035  1
  Zn  Zn127  1  0.69017941  0.44172462  0.44205821  1
  Zn  Zn128  1  0.69073906  0.43708142  0.94149368  1
  Zn  Zn129  1  0.69088527  0.93531266  0.43666276  1
  Zn  Zn130  1  0.57299516  0.94003907  0.92667470  1
  Zn  Zn131  1  0.31043562  0.06871902  0.06106075  1
  Zn  Zn132  1  0.31091547  0.04174876  0.56058932  1
  Zn  Zn133  1  0.31745291  0.56232976  0.06742033  1
  Zn  Zn134  1  0.30770704  0.56390219  0.56150050  1
  Zn  Zn135  1  0.80899515  0.06193534  0.06685054  1
  Zn  Zn136  1  0.76787814  0.07929709  0.58126866  1
  Zn  Zn137  1  0.80858918  0.56339552  0.06824971  1
  Zn  Zn138  1  0.81403857  0.56255981  0.56419590  1
  Zn  Zn139  1  0.43833715  0.43242654  0.18494374  1
  Zn  Zn140  1  0.43792060  0.43657163  0.68852622  1
  Zn  Zn141  1  0.43913732  0.93921675  0.07551317  1
  Zn  Zn142  1  0.46486026  0.97073423  0.72767281  1
  Zn  Zn143  1  0.94168978  0.43765290  0.19000136  1
  Zn  Zn144  1  0.93672138  0.43736176  0.68438720  1
  Zn  Zn145  1  0.95132644  0.95362055  0.21211164  1
  Zn  Zn146  1  0.93627980  0.93483456  0.68443032  1
  Zn  Zn147  1  0.06345733  0.06242820  0.31191795  1
  Zn  Zn148  1  0.06409990  0.06071002  0.80858283  1
  Zn  Zn149  1  0.06223577  0.56005606  0.31012965  1
  Zn  Zn150  1  0.06211982  0.56061261  0.81331875  1
  Zn  Zn151  1  0.56137755  0.05990325  0.31236425  1
  Zn  Zn152  1  0.55553013  0.08460090  0.81616357  1
  Zn  Zn153  1  0.56150113  0.56201892  0.31978417  1
  Zn  Zn154  1  0.56811053  0.55891348  0.81849240  1
  Zn  Zn155  1  0.45190767  0.19887921  0.46225423  1
  Zn  Zn156  1  0.43310830  0.18721210  0.94026125  1
  Zn  Zn157  1  0.43837284  0.69046069  0.43972989  1
  Zn  Zn158  1  0.43804752  0.68375931  0.93358831  1
  Zn  Zn159  1  0.93434215  0.19164467  0.43634934  1
  Zn  Zn160  1  0.93696717  0.19062658  0.93706389  1
  Zn  Zn161  1  0.94115642  0.69116384  0.43400173  1
  Zn  Zn162  1  0.93782743  0.68808006  0.93875804  1
  Zn  Zn163  1  0.06220970  0.31287110  0.06435232  1
  Zn  Zn164  1  0.06799550  0.30236676  0.56242367  1
  Zn  Zn165  1  0.06554429  0.81204279  0.06409766  1
  Zn  Zn166  1  0.05766113  0.81183108  0.55823329  1
  Zn  Zn167  1  0.56190323  0.31360554  0.06998809  1
  Zn  Zn168  1  0.53682377  0.32994663  0.59703764  1
  Zn  Zn169  1  0.56288883  0.81442403  0.06013150  1
  Zn  Zn170  1  0.56474788  0.81308340  0.56478314  1
  O  O171  1  0.12200155  0.12203031  0.11580683  1
  O  O172  1  0.12051011  0.11634100  0.61314319  1
  O  O173  1  0.12109641  0.61504377  0.12192599  1
  O  O174  1  0.12064288  0.61712601  0.61746448  1
  O  O175  1  0.62891473  0.11176004  0.11935824  1
  O  O176  1  0.66401539  0.11565956  0.61878059  1
  O  O177  1  0.63228851  0.61800587  0.11666137  1
  O  O178  1  0.63631766  0.61071646  0.61814507  1
  O  O179  1  0.37043037  0.37969799  0.38893107  1
  O  O180  1  0.36868672  0.37598487  0.89281698  1
  O  O181  1  0.38635166  0.87913087  0.37607916  1
  O  O182  1  0.33568980  0.87871263  0.88810210  1
  O  O183  1  0.88043943  0.38246995  0.38319577  1
  O  O184  1  0.87366342  0.37769109  0.88836002  1
  O  O185  1  0.87145134  0.87919523  0.39321798  1
  O  O186  1  0.88986129  0.86446957  0.88865685  1
  O  O187  1  0.25647264  0.00745638  0.36728643  1
  O  O188  1  0.23987254  0.01711897  0.85953835  1
  O  O189  1  0.24643990  0.50560597  0.36103571  1
  O  O190  1  0.24708244  0.50402297  0.86971676  1
  O  O191  1  0.74360286  0.01122317  0.36301705  1
  O  O192  1  0.75860656  -0.00849513  0.86478728  1
  O  O193  1  0.76184466  0.49725663  0.36380904  1
  O  O194  1  0.75525813  0.51720621  0.88503031  1
  O  O195  1  0.23899650  0.50507670  0.13422674  1
  O  O196  1  0.23723831  0.49182367  0.63553453  1
  O  O197  1  0.24859900  0.99004454  0.12669473  1
  O  O198  1  0.23415482  1.00459958  0.63616269  1
  O  O199  1  0.74048002  0.49979079  0.13980333  1
  O  O200  1  0.74244643  0.48751420  0.61824365  1
  O  O201  1  0.74046208  0.99552116  0.13414162  1
  O  O202  1  0.75673427  0.98069081  0.63825619  1
  O  O203  1  0.01425425  0.37058394  0.25276402  1
  O  O204  1  0.00501675  0.36629910  0.74714462  1
  O  O205  1  0.01444769  0.85869479  0.23344640  1
  O  O206  1  0.00117243  0.86488553  0.75910527  1
  O  O207  1  0.50566365  0.36978929  0.25684782  1
  O  O208  1  0.51326812  0.35547697  0.71746672  1
  O  O209  1  0.50894239  0.85886608  0.25961570  1
  O  O210  1  0.52069033  0.87016541  0.74018257  1
  O  O211  1  0.48941782  0.13412434  0.25916006  1
  O  O212  1  0.50331622  0.15050443  0.73807696  1
  O  O213  1  0.49771317  0.63699497  0.25662414  1
  O  O214  1  0.49902852  0.61840148  0.75582618  1
  O  O215  1  0.99245720  0.13491855  0.24342525  1
  O  O216  1  0.99140120  0.13259755  0.74667377  1
  O  O217  1  0.99431695  0.63321487  0.24551662  1
  O  O218  1  0.99731228  0.63127736  0.74351777  1
  O  O219  1  0.36922084  0.25544498  0.00909393  1
  O  O220  1  0.35379877  0.26245831  0.49076609  1
  O  O221  1  0.36423416  0.73669509  0.00881854  1
  O  O222  1  0.36487813  0.75583558  0.50097648  1
  O  O223  1  0.86990676  0.25724189  0.00870371  1
  O  O224  1  0.87165008  0.25969339  0.50842383  1
  O  O225  1  0.87392761  0.75724748  0.00826836  1
  O  O226  1  0.86388221  0.74599340  0.50044896  1
  O  O227  1  0.14158213  0.23557119  0.49794058  1
  O  O228  1  0.13080418  0.24229751  1.00114800  1
  O  O229  1  0.12732583  0.74472002  0.49409830  1
  O  O230  1  0.13270302  0.74113310  0.99561691  1
  O  O231  1  0.64140197  0.25597068  0.50237818  1
  O  O232  1  0.63482098  0.23701453  1.01949209  1
  O  O233  1  0.63968488  0.74366516  0.50161399  1
  O  O234  1  0.63178837  0.74328601  0.99723413  1
  O  O235  1  0.48686158  0.25412760  0.14057185  1
  O  O236  1  0.49276857  0.22738594  0.57689742  1
  O  O237  1  0.49166025  0.75668247  0.13419738  1
  O  O238  1  0.50051357  0.74015395  0.61628545  1
  O  O239  1  0.99146523  0.24660527  0.13053450  1
  O  O240  1  0.98781266  0.24782057  0.63300330  1
  O  O241  1  0.99786851  0.74165632  0.13133048  1
  O  O242  1  1.00258888  0.74074334  0.63579227  1
  O  O243  1  0.01038681  0.25179658  0.36951729  1
  O  O244  1  0.00014539  0.25387149  0.86136981  1
  O  O245  1  0.00194983  0.75826188  0.36007571  1
  O  O246  1  0.00948301  0.75446603  0.87169165  1
  O  O247  1  0.49235980  0.25448354  0.36664122  1
  O  O248  1  0.49735498  0.25376685  0.87124960  1
  O  O249  1  0.50411800  0.75813520  0.36988508  1
  O  O250  1  0.51702695  0.74482187  0.87880593  1
  O  O251  1  0.24008685  0.11819885  0.48490176  1
  O  O252  1  0.24142006  0.13249648  0.98868357  1
  O  O253  1  0.23752070  0.63502115  0.49813346  1
  O  O254  1  0.24469265  0.62795556  0.99498958  1
  O  O255  1  0.75940350  0.14492182  0.48641491  1
  O  O256  1  0.74663076  0.13284047  1.00166231  1
  O  O257  1  0.74576134  0.63693959  0.50506089  1
  O  O258  1  0.74464726  0.63221984  0.99703042  1
  O  O259  1  0.25419043  0.36106410  -0.00285461  1
  O  O260  1  0.25408080  0.38454894  0.51082110  1
  O  O261  1  0.23761111  0.85796831  0.01356078  1
  O  O262  1  0.26206882  0.86941924  0.48669258  1
  O  O263  1  0.75945176  0.36807161  0.00839770  1
  O  O264  1  0.76085880  0.36713378  0.50332767  1
  O  O265  1  0.76468369  0.86800012  0.00793447  1
  O  O266  1  0.75905956  0.86730634  0.50736972  1
  O  O267  1  0.13303268  0.49325055  0.24381615  1
  O  O268  1  0.12870250  0.48933373  0.74286067  1
  O  O269  1  0.13682502  0.99290889  0.24052645  1
  O  O270  1  0.13009644  1.00031946  0.73548074  1
  O  O271  1  0.63034484  0.49862231  0.24871852  1
  O  O272  1  0.62397338  0.49565505  0.73409099  1
  O  O273  1  0.63453323  0.99724542  0.24184590  1
  O  O274  1  0.63823739  0.98008909  0.75531398  1
  O  O275  1  0.37055178  0.01132301  0.25594955  1
  O  O276  1  0.35639542  0.00411408  0.73696715  1
  O  O277  1  0.36713950  0.50823563  0.23767672  1
  O  O278  1  0.36007274  0.49514768  0.75241756  1
  O  O279  1  0.85771598  0.01780136  0.23407082  1
  O  O280  1  0.87188508  0.01067887  0.74411014  1
  O  O281  1  0.86979289  0.50684038  0.25507893  1
  O  O282  1  0.88277928  0.51384934  0.75243544  1
  O  O283  1  0.12595190  0.36789633  0.36790905  1
  O  O284  1  0.12283886  0.37139804  0.86045840  1
  O  O285  1  0.12302323  0.87801137  0.35901204  1
  O  O286  1  0.12089379  0.86015381  0.87653444  1
  O  O287  1  0.62631269  0.38249838  0.36299205  1
  O  O288  1  0.61794729  0.38765474  0.87978658  1
  O  O289  1  0.61922839  0.87222042  0.36747431  1
  O  O290  1  0.63160624  0.86267215  0.86122923  1
  O  O291  1  0.36880467  0.13595841  0.13931685  1
  O  O292  1  0.33019372  0.14723685  0.59786960  1
  O  O293  1  0.37326331  0.63654890  0.13731861  1
  O  O294  1  0.33067684  0.63712767  0.64193836  1
  O  O295  1  0.87932924  0.13704980  0.13190266  1
  O  O296  1  0.86679334  0.13722361  0.63389426  1
  O  O297  1  0.88020662  0.63061786  0.13634187  1
  O  O298  1  0.88514781  0.62478196  0.63277138  1
  O  O299  1  0.25945426  0.24313598  0.11385588  1
  O  O300  1  0.23676142  0.26485566  0.62559536  1
  O  O301  1  0.25806410  0.75227316  0.11965535  1
  O  O302  1  0.23548906  0.76345766  0.60641316  1
  O  O303  1  0.76129111  0.25149828  0.12047434  1
  O  O304  1  0.75901854  0.26396876  0.61219760  1
  O  O305  1  0.75754408  0.75781206  0.12222873  1
  O  O306  1  0.75692702  0.75769190  0.61456624  1
  O  O307  1  0.24408085  0.23476242  0.36825934  1
  O  O308  1  0.24750723  0.23792977  0.88112924  1
  O  O309  1  0.24633940  0.74567271  0.38375693  1
  O  O310  1  0.24120904  0.73763250  0.88362001  1
  O  O311  1  0.75181842  0.24870142  0.38458992  1
  O  O312  1  0.75256727  0.24883368  0.89201228  1
  O  O313  1  0.74948299  0.75523580  0.38995120  1
  O  O314  1  0.74417991  0.74022868  0.88396895  1
  O  O315  1  0.00519606  0.12278851  0.00418409  1
  O  O316  1  0.01098508  0.12968780  0.49714664  1
  O  O317  1  0.00438397  0.61897019  0.00680111  1
  O  O318  1  0.00786165  0.63500473  0.51336623  1
  O  O319  1  0.51331063  0.13626009  0.00359556  1
  O  O320  1  0.50624856  0.09853275  0.48698092  1
  O  O321  1  0.51393051  0.61748504  -0.00099241  1
  O  O322  1  0.50531621  0.61376829  0.50101146  1
  O  O323  1  0.48515136  0.38595487  0.50404072  1
  O  O324  1  0.49041232  0.38339114  1.01018959  1
  O  O325  1  0.49402419  0.88058551  0.49190312  1
  O  O326  1  0.50102946  0.88235380  0.99542072  1
  O  O327  1  0.98955297  0.36910738  0.50419543  1
  O  O328  1  0.99074693  0.37799955  0.99976775  1
  O  O329  1  0.98229471  0.87563327  0.49955556  1
  O  O330  1  0.99622651  0.87890817  0.99641202  1
  O  O331  1  0.50494084  0.49483442  0.39569364  1
  O  O332  1  0.49795297  0.50273660  0.89362014  1
  O  O333  1  0.49733870  0.98522392  0.37360001  1
  O  O334  1  0.49768663  0.99263000  0.84654550  1
  O  O335  1  0.98731000  0.49634551  0.36948409  1
  O  O336  1  0.99717713  0.49723919  0.88521426  1
  O  O337  1  0.98691907  0.98538341  0.32146196  1
  O  O338  1  1.00987738  0.98478194  0.88111271  1
  O  O339  1  0.00832737  0.00847122  0.12130574  1
  O  O340  1  0.01250633  0.00358970  0.62991220  1
  O  O341  1  0.01122044  0.50435827  0.12227852  1
  O  O342  1  0.01020925  0.51067179  0.63058555  1
  O  O343  1  0.51742213  -0.00458702  0.14085426  1
  O  O344  1  0.49479598  0.00044777  0.61669960  1
  O  O345  1  0.51156268  0.50019342  0.12039696  1
  O  O346  1  0.51659828  0.49328688  0.61358666  1
  O  O347  1  0.24020691  0.38169900  0.25454976  1
  O  O348  1  0.24108902  0.37853564  0.74430821  1
  O  O349  1  0.24545599  0.87537174  0.24134205  1
  O  O350  1  0.24424193  0.89309975  0.75564471  1
  O  O351  1  0.74291489  0.38420499  0.24895102  1
  O  O352  1  0.74869931  0.36780552  0.73314868  1
  O  O353  1  0.74828039  0.88425787  0.24700060  1
  O  O354  1  0.75429725  0.87413085  0.74539265  1
  O  O355  1  0.25599906  0.11864315  0.25462091  1
  O  O356  1  0.24552494  0.12223713  0.76139535  1
  O  O357  1  0.25979480  0.61719551  0.25341484  1
  O  O358  1  0.23503947  0.60903065  0.76548453  1
  O  O359  1  0.75395349  0.12481415  0.25653263  1
  O  O360  1  0.75669161  0.11205515  0.76072765  1
  O  O361  1  0.76213536  0.61871039  0.24809351  1
  O  O362  1  0.76327543  0.63408579  0.76052306  1
  O  O363  1  0.36487392  0.11983307  0.36822770  1
  O  O364  1  0.36078365  0.12377355  0.87689090  1
  O  O365  1  0.37790524  0.62788136  0.36047929  1
  O  O366  1  0.35960044  0.61856276  0.87486743  1
  O  O367  1  0.86768309  0.13352659  0.36084002  1
  O  O368  1  0.87364020  0.12956183  0.86388749  1
  O  O369  1  0.88321050  0.61819967  0.36354951  1
  O  O370  1  0.87020956  0.62600945  0.86948540  1
  O  O371  1  0.12246395  0.38343884  0.13471496  1
  O  O372  1  0.12802597  0.38133558  0.63038765  1
  O  O373  1  0.13585727  0.87815640  0.13276949  1
  O  O374  1  0.11876239  0.88816669  0.62165237  1
  O  O375  1  0.62520778  0.38776828  0.13908742  1
  O  O376  1  0.63959639  0.38510945  0.61580998  1
  O  O377  1  0.63365371  0.88479460  0.12929869  1
  O  O378  1  0.64054328  0.86250454  0.64056015  1
  O  O379  1  0.12297249  0.25643366  0.25292907  1
  O  O380  1  0.11332872  0.25646894  0.74565479  1
  O  O381  1  0.12118929  0.75471485  0.24874915  1
  O  O382  1  0.11707521  0.74730953  0.75966658  1
  O  O383  1  0.61390171  0.26085281  0.24193436  1
  O  O384  1  0.61413698  0.25543347  0.75477835  1
  O  O385  1  0.62067266  0.75352685  0.24973478  1
  O  O386  1  0.62870730  0.75501186  0.75933260  1
  O  O387  1  0.38004926  0.24521024  0.24639967  1
  O  O388  1  0.39659541  0.26020910  0.74534216  1
  O  O389  1  0.38355123  0.74226823  0.24384170  1
  O  O390  1  0.38802548  0.74422752  0.74244078  1
  O  O391  1  0.87855109  0.24756933  0.24361949  1
  O  O392  1  0.87795494  0.24446069  0.74336239  1
  O  O393  1  0.88229259  0.74561447  0.24744708  1
  O  O394  1  0.88996841  0.73987931  0.75160543  1
  O  O395  1  0.38624179  0.49998602  0.50838934  1
  O  O396  1  0.38372814  0.49235607  1.00566899  1
  O  O397  1  0.38459867  0.98974563  0.49109021  1
  O  O398  1  0.38597717  1.01057140  1.00671983  1
  O  O399  1  0.86790257  0.49201843  0.48991272  1
  O  O400  1  0.87954326  0.49006499  1.00853556  1
  O  O401  1  0.86393448  0.99446708  0.50774174  1
  O  O402  1  0.88318624  0.98906194  1.00980085  1
  O  O403  1  0.11954099  0.01269443  0.00548742  1
  O  O404  1  0.13018477  0.00608881  0.51064935  1
  O  O405  1  0.12111059  0.50052951  0.00841726  1
  O  O406  1  0.12985163  0.50899133  0.51000621  1
  O  O407  1  0.61986839  0.01131086  0.01353638  1
  O  O408  1  0.61152899  -0.01834058  0.50671453  1
  O  O409  1  0.62105080  0.50715857  0.01273024  1
  O  O410  1  0.61922258  0.50820505  0.50777483  1
  O  O411  1  0.37180992  0.36432980  0.11609451  1
  O  O412  1  0.36024296  0.38121929  0.61530161  1
  O  O413  1  0.36363031  0.86104218  0.12563076  1
  O  O414  1  0.37525335  0.87547107  0.60900467  1
  O  O415  1  0.87723239  0.36607124  0.12030035  1
  O  O416  1  0.86545856  0.37260605  0.61915083  1
  O  O417  1  0.87394857  0.87006637  0.11966308  1
  O  O418  1  0.87138129  0.86940382  0.61318894  1
  O  O419  1  0.13201396  0.12582707  0.37771816  1
  O  O420  1  0.12538836  0.12843859  0.88461303  1
  O  O421  1  0.11902848  0.62360321  0.38778045  1
  O  O422  1  0.12926228  0.63071895  0.88270643  1
  O  O423  1  0.63487692  0.12777269  0.37153297  1
  O  O424  1  0.62914857  0.11786600  0.89716403  1
  O  O425  1  0.62428704  0.62656737  0.39283506  1
  O  O426  1  0.63578300  0.63019826  0.88607812  1
