# generated using pymatgen
data_V85Zn86O256
_symmetry_space_group_name_H-M   'P 1'
_cell_length_a   16.96881324
_cell_length_b   16.97874658
_cell_length_c   16.97014891
_cell_angle_alpha   90.09742215
_cell_angle_beta   89.88209587
_cell_angle_gamma   89.94851608
_symmetry_Int_Tables_number   1
_chemical_formula_structural   V85Zn86O256
_chemical_formula_sum   'V85 Zn86 O256'
_cell_volume   4889.23627498
_cell_formula_units_Z   1
loop_
 _symmetry_equiv_pos_site_id
 _symmetry_equiv_pos_as_xyz
  1  'x, y, z'
loop_
 _atom_site_type_symbol
 _atom_site_label
 _atom_site_symmetry_multiplicity
 _atom_site_fract_x
 _atom_site_fract_y
 _atom_site_fract_z
 _atom_site_occupancy
  V  V0  1  0.75193275  0.87559492  0.12368198  1
  V  V1  1  0.25111191  0.02192477  0.75265662  1
  V  V2  1  0.37729474  0.61979741  0.75085466  1
  V  V3  1  0.36958908  0.01202244  0.87367116  1
  V  V4  1  0.00069206  0.75082373  0.75047459  1
  V  V5  1  0.25567346  0.62378308  0.37246396  1
  V  V6  1  0.13152545  -0.00282079  0.12380150  1
  V  V7  1  0.49922688  0.62684165  0.61875940  1
  V  V8  1  0.75344110  0.74976894  -0.00006386  1
  V  V9  1  0.12653574  0.61963803  0.50298599  1
  V  V10  1  0.12985131  0.12534225  -0.00760379  1
  V  V11  1  0.49786560  0.74547096  0.25006646  1
  V  V12  1  -0.00487806  0.49352299  -0.00179941  1
  V  V13  1  -0.00190187  0.62465431  0.12473262  1
  V  V14  1  0.25515835  0.00541137  0.24824650  1
  V  V15  1  0.49987261  0.24810774  0.25127354  1
  V  V16  1  0.87626082  0.62629161  0.74833731  1
  V  V17  1  0.13088550  0.87630045  0.24809964  1
  V  V18  1  0.74521206  0.49571304  0.24892755  1
  V  V19  1  0.12319959  0.38352572  0.76002474  1
  V  V20  1  0.00148102  0.12174587  0.62088992  1
  V  V21  1  0.75150105  0.62770815  0.87413544  1
  V  V22  1  0.12630149  0.75081215  0.37530960  1
  V  V23  1  0.12801697  -0.00289748  0.62182976  1
  V  V24  1  0.12166247  0.49763331  0.12863846  1
  V  V25  1  0.37981966  0.36340906  0.50640792  1
  V  V26  1  0.38340004  0.38025733  -0.00941334  1
  V  V27  1  0.37228302  0.87670122  -0.00207578  1
  V  V28  1  0.24656053  0.75605923  0.00557920  1
  V  V29  1  0.61999316  0.00602091  0.62457776  1
  V  V30  1  0.25261988  0.13254451  0.37468019  1
  V  V31  1  0.87532943  0.75191370  0.62394915  1
  V  V32  1  0.87897130  0.49023651  0.87167903  1
  V  V33  1  -0.00147842  0.87467201  0.87587936  1
  V  V34  1  0.00060793  0.25428429  0.75817340  1
  V  V35  1  0.25326377  0.61839259  0.87632175  1
  V  V36  1  0.87543121  0.62583760  0.25283466  1
  V  V37  1  0.61647939  0.25246352  0.87248579  1
  V  V38  1  0.73856057  0.37005270  0.12986320  1
  V  V39  1  0.75137319  0.62516653  0.37458309  1
  V  V40  1  0.49507914  0.23860789  0.73598970  1
  V  V41  1  0.37221371  0.74879680  0.12876328  1
  V  V42  1  0.62939817  0.12469151  0.49595090  1
  V  V43  1  0.62834074  0.24748723  0.37120409  1
  V  V44  1  0.13655262  0.87374030  0.74666782  1
  V  V45  1  0.74865086  0.87789951  0.62495770  1
  V  V46  1  -0.00319694  -0.00332007  0.00037362  1
  V  V47  1  0.37616977  0.00269761  0.37158007  1
  V  V48  1  0.49750457  0.00457584  0.50270633  1
  V  V49  1  0.87365063  0.12584918  0.25301818  1
  V  V50  1  0.87448664  -0.00251581  0.87664433  1
  V  V51  1  0.37215872  0.24716847  0.12971021  1
  V  V52  1  0.88030800  0.00159655  0.37723060  1
  V  V53  1  0.61792518  0.37689271  0.75024480  1
  V  V54  1  0.11150130  0.25225205  0.37330726  1
  V  V55  1  0.75025377  0.49951514  0.74907600  1
  V  V56  1  0.25137351  0.49779166  0.25273160  1
  V  V57  1  0.12573229  0.74924536  0.87531178  1
  V  V58  1  0.62103457  0.75927461  0.87130298  1
  V  V59  1  0.50012201  -0.00693745  -0.00779665  1
  V  V60  1  0.75509120  0.25539815  0.49921876  1
  V  V61  1  0.25111580  0.75700744  0.50359061  1
  V  V62  1  0.87818801  0.25193354  0.12768428  1
  V  V63  1  0.25194626  0.24788213  -0.00917116  1
  V  V64  1  0.50233597  0.37443944  0.37425882  1
  V  V65  1  -0.00205402  0.48927517  0.49702570  1
  V  V66  1  0.74944281  0.00184754  0.74859128  1
  V  V67  1  0.00172742  0.12874418  0.13019097  1
  V  V68  1  0.37546721  0.49657548  0.38152698  1
  V  V69  1  0.37120581  0.75764836  0.62411157  1
  V  V70  1  0.74971903  0.00127504  0.25450804  1
  V  V71  1  0.00478449  0.62123316  0.62329251  1
  V  V72  1  0.62372258  0.50124271  0.61941394  1
  V  V73  1  0.74985232  0.75092378  0.49856774  1
  V  V74  1  0.12770968  0.12609535  0.49913611  1
  V  V75  1  0.24085489  0.37463305  0.61749092  1
  V  V76  1  0.62580191  0.12539744  -0.00133730  1
  V  V77  1  0.00232590  0.75180137  0.25158908  1
  V  V78  1  0.87651019  0.75506090  0.12213778  1
  V  V79  1  0.87808492  0.48471045  0.37741505  1
  V  V80  1  0.87490516  0.12827990  0.74713480  1
  V  V81  1  0.49551110  0.12124340  0.12805536  1
  V  V82  1  0.88241112  0.88095324  0.49988061  1
  V  V83  1  0.62376026  0.62492527  0.49415862  1
  V  V84  1  0.11238646  0.37063356  0.25508063  1
  Zn  Zn85  1  0.61369604  0.49715442  0.11831590  1
  Zn  Zn86  1  0.74893100  0.25554280  -0.00463490  1
  Zn  Zn87  1  0.12541339  0.62192177  -0.00089714  1
  Zn  Zn88  1  0.24877899  0.37305732  0.12604385  1
  Zn  Zn89  1  0.62301839  0.87631953  0.25096433  1
  Zn  Zn90  1  0.87985325  0.36515715  -0.00811530  1
  Zn  Zn91  1  0.37016993  0.22512033  0.62594106  1
  Zn  Zn92  1  0.00435442  0.87944660  0.38017984  1
  Zn  Zn93  1  0.50250998  0.87830430  0.37248318  1
  Zn  Zn94  1  0.61390563  0.88381692  0.75381187  1
  Zn  Zn95  1  0.74984189  0.12749948  0.87531526  1
  Zn  Zn96  1  0.37495392  0.87736363  0.50138977  1
  Zn  Zn97  1  0.24860379  0.50126427  0.74566355  1
  Zn  Zn98  1  0.12573002  0.24989876  0.87489489  1
  Zn  Zn99  1  0.49381886  0.76154891  0.74979979  1
  Zn  Zn100  1  0.62338670  -0.00203709  0.12532333  1
  Zn  Zn101  1  0.62389255  0.75320751  0.37250626  1
  Zn  Zn102  1  0.75654124  0.38056709  0.61926615  1
  Zn  Zn103  1  0.88093953  0.25978096  0.61748331  1
  Zn  Zn104  1  0.49433574  0.61722273  0.11722885  1
  Zn  Zn105  1  0.43288952  0.54188658  0.93146055  1
  Zn  Zn106  1  0.61316475  0.61948516  -0.00315810  1
  Zn  Zn107  1  0.18769342  0.18742640  0.18826890  1
  Zn  Zn108  1  0.18723845  0.19719663  0.68336233  1
  Zn  Zn109  1  0.18801853  0.68479595  0.18801631  1
  Zn  Zn110  1  0.19016081  0.68669348  0.68903068  1
  Zn  Zn111  1  0.68623181  0.18435887  0.18772002  1
  Zn  Zn112  1  0.68563802  0.18871160  0.68399516  1
  Zn  Zn113  1  0.68204702  0.68077222  0.18533614  1
  Zn  Zn114  1  0.68749003  0.68932530  0.68642368  1
  Zn  Zn115  1  0.31079904  0.31406390  0.31184882  1
  Zn  Zn116  1  0.31345736  0.31331283  0.80780456  1
  Zn  Zn117  1  0.31355486  0.81655554  0.31426364  1
  Zn  Zn118  1  0.31690249  0.81126119  0.81712280  1
  Zn  Zn119  1  0.81205497  0.30821868  0.31084010  1
  Zn  Zn120  1  0.80336189  0.31175552  0.80741130  1
  Zn  Zn121  1  0.81305989  0.81512417  0.31322544  1
  Zn  Zn122  1  0.81048956  0.81604029  0.80987907  1
  Zn  Zn123  1  0.18725741  0.43357654  0.43991453  1
  Zn  Zn124  1  0.18956345  0.43558075  0.94334013  1
  Zn  Zn125  1  0.18774325  0.94121138  0.43567317  1
  Zn  Zn126  1  0.18752823  0.93767094  0.93298857  1
  Zn  Zn127  1  0.68660096  0.43736733  0.43345342  1
  Zn  Zn128  1  0.57706568  0.43952044  0.93497448  1
  Zn  Zn129  1  0.68889257  0.93558448  0.43584761  1
  Zn  Zn130  1  0.69195306  0.93771520  0.94127064  1
  Zn  Zn131  1  0.31287439  0.06380929  0.05994193  1
  Zn  Zn132  1  0.30922345  0.06253140  0.56086197  1
  Zn  Zn133  1  0.30826140  0.56632063  0.06773764  1
  Zn  Zn134  1  0.31307148  0.55783733  0.56341772  1
  Zn  Zn135  1  0.81250561  0.06423057  0.06496426  1
  Zn  Zn136  1  0.80932157  0.06610272  0.56024383  1
  Zn  Zn137  1  0.75986651  0.50731602  0.01429128  1
  Zn  Zn138  1  0.81468427  0.56198381  0.56059649  1
  Zn  Zn139  1  0.43166144  0.42857958  0.18633025  1
  Zn  Zn140  1  0.44148811  0.43914469  0.68783879  1
  Zn  Zn141  1  0.43567758  0.93008628  0.18327432  1
  Zn  Zn142  1  0.43495519  0.94356848  0.69041071  1
  Zn  Zn143  1  0.93340472  0.43884383  0.19002817  1
  Zn  Zn144  1  0.93873289  0.43627984  0.68409316  1
  Zn  Zn145  1  0.94086632  0.93842745  0.18988569  1
  Zn  Zn146  1  0.94051520  0.93783164  0.68890221  1
  Zn  Zn147  1  0.06269033  0.06298523  0.31245755  1
  Zn  Zn148  1  0.06124304  0.06192025  0.80934125  1
  Zn  Zn149  1  0.06353043  0.56178532  0.31603454  1
  Zn  Zn150  1  0.06268060  0.56367785  0.81458402  1
  Zn  Zn151  1  0.56321682  0.06445206  0.31203998  1
  Zn  Zn152  1  0.55870323  0.06423377  0.81324767  1
  Zn  Zn153  1  0.53705092  0.54111868  0.27458401  1
  Zn  Zn154  1  0.56470952  0.57218267  0.80461588  1
  Zn  Zn155  1  0.43831060  0.18350142  0.43986828  1
  Zn  Zn156  1  0.43910488  0.18988913  0.93738020  1
  Zn  Zn157  1  0.43746698  0.68755709  0.43558213  1
  Zn  Zn158  1  0.43836528  0.70080771  0.94018020  1
  Zn  Zn159  1  0.93791422  0.18333468  0.43654830  1
  Zn  Zn160  1  0.93835861  0.18291666  0.94002393  1
  Zn  Zn161  1  0.93786570  0.68698851  0.43726269  1
  Zn  Zn162  1  0.93704880  0.68385230  0.93877805  1
  Zn  Zn163  1  0.06521326  0.31248821  0.06477403  1
  Zn  Zn164  1  0.06444654  0.30555354  0.56374951  1
  Zn  Zn165  1  0.06426635  0.81466680  0.06290191  1
  Zn  Zn166  1  0.06517710  0.81033758  0.56436560  1
  Zn  Zn167  1  0.55866190  0.30825880  0.06284149  1
  Zn  Zn168  1  0.56405282  0.31337900  0.56054855  1
  Zn  Zn169  1  0.56457109  0.81029643  0.06406622  1
  Zn  Zn170  1  0.56034134  0.81702860  0.56183064  1
  O  O171  1  0.11784952  0.11705774  0.11951709  1
  O  O172  1  0.12172121  0.12168494  0.61739686  1
  O  O173  1  0.11162255  0.61902641  0.12698669  1
  O  O174  1  0.11659973  0.63042865  0.61583920  1
  O  O175  1  0.61395490  0.12464143  0.11559569  1
  O  O176  1  0.62945198  0.11265520  0.61420442  1
  O  O177  1  0.61706018  0.61962464  0.11692985  1
  O  O178  1  0.61923091  0.62222387  0.61744742  1
  O  O179  1  0.37910595  0.37530794  0.38618936  1
  O  O180  1  0.37133485  0.37169918  0.89216701  1
  O  O181  1  0.37377883  0.89154211  0.37872186  1
  O  O182  1  0.37071386  0.88446828  0.88965813  1
  O  O183  1  0.87412655  0.38578990  0.36987448  1
  O  O184  1  0.86914933  0.38658689  0.87006112  1
  O  O185  1  0.87865853  0.88192427  0.38348057  1
  O  O186  1  0.88159004  0.88986103  0.86715828  1
  O  O187  1  0.25520478  0.00892280  0.36728359  1
  O  O188  1  0.25253237  -0.00030600  0.86084528  1
  O  O189  1  0.25323277  0.50481175  0.37205453  1
  O  O190  1  0.24504266  0.51545153  0.87670528  1
  O  O191  1  0.76268492  -0.00593950  0.36226917  1
  O  O192  1  0.75922453  0.00296638  0.87025398  1
  O  O193  1  0.75976494  0.50394509  0.37056189  1
  O  O194  1  0.76292580  0.51411012  0.86765194  1
  O  O195  1  0.24094070  0.50248597  0.13796027  1
  O  O196  1  0.25516160  0.48206475  0.62821271  1
  O  O197  1  0.23960974  1.00873664  0.13251099  1
  O  O198  1  0.23735564  1.00354551  0.64094748  1
  O  O199  1  0.75227256  0.48232061  0.13427159  1
  O  O200  1  0.74123883  0.50558593  0.63089847  1
  O  O201  1  0.75417713  0.98917281  0.13115847  1
  O  O202  1  0.74242169  0.99717083  0.62879486  1
  O  O203  1  0.01327800  0.38115865  0.25039739  1
  O  O204  1  0.01557178  0.36746074  0.74014021  1
  O  O205  1  0.01340845  0.87029643  0.25142957  1
  O  O206  1  0.00843967  0.86920469  0.75633831  1
  O  O207  1  0.49409150  0.35792943  0.26143028  1
  O  O208  1  0.51388468  0.36691997  0.74069608  1
  O  O209  1  0.50312923  0.86687497  0.25009948  1
  O  O210  1  0.50152028  0.87392104  0.74773658  1
  O  O211  1  0.50164461  0.13285257  0.23831163  1
  O  O212  1  0.50480538  0.13963130  0.74742898  1
  O  O213  1  0.49277760  0.64465914  0.25231451  1
  O  O214  1  0.49331222  0.63692293  0.73792112  1
  O  O215  1  0.99104074  0.11620532  0.23703992  1
  O  O216  1  0.99419276  0.13309107  0.74328436  1
  O  O217  1  0.99761073  0.63047559  0.24438463  1
  O  O218  1  0.99762339  0.63000067  0.74151351  1
  O  O219  1  0.37102652  0.25794782  0.00668440  1
  O  O220  1  0.37790975  0.26034187  0.50350448  1
  O  O221  1  0.36553789  0.75964319  0.00507260  1
  O  O222  1  0.36678241  0.75030916  0.50611980  1
  O  O223  1  0.87107979  0.24655725  0.01019045  1
  O  O224  1  0.85831861  0.24058826  0.49596163  1
  O  O225  1  0.86714380  0.74413690  0.01124521  1
  O  O226  1  0.86997635  0.75807453  0.50477736  1
  O  O227  1  0.12350204  0.23922067  0.48648921  1
  O  O228  1  0.13261186  0.24346464  0.99907401  1
  O  O229  1  0.13248232  0.74154539  0.49627596  1
  O  O230  1  0.13104103  0.74903506  0.99514862  1
  O  O231  1  0.62954125  0.24222554  0.49222176  1
  O  O232  1  0.62258348  0.24251269  0.99105223  1
  O  O233  1  0.63184925  0.74182931  0.50106963  1
  O  O234  1  0.63555880  0.74782367  0.98837737  1
  O  O235  1  0.49339442  0.24231941  0.13247349  1
  O  O236  1  0.50074029  0.24986698  0.63270243  1
  O  O237  1  0.49109400  0.75136483  0.13394137  1
  O  O238  1  0.49066420  0.74187166  0.62192692  1
  O  O239  1  0.99339771  0.23694943  0.11854598  1
  O  O240  1  1.00006907  0.23842514  0.63478792  1
  O  O241  1  0.99626755  0.74556394  0.12896011  1
  O  O242  1  0.99532624  0.74117193  0.63022326  1
  O  O243  1  0.01269238  0.24518648  0.37417735  1
  O  O244  1  -0.00120312  0.24660624  0.86222683  1
  O  O245  1  0.00851880  0.75031169  0.36863314  1
  O  O246  1  0.00425691  0.75341013  0.87113643  1
  O  O247  1  0.50458534  0.25245816  0.36869378  1
  O  O248  1  0.51092657  0.24515157  0.86376677  1
  O  O249  1  0.49460599  0.75521170  0.36199129  1
  O  O250  1  0.51863710  0.74936054  0.87418999  1
  O  O251  1  0.23660474  0.11928092  0.48847272  1
  O  O252  1  0.23891445  0.13362936  1.00579537  1
  O  O253  1  0.24246604  0.62850670  0.49334657  1
  O  O254  1  0.24802121  0.63474975  0.99269806  1
  O  O255  1  0.73760575  0.13508035  0.49893860  1
  O  O256  1  0.73593919  0.12615611  1.00296746  1
  O  O257  1  0.74475662  0.63133623  0.49557391  1
  O  O258  1  0.75110200  0.63406848  0.98524032  1
  O  O259  1  0.25769527  0.36481912  0.00572493  1
  O  O260  1  0.25895831  0.37460949  0.51067359  1
  O  O261  1  0.25335666  0.86416384  -0.00477631  1
  O  O262  1  0.24843892  0.85995337  0.49433469  1
  O  O263  1  0.76264579  0.37453124  0.02407152  1
  O  O264  1  0.74305151  0.35950245  0.49923295  1
  O  O265  1  0.75055705  0.86261200  0.01054712  1
  O  O266  1  0.76040505  0.87046740  0.50597804  1
  O  O267  1  0.13067109  0.49159431  0.25050413  1
  O  O268  1  0.12181268  0.48678506  0.75116886  1
  O  O269  1  0.13148301  0.99525034  0.24309921  1
  O  O270  1  0.13572057  0.99432101  0.74760241  1
  O  O271  1  0.64509833  0.50290290  0.25763647  1
  O  O272  1  0.63109094  0.49636335  0.73975827  1
  O  O273  1  0.63726992  1.00265735  0.24638042  1
  O  O274  1  0.63042399  1.00439752  0.74176943  1
  O  O275  1  0.36315866  -0.00660429  0.25464733  1
  O  O276  1  0.35685124  -0.00214539  0.75716117  1
  O  O277  1  0.35804149  0.48647955  0.26391526  1
  O  O278  1  0.37576167  0.51635784  0.74439618  1
  O  O279  1  0.86969036  0.00522671  0.25518554  1
  O  O280  1  0.87208003  0.00952710  0.75589042  1
  O  O281  1  0.86888344  0.50665222  0.25870584  1
  O  O282  1  0.87325276  0.50696199  0.75463018  1
  O  O283  1  0.13047502  0.35828839  0.37283617  1
  O  O284  1  0.12862731  0.37362293  0.86275173  1
  O  O285  1  0.12346747  0.87063358  0.36751757  1
  O  O286  1  0.11824499  0.86920903  0.86607506  1
  O  O287  1  0.61081426  0.36400440  0.38286997  1
  O  O288  1  0.62588075  0.36324851  0.86237980  1
  O  O289  1  0.62313717  0.87055707  0.37043542  1
  O  O290  1  0.63551597  0.86230827  0.87464870  1
  O  O291  1  0.38624105  0.13517546  0.11461811  1
  O  O292  1  0.37693377  0.11564323  0.62607995  1
  O  O293  1  0.37589262  0.64286875  0.12042401  1
  O  O294  1  0.38235036  0.63043978  0.62787068  1
  O  O295  1  0.88290586  0.13080472  0.13110123  1
  O  O296  1  0.88403727  0.12376151  0.63248087  1
  O  O297  1  0.88877481  0.63774761  0.13475081  1
  O  O298  1  0.88367106  0.63200136  0.62858643  1
  O  O299  1  0.25880192  0.24707621  0.11799628  1
  O  O300  1  0.26171352  0.26984708  0.63542375  1
  O  O301  1  0.25378435  0.74408663  0.11431814  1
  O  O302  1  0.25889403  0.73997009  0.61332975  1
  O  O303  1  0.75631497  0.25830438  0.12797850  1
  O  O304  1  0.74809794  0.25047488  0.60795597  1
  O  O305  1  0.75779743  0.75409238  0.11999460  1
  O  O306  1  0.75637537  0.75661425  0.61976272  1
  O  O307  1  0.24706881  0.23578451  0.36935703  1
  O  O308  1  0.25092597  0.25204933  0.88772328  1
  O  O309  1  0.24823375  0.74104614  0.38145621  1
  O  O310  1  0.24547484  0.74127897  0.88462941  1
  O  O311  1  0.73788951  0.25562907  0.38339043  1
  O  O312  1  0.73633288  0.24587063  0.87574127  1
  O  O313  1  0.75058925  0.74259965  0.38026479  1
  O  O314  1  0.74991919  0.74631003  0.88124675  1
  O  O315  1  0.00883021  0.11495792  0.00933713  1
  O  O316  1  0.00948754  0.12804722  0.51185590  1
  O  O317  1  0.00011751  0.61571038  0.01015702  1
  O  O318  1  0.00914653  0.62371007  0.50670053  1
  O  O319  1  0.50806096  0.11762189  0.00685934  1
  O  O320  1  0.51228967  0.11320548  0.49551578  1
  O  O321  1  0.49432022  0.62000879  -0.00250863  1
  O  O322  1  0.51022519  0.63049265  0.50750690  1
  O  O323  1  0.48821190  0.37162670  0.48968896  1
  O  O324  1  0.48942222  0.37698911  1.00166995  1
  O  O325  1  0.49881222  0.89051594  0.49499478  1
  O  O326  1  0.49277479  0.88658839  1.00587819  1
  O  O327  1  1.00920562  0.39187206  0.50823170  1
  O  O328  1  0.99706337  0.38872480  1.00705757  1
  O  O329  1  0.98648072  0.87033802  0.50231372  1
  O  O330  1  1.00698133  0.88959600  0.99419869  1
  O  O331  1  0.48692167  0.48607334  0.36225041  1
  O  O332  1  0.50926962  0.49710806  0.86527483  1
  O  O333  1  0.49056776  1.00356719  0.37963382  1
  O  O334  1  0.48994168  1.00475617  0.88579622  1
  O  O335  1  0.99282315  0.50495905  0.38821414  1
  O  O336  1  0.98906243  0.50969526  0.88569551  1
  O  O337  1  0.98659579  0.99800181  0.37035768  1
  O  O338  1  0.99421998  0.99633578  0.88105089  1
  O  O339  1  0.00751057  0.00639712  0.11744175  1
  O  O340  1  0.01455005  0.01317555  0.63835182  1
  O  O341  1  -0.00023503  0.50812921  0.11973788  1
  O  O342  1  -0.00611925  0.51423193  0.61131602  1
  O  O343  1  0.49801837  0.00795113  0.11570826  1
  O  O344  1  0.51033815  -0.00422971  0.61494289  1
  O  O345  1  0.50684060  0.50742482  0.16311855  1
  O  O346  1  0.51259969  0.51507640  0.62988282  1
  O  O347  1  0.23811471  0.38321183  0.25038892  1
  O  O348  1  0.23787731  0.37872366  0.74506506  1
  O  O349  1  0.23711182  0.88624906  0.25537356  1
  O  O350  1  0.23725268  0.87087631  0.75367876  1
  O  O351  1  0.75691821  0.38081936  0.23899659  1
  O  O352  1  0.73526040  0.38210382  0.74447349  1
  O  O353  1  0.75097509  0.88278191  0.24014533  1
  O  O354  1  0.74811249  0.88524180  0.74131434  1
  O  O355  1  0.24347807  0.11321608  0.25913979  1
  O  O356  1  0.24143425  0.11973613  0.75349714  1
  O  O357  1  0.24129439  0.61355250  0.26389193  1
  O  O358  1  0.25767125  0.62315183  0.75804728  1
  O  O359  1  0.76195852  0.11222437  0.23926435  1
  O  O360  1  0.76036339  0.12099027  0.74757336  1
  O  O361  1  0.75718726  0.61811784  0.25414129  1
  O  O362  1  0.75668254  0.62215625  0.75498476  1
  O  O363  1  0.36563509  0.11351039  0.38078696  1
  O  O364  1  0.37314613  0.11146681  0.88420089  1
  O  O365  1  0.36320803  0.61331502  0.38366316  1
  O  O366  1  0.36977870  0.62946434  0.86785559  1
  O  O367  1  0.88050889  0.11668301  0.36245727  1
  O  O368  1  0.87571945  0.11532328  0.86437935  1
  O  O369  1  0.86986564  0.61991882  0.36973306  1
  O  O370  1  0.86946509  0.62279286  0.86611120  1
  O  O371  1  0.12695471  0.37938958  0.13638169  1
  O  O372  1  0.13787902  0.36898954  0.62928744  1
  O  O373  1  0.12106925  0.88812346  0.13336596  1
  O  O374  1  0.11658070  0.88519806  0.63508174  1
  O  O375  1  0.63617711  0.37039049  0.12524480  1
  O  O376  1  0.62672104  0.38841446  0.62663468  1
  O  O377  1  0.63933367  0.87649242  0.12632059  1
  O  O378  1  0.63317685  0.88800334  0.62235096  1
  O  O379  1  0.12836110  0.25482306  0.26322567  1
  O  O380  1  0.11768228  0.25926894  0.75371603  1
  O  O381  1  0.12424309  0.75832683  0.25375957  1
  O  O382  1  0.12017649  0.75588433  0.75353202  1
  O  O383  1  0.61507196  0.24291019  0.25980564  1
  O  O384  1  0.61770711  0.25626757  0.75165314  1
  O  O385  1  0.60994788  0.75037471  0.24894854  1
  O  O386  1  0.62980237  0.75427028  0.76318689  1
  O  O387  1  0.38170909  0.25223876  0.23877053  1
  O  O388  1  0.39308469  0.25916756  0.74701086  1
  O  O389  1  0.38217897  0.76277481  0.23913242  1
  O  O390  1  0.37128058  0.73960660  0.74118005  1
  O  O391  1  0.86997711  0.23568038  0.24201784  1
  O  O392  1  0.88002384  0.24001777  0.74952065  1
  O  O393  1  0.88169999  0.74600040  0.24380477  1
  O  O394  1  0.88089514  0.74699320  0.74395563  1
  O  O395  1  0.37002025  0.48712968  0.48714426  1
  O  O396  1  0.36673239  0.48485325  1.00696903  1
  O  O397  1  0.38129730  0.99849899  0.49173986  1
  O  O398  1  0.37864217  0.99452316  0.99453713  1
  O  O399  1  0.88847683  0.50458414  0.49184248  1
  O  O400  1  0.87741826  0.49602693  0.98749547  1
  O  O401  1  0.86662728  0.99258345  0.49027825  1
  O  O402  1  0.88619720  1.01062069  0.98993995  1
  O  O403  1  0.12111124  0.00577200  0.00619091  1
  O  O404  1  0.12885097  0.00781849  0.51112090  1
  O  O405  1  0.11451504  0.50002329  0.00843776  1
  O  O406  1  0.11315652  0.51144149  0.49133603  1
  O  O407  1  0.61692372  0.00662758  -0.00028571  1
  O  O408  1  0.62101175  0.00690135  0.50348155  1
  O  O409  1  0.64249121  0.50224124  0.00380859  1
  O  O410  1  0.63333291  0.51188336  0.50885447  1
  O  O411  1  0.37158320  0.36197849  0.11580247  1
  O  O412  1  0.37661775  0.37922729  0.60987898  1
  O  O413  1  0.37259486  0.86590690  0.10896660  1
  O  O414  1  0.37698031  0.86046489  0.62374017  1
  O  O415  1  0.87652159  0.35841443  0.13051277  1
  O  O416  1  0.86918738  0.37093580  0.62878582  1
  O  O417  1  0.86995004  0.86291882  0.13160766  1
  O  O418  1  0.87084547  0.87347971  0.61931627  1
  O  O419  1  0.12935584  0.13226584  0.37914917  1
  O  O420  1  0.11651098  0.12556467  0.88954756  1
  O  O421  1  0.13399132  0.63090367  0.38391789  1
  O  O422  1  0.13335587  0.63274241  0.87528718  1
  O  O423  1  0.62148093  0.13632808  0.38265529  1
  O  O424  1  0.62558676  0.13102718  0.88423035  1
  O  O425  1  0.63205927  0.62693231  0.38727771  1
  O  O426  1  0.63907808  0.63861433  0.87101878  1
