# generated using pymatgen
data_V85Zn86O256
_symmetry_space_group_name_H-M   'P 1'
_cell_length_a   16.95951457
_cell_length_b   16.95425804
_cell_length_c   16.96676573
_cell_angle_alpha   90.04022458
_cell_angle_beta   90.12188965
_cell_angle_gamma   89.96397428
_symmetry_Int_Tables_number   1
_chemical_formula_structural   V85Zn86O256
_chemical_formula_sum   'V85 Zn86 O256'
_cell_volume   4878.54251596
_cell_formula_units_Z   1
loop_
 _symmetry_equiv_pos_site_id
 _symmetry_equiv_pos_as_xyz
  1  'x, y, z'
loop_
 _atom_site_type_symbol
 _atom_site_label
 _atom_site_symmetry_multiplicity
 _atom_site_fract_x
 _atom_site_fract_y
 _atom_site_fract_z
 _atom_site_occupancy
  V  V0  1  0.12399452  0.63372654  0.49692751  1
  V  V1  1  0.38176658  0.87804639  0.00104634  1
  V  V2  1  -0.00209751  0.49600518  -0.00358566  1
  V  V3  1  0.50662667  0.12206032  0.11363778  1
  V  V4  1  0.24459363  0.63092389  0.37495651  1
  V  V5  1  0.86736343  0.50057418  0.37397659  1
  V  V6  1  0.37719539  0.87629466  0.50054443  1
  V  V7  1  0.25145443  -0.00046599  0.75181546  1
  V  V8  1  -0.00082648  0.62379478  0.12511497  1
  V  V9  1  0.62686443  0.61188637  0.01965516  1
  V  V10  1  0.62671343  0.87528823  0.24743523  1
  V  V11  1  0.48772612  0.50123606  0.01351441  1
  V  V12  1  0.49438804  0.62405754  0.62377478  1
  V  V13  1  0.86456844  0.24518649  0.12058661  1
  V  V14  1  0.74761950  0.88523116  0.62263903  1
  V  V15  1  0.37853189  0.62286405  0.24812035  1
  V  V16  1  0.37002770  0.62593466  0.76975428  1
  V  V17  1  0.75443328  0.00404283  0.76496708  1
  V  V18  1  0.87441594  0.86617822  -0.00012094  1
  V  V19  1  0.00513566  0.74830323  0.25419615  1
  V  V20  1  0.75315045  0.00240849  0.24701338  1
  V  V21  1  0.74595888  0.37417179  0.62858270  1
  V  V22  1  0.25219341  0.12776230  0.37814066  1
  V  V23  1  0.63486469  0.24774526  0.89969332  1
  V  V24  1  0.11919464  0.24695440  0.86839030  1
  V  V25  1  0.87552477  0.87092031  0.50516660  1
  V  V26  1  0.75244909  0.86753847  0.12263001  1
  V  V27  1  0.12607780  0.62532913  -0.00112361  1
  V  V28  1  0.63312707  0.74294067  0.88156501  1
  V  V29  1  0.13021884  0.37223993  0.74021625  1
  V  V30  1  0.12315150  0.12220870  0.00422499  1
  V  V31  1  -0.00200447  0.36844833  0.86615160  1
  V  V32  1  -0.00414878  0.24249583  0.24680620  1
  V  V33  1  -0.00193356  0.37322790  0.37109851  1
  V  V34  1  0.12800532  0.87048880  0.25543116  1
  V  V35  1  0.37449496  0.49837754  0.38912560  1
  V  V36  1  0.86508781  0.36883795  -0.00440588  1
  V  V37  1  0.50094778  0.88032082  0.37476808  1
  V  V38  1  0.25123360  0.00137086  0.24981809  1
  V  V39  1  0.37992472  0.00095373  0.87826904  1
  V  V40  1  0.25070206  0.12266044  0.87531839  1
  V  V41  1  0.11930438  0.37345338  0.24761155  1
  V  V42  1  0.00076224  0.49912400  0.50286034  1
  V  V43  1  0.12118591  0.49769554  0.12380081  1
  V  V44  1  0.87690183  0.12497796  0.76290778  1
  V  V45  1  -0.00566308  0.74757868  0.74580659  1
  V  V46  1  0.62665203  0.75039069  0.37611599  1
  V  V47  1  0.12582924  0.00168567  0.62455095  1
  V  V48  1  0.62902604  0.39137953  0.24686444  1
  V  V49  1  -0.00580031  0.87849834  0.87374334  1
  V  V50  1  0.75271095  0.74875133  0.50684843  1
  V  V51  1  0.12741743  0.12595306  0.50136099  1
  V  V52  1  0.25259391  0.87296463  0.62377702  1
  V  V53  1  0.61921611  0.62205006  0.50052118  1
  V  V54  1  0.74625250  0.50520975  0.75206294  1
  V  V55  1  0.25240479  0.74599596  -0.00474104  1
  V  V56  1  0.24824554  0.37464186  0.12120549  1
  V  V57  1  0.25399112  0.26658807  0.50277394  1
  V  V58  1  0.38134635  0.74502882  0.12461946  1
  V  V59  1  0.00055617  0.00173789  0.50117638  1
  V  V60  1  0.25163257  0.25464663  -0.00233156  1
  V  V61  1  0.37086996  0.26464683  0.62567555  1
  V  V62  1  0.87843127  0.24615614  0.62736128  1
  V  V63  1  0.50503421  0.87886048  0.87860008  1
  V  V64  1  0.49079891  0.38347075  0.87769597  1
  V  V65  1  0.87275021  0.37283613  0.50032767  1
  V  V66  1  -0.00356947  0.62825813  0.62691765  1
  V  V67  1  0.62135241  0.11917130  0.50571335  1
  V  V68  1  0.25162753  0.87636165  0.12586915  1
  V  V69  1  0.24834751  0.49936977  0.24819743  1
  V  V70  1  0.37543197  0.12625952  0.25071346  1
  V  V71  1  0.12519464  0.87507197  0.74938591  1
  V  V72  1  0.50264832  0.25251757  0.25065928  1
  V  V73  1  0.61988236  0.49650884  0.62262352  1
  V  V74  1  0.51259501  0.25743592  0.75046800  1
  V  V75  1  -0.00514941  -0.00150655  -0.00258074  1
  V  V76  1  0.12833094  0.74933535  0.87493111  1
  V  V77  1  0.87648335  0.00348511  0.37062791  1
  V  V78  1  0.00338275  0.87258556  0.37560409  1
  V  V79  1  0.37411242  0.25507822  0.12055180  1
  V  V80  1  0.50054097  0.74834460  0.24835403  1
  V  V81  1  0.62573170  0.88139371  0.74647631  1
  V  V82  1  0.74928542  0.12645984  0.37166865  1
  V  V83  1  0.87054567  0.62367903  0.25281919  1
  V  V84  1  0.49421827  0.37953011  0.38684770  1
  Zn  Zn85  1  0.24703818  0.75369889  0.49446797  1
  Zn  Zn86  1  0.73621219  0.38506866  0.11549641  1
  Zn  Zn87  1  0.87463300  0.62712189  0.74851256  1
  Zn  Zn88  1  0.37994071  0.00423562  0.37786958  1
  Zn  Zn89  1  0.49958129  0.12067998  0.63344324  1
  Zn  Zn90  1  0.74747830  0.62249214  0.37478258  1
  Zn  Zn91  1  0.25676610  0.50274116  0.75675028  1
  Zn  Zn92  1  0.75915353  0.63158334  0.88738059  1
  Zn  Zn93  1  0.13656605  0.49359666  0.61890983  1
  Zn  Zn94  1  0.74740446  0.24803868  0.50059594  1
  Zn  Zn95  1  0.62273489  0.00171935  0.11714240  1
  Zn  Zn96  1  0.37689263  0.74909891  0.62679075  1
  Zn  Zn97  1  -0.01239000  0.11758631  0.13125065  1
  Zn  Zn98  1  0.50285486  0.75031256  0.75028753  1
  Zn  Zn99  1  0.87886740  0.50124513  0.86908184  1
  Zn  Zn100  1  0.12383510  0.25108556  0.37533186  1
  Zn  Zn101  1  0.00069700  0.12780647  0.63035036  1
  Zn  Zn102  1  0.12283682  -0.00159013  0.12624231  1
  Zn  Zn103  1  0.37718568  0.12792909  0.74739373  1
  Zn  Zn104  1  0.62639684  0.25351092  0.37557381  1
  Zn  Zn105  1  0.87316677  0.74486636  0.12278588  1
  Zn  Zn106  1  0.50888415  -0.00664586  0.51901546  1
  Zn  Zn107  1  0.18543952  0.18847573  0.18812157  1
  Zn  Zn108  1  0.19278777  0.18805559  0.68577123  1
  Zn  Zn109  1  0.18987137  0.68773450  0.18436644  1
  Zn  Zn110  1  0.18533644  0.68386014  0.68507726  1
  Zn  Zn111  1  0.68687085  0.19184504  0.18582125  1
  Zn  Zn112  1  0.69186294  0.18546538  0.68970391  1
  Zn  Zn113  1  0.68802491  0.68624672  0.18975565  1
  Zn  Zn114  1  0.68433003  0.69083965  0.68728768  1
  Zn  Zn115  1  0.31273618  0.31343474  0.31131087  1
  Zn  Zn116  1  0.31385584  0.31317085  0.81180293  1
  Zn  Zn117  1  0.31562474  0.81288555  0.31283212  1
  Zn  Zn118  1  0.31671703  0.80965039  0.80993636  1
  Zn  Zn119  1  0.81443933  0.31077139  0.30801082  1
  Zn  Zn120  1  0.80809384  0.31112234  0.81054079  1
  Zn  Zn121  1  0.81515872  0.81105626  0.31443405  1
  Zn  Zn122  1  0.81201462  0.81421517  0.81075364  1
  Zn  Zn123  1  0.18406096  0.44320108  0.43129249  1
  Zn  Zn124  1  0.18863687  0.43622703  0.93016616  1
  Zn  Zn125  1  0.18985649  0.94120515  0.43663017  1
  Zn  Zn126  1  0.18850317  0.93508735  0.93895363  1
  Zn  Zn127  1  0.68348543  0.43453525  0.43806192  1
  Zn  Zn128  1  0.67399230  0.43347435  0.93005802  1
  Zn  Zn129  1  0.68857848  0.93862447  0.43540389  1
  Zn  Zn130  1  0.69324965  0.93510167  0.93665411  1
  Zn  Zn131  1  0.31466543  0.06527273  0.06351103  1
  Zn  Zn132  1  0.31942524  0.06651116  0.56465986  1
  Zn  Zn133  1  0.31132012  0.56138058  0.06034799  1
  Zn  Zn134  1  0.30601988  0.55911907  0.56926931  1
  Zn  Zn135  1  0.80869832  0.05580689  0.05534973  1
  Zn  Zn136  1  0.81103251  0.06313245  0.56130212  1
  Zn  Zn137  1  0.80704564  0.55701604  0.06600482  1
  Zn  Zn138  1  0.81151918  0.56178373  0.56373387  1
  Zn  Zn139  1  0.43677315  0.43573886  0.19297434  1
  Zn  Zn140  1  0.43551023  0.44280295  0.69346897  1
  Zn  Zn141  1  0.43857561  0.94025865  0.18748170  1
  Zn  Zn142  1  0.43975975  0.94016133  0.69033027  1
  Zn  Zn143  1  0.90207979  0.44797640  0.17311600  1
  Zn  Zn144  1  0.93541350  0.43694532  0.68762849  1
  Zn  Zn145  1  0.93852000  0.93502274  0.18531555  1
  Zn  Zn146  1  0.93615558  0.94004318  0.68737784  1
  Zn  Zn147  1  0.06609038  0.06102111  0.31425202  1
  Zn  Zn148  1  0.06130533  0.06237140  0.81217974  1
  Zn  Zn149  1  0.05911290  0.56016263  0.31371127  1
  Zn  Zn150  1  0.09304755  0.54715175  0.82332626  1
  Zn  Zn151  1  0.56747474  0.06512110  0.30835918  1
  Zn  Zn152  1  0.56547563  0.06956262  0.81676896  1
  Zn  Zn153  1  0.55918796  0.56187960  0.31698539  1
  Zn  Zn154  1  0.55969405  0.56129458  0.80668507  1
  Zn  Zn155  1  0.43700858  0.19294570  0.44168446  1
  Zn  Zn156  1  0.44148351  0.19074087  0.93273909  1
  Zn  Zn157  1  0.43494249  0.68954896  0.43588423  1
  Zn  Zn158  1  0.45053487  0.68881690  0.94220889  1
  Zn  Zn159  1  0.93644544  0.18745195  0.43910762  1
  Zn  Zn160  1  0.93562520  0.18603102  0.94012668  1
  Zn  Zn161  1  0.93874530  0.68772797  0.43673337  1
  Zn  Zn162  1  0.94050457  0.68597487  0.93184304  1
  Zn  Zn163  1  0.05551380  0.30892398  0.06187032  1
  Zn  Zn164  1  0.05982920  0.30656976  0.55797639  1
  Zn  Zn165  1  0.06262197  0.81220789  0.06607892  1
  Zn  Zn166  1  0.06230343  0.81300930  0.56376860  1
  Zn  Zn167  1  0.55914198  0.32008880  0.06185478  1
  Zn  Zn168  1  0.56388196  0.30500499  0.56326749  1
  Zn  Zn169  1  0.56787621  0.80759355  0.06150387  1
  Zn  Zn170  1  0.56397775  0.80929306  0.56377975  1
  O  O171  1  0.12458354  0.12363132  0.11162579  1
  O  O172  1  0.12467186  0.11947344  0.62033669  1
  O  O173  1  0.11980374  0.61810990  0.11920483  1
  O  O174  1  0.11457431  0.62165855  0.61406628  1
  O  O175  1  0.60918192  0.12757900  0.13084890  1
  O  O176  1  0.62711261  0.13097025  0.60787242  1
  O  O177  1  0.62537561  0.62433620  0.11847098  1
  O  O178  1  0.61682717  0.61945267  0.61843744  1
  O  O179  1  0.38522538  0.38422058  0.36694955  1
  O  O180  1  0.38953908  0.37059182  0.87516039  1
  O  O181  1  0.38437555  0.87587658  0.38190197  1
  O  O182  1  0.38450346  0.87963294  0.88208319  1
  O  O183  1  0.87872814  0.38160742  0.37864561  1
  O  O184  1  0.88206508  0.37329891  0.87914881  1
  O  O185  1  0.88101712  0.88367769  0.38409165  1
  O  O186  1  0.88688210  0.86906287  0.88254666  1
  O  O187  1  0.25390881  0.01254262  0.36963134  1
  O  O188  1  0.25815814  0.00148246  0.87199537  1
  O  O189  1  0.25623898  0.50823193  0.36686001  1
  O  O190  1  0.20357093  0.51622697  0.85654126  1
  O  O191  1  0.75783973  0.00377083  0.36598196  1
  O  O192  1  0.76158280  -0.00796512  0.86252823  1
  O  O193  1  0.76390084  0.50113064  0.38292845  1
  O  O194  1  0.74203435  0.49947708  0.85674036  1
  O  O195  1  0.24300129  0.49448782  0.12743846  1
  O  O196  1  0.24545492  0.50404999  0.64190857  1
  O  O197  1  0.25115332  0.99412305  0.13137357  1
  O  O198  1  0.24704849  0.99144372  0.63005234  1
  O  O199  1  0.79217107  0.47854490  0.14194877  1
  O  O200  1  0.74251852  0.49410295  0.62997898  1
  O  O201  1  0.75391207  0.98841919  0.13669407  1
  O  O202  1  0.74864148  0.98825922  0.62753773  1
  O  O203  1  0.00295329  0.36357662  0.25389940  1
  O  O204  1  -0.00056913  0.37052267  0.76148249  1
  O  O205  1  0.00862702  0.86798365  0.25393230  1
  O  O206  1  0.00415888  0.87040642  0.75471816  1
  O  O207  1  0.50846251  0.36897216  0.25532606  1
  O  O208  1  0.49586537  0.36492381  0.75953534  1
  O  O209  1  0.50510126  0.86923902  0.25542071  1
  O  O210  1  0.51076246  0.87559790  0.76105963  1
  O  O211  1  0.49437856  0.13570780  0.24668769  1
  O  O212  1  0.49720306  0.14324551  0.75405406  1
  O  O213  1  0.48570632  0.63143673  0.25930750  1
  O  O214  1  0.48964324  0.62746415  0.74135613  1
  O  O215  1  1.00535623  0.13593974  0.25058023  1
  O  O216  1  0.98204217  0.11540839  0.74785867  1
  O  O217  1  0.99632851  0.63210717  0.24682904  1
  O  O218  1  1.00602910  0.63349468  0.74076040  1
  O  O219  1  0.36141699  0.24286813  0.00788088  1
  O  O220  1  0.36793209  0.25008097  0.51403931  1
  O  O221  1  0.37221194  0.75587184  0.00583632  1
  O  O222  1  0.37261635  0.76471796  0.50190450  1
  O  O223  1  0.87610930  0.25668196  0.00713040  1
  O  O224  1  0.86975851  0.25507295  0.50797760  1
  O  O225  1  0.88541839  0.76142720  0.00262983  1
  O  O226  1  0.86669103  0.76122416  0.49210672  1
  O  O227  1  0.13516178  0.24335229  0.49743542  1
  O  O228  1  0.13119400  0.24073385  0.99208950  1
  O  O229  1  0.12415274  0.73832290  0.49949227  1
  O  O230  1  0.13344246  0.74913546  0.99540101  1
  O  O231  1  0.62849350  0.23807033  0.49274233  1
  O  O232  1  0.62779255  0.25389192  1.00089287  1
  O  O233  1  0.63370914  0.74286897  0.49569008  1
  O  O234  1  0.61973814  0.73268158  0.98867378  1
  O  O235  1  0.49128647  0.24529712  0.13170535  1
  O  O236  1  0.49100407  0.25118629  0.63612713  1
  O  O237  1  0.48845469  0.75432959  0.12996997  1
  O  O238  1  0.50197300  0.73843291  0.62876865  1
  O  O239  1  0.99246098  0.24038716  0.13034564  1
  O  O240  1  0.98321531  0.24849956  0.62269504  1
  O  O241  1  1.00065720  0.74286459  0.13650583  1
  O  O242  1  1.00691434  0.74288098  0.63538545  1
  O  O243  1  -0.00282005  0.25509210  0.36649668  1
  O  O244  1  0.01062177  0.25492151  0.88283933  1
  O  O245  1  -0.00187683  0.75604830  0.36339862  1
  O  O246  1  0.00911556  0.76145266  0.86751697  1
  O  O247  1  0.49291395  0.26334962  0.36454554  1
  O  O248  1  0.50286207  0.25945180  0.86501034  1
  O  O249  1  0.50519436  0.76037709  0.36910204  1
  O  O250  1  0.51376236  0.76269532  0.87419760  1
  O  O251  1  0.24726872  0.12980293  0.49245121  1
  O  O252  1  0.24156332  0.13163043  0.99547504  1
  O  O253  1  0.24037615  0.62646879  0.49216580  1
  O  O254  1  0.24374155  0.63946917  1.00556958  1
  O  O255  1  0.73988810  0.12274218  0.48928290  1
  O  O256  1  0.71175305  0.08389760  0.99899158  1
  O  O257  1  0.74201799  0.63422906  0.50214697  1
  O  O258  1  0.73337538  0.61423722  0.99963575  1
  O  O259  1  0.23945144  0.36276759  0.00303253  1
  O  O260  1  0.24327881  0.36504497  0.49229440  1
  O  O261  1  0.26092395  0.86577474  0.00456525  1
  O  O262  1  0.25752841  0.87648525  0.50607657  1
  O  O263  1  0.76290915  0.38677039  -0.00436539  1
  O  O264  1  0.75571293  0.37472007  0.50930776  1
  O  O265  1  0.76340186  0.88114125  0.01026247  1
  O  O266  1  0.75511633  0.87031812  0.50464343  1
  O  O267  1  0.12742261  0.49458372  0.24278234  1
  O  O268  1  0.10554138  0.47501162  0.73472298  1
  O  O269  1  0.13205691  0.99006956  0.24792970  1
  O  O270  1  0.13089608  0.99425316  0.74568329  1
  O  O271  1  0.62132398  0.49114172  0.25381973  1
  O  O272  1  0.63675661  0.50545361  0.73538054  1
  O  O273  1  0.63637646  0.99242402  0.24632614  1
  O  O274  1  0.63921468  0.99034920  0.76261890  1
  O  O275  1  0.36914180  0.00788605  0.25269575  1
  O  O276  1  0.36927206  -0.00101809  0.76487853  1
  O  O277  1  0.36810022  0.50858250  0.25413199  1
  O  O278  1  0.37563809  0.52032874  0.75349565  1
  O  O279  1  0.86859979  -0.00816081  0.26116678  1
  O  O280  1  0.86307160  0.01017295  0.74369916  1
  O  O281  1  0.89200057  0.51314887  0.26673831  1
  O  O282  1  0.86109804  0.50216809  0.74902624  1
  O  O283  1  0.11563120  0.37469073  0.36582159  1
  O  O284  1  0.11507276  0.36291520  0.86478095  1
  O  O285  1  0.12117703  0.88069121  0.36360245  1
  O  O286  1  0.11745423  0.86744944  0.87058918  1
  O  O287  1  0.60958234  0.37630453  0.36790108  1
  O  O288  1  0.60584938  0.35808822  0.87901887  1
  O  O289  1  0.61899073  0.87001703  0.36918506  1
  O  O290  1  0.62158309  0.86834232  0.87440572  1
  O  O291  1  0.38228224  0.13536290  0.13066949  1
  O  O292  1  0.37978461  0.13782462  0.62846259  1
  O  O293  1  0.36692934  0.63504065  0.13640477  1
  O  O294  1  0.38742320  0.62713233  0.61883495  1
  O  O295  1  0.86975941  0.13891822  0.10990776  1
  O  O296  1  0.87346488  0.13250136  0.62832401  1
  O  O297  1  0.88214336  0.62527657  0.13466968  1
  O  O298  1  0.89167684  0.62129736  0.62443174  1
  O  O299  1  0.25457712  0.25348413  0.11704203  1
  O  O300  1  0.26199508  0.25028737  0.61784246  1
  O  O301  1  0.26093878  0.75623983  0.11680194  1
  O  O302  1  0.24843717  0.76511683  0.62215710  1
  O  O303  1  0.76271818  0.25942223  0.13093013  1
  O  O304  1  0.75661799  0.25939678  0.62499945  1
  O  O305  1  0.75213417  0.76372112  0.13096152  1
  O  O306  1  0.74577318  0.76165027  0.61308884  1
  O  O307  1  0.25223034  0.24206431  0.38252034  1
  O  O308  1  0.24227569  0.24420209  0.88193166  1
  O  O309  1  0.25546288  0.73536246  0.37398890  1
  O  O310  1  0.24080490  0.76117829  0.88519781  1
  O  O311  1  0.75334975  0.23619741  0.37330306  1
  O  O312  1  0.73239864  0.25919905  0.87421595  1
  O  O313  1  0.74387863  0.75087134  0.38688779  1
  O  O314  1  0.73737847  0.75258695  0.87468456  1
  O  O315  1  0.00810461  0.11343207  -0.00378780  1
  O  O316  1  0.00870926  0.11883613  0.50100637  1
  O  O317  1  0.00495168  0.61624382  0.00426583  1
  O  O318  1  0.00545059  0.61918164  0.50401632  1
  O  O319  1  0.49519478  0.13206190  0.01555001  1
  O  O320  1  0.51424934  0.12407230  0.49435791  1
  O  O321  1  0.51560390  0.61132697  -0.00476515  1
  O  O322  1  0.51180347  0.63272344  0.50559072  1
  O  O323  1  0.50125115  0.36716148  0.48433130  1
  O  O324  1  0.49849972  0.39076744  0.99175835  1
  O  O325  1  0.49664517  0.87436277  0.49185892  1
  O  O326  1  0.49170063  0.86984759  0.99350342  1
  O  O327  1  0.99427290  0.38090469  0.49373463  1
  O  O328  1  0.99503275  0.37965931  0.98903493  1
  O  O329  1  0.99393666  0.87911265  0.49622664  1
  O  O330  1  0.99689302  0.87960894  0.99361714  1
  O  O331  1  0.48961125  0.48806223  0.37412117  1
  O  O332  1  0.50726793  0.48584738  0.87396784  1
  O  O333  1  0.50222218  0.98617387  0.37023657  1
  O  O334  1  0.49291366  0.99049650  0.87239248  1
  O  O335  1  0.99297683  0.49458711  0.38692362  1
  O  O336  1  1.00514427  0.48821056  0.88311572  1
  O  O337  1  0.99401350  0.99425945  0.37981116  1
  O  O338  1  1.00771345  0.98652713  0.88296882  1
  O  O339  1  0.00248354  0.00173422  0.11503618  1
  O  O340  1  0.00803314  -0.00015506  0.61793870  1
  O  O341  1  0.00113327  0.50279402  0.11470723  1
  O  O342  1  -0.00086355  0.50355218  0.61160580  1
  O  O343  1  0.50071085  0.01642197  0.12762591  1
  O  O344  1  0.50371334  0.00673016  0.63043251  1
  O  O345  1  0.49227526  0.49540782  0.11307886  1
  O  O346  1  0.51072928  0.50889928  0.63107442  1
  O  O347  1  0.24132137  0.37930486  0.24295625  1
  O  O348  1  0.23181277  0.37597559  0.75810757  1
  O  O349  1  0.24580265  0.87876856  0.24742235  1
  O  O350  1  0.24641926  0.87931650  0.74278622  1
  O  O351  1  0.72832835  0.37014528  0.26062075  1
  O  O352  1  0.75407437  0.38808860  0.73594418  1
  O  O353  1  0.74676801  0.88053453  0.24499761  1
  O  O354  1  0.74813605  0.88503352  0.74225728  1
  O  O355  1  0.25420879  0.12389909  0.25787962  1
  O  O356  1  0.25139151  0.11679981  0.75881703  1
  O  O357  1  0.25632968  0.62029056  0.25560770  1
  O  O358  1  0.26812537  0.63732966  0.74939917  1
  O  O359  1  0.74380093  0.11278700  0.25714795  1
  O  O360  1  0.75546866  0.10968991  0.74838290  1
  O  O361  1  0.76636403  0.63312512  0.25473373  1
  O  O362  1  0.75235891  0.61407670  0.74337499  1
  O  O363  1  0.36761074  0.12674233  0.37124119  1
  O  O364  1  0.37008332  0.11427479  0.87819313  1
  O  O365  1  0.36712513  0.61823832  0.36807627  1
  O  O366  1  0.38044427  0.63621388  0.86803711  1
  O  O367  1  0.86577894  0.11108724  0.38336858  1
  O  O368  1  0.87429378  0.12894624  0.86197586  1
  O  O369  1  0.87452516  0.61755878  0.37069108  1
  O  O370  1  0.87191601  0.62013236  0.86952359  1
  O  O371  1  0.12739758  0.37859159  0.12733749  1
  O  O372  1  0.12092374  0.35928645  0.63891038  1
  O  O373  1  0.13307125  0.87554317  0.13607269  1
  O  O374  1  0.13357831  0.88160000  0.62840099  1
  O  O375  1  0.62359581  0.37317163  0.14167482  1
  O  O376  1  0.63340841  0.38508638  0.61344577  1
  O  O377  1  0.63328464  0.87847364  0.12635894  1
  O  O378  1  0.63246043  0.87061177  0.63746511  1
  O  O379  1  0.11582331  0.25604253  0.25069250  1
  O  O380  1  0.12874764  0.25258810  0.76131650  1
  O  O381  1  0.11900553  0.75876054  0.24575086  1
  O  O382  1  0.11947635  0.75604023  0.75736818  1
  O  O383  1  0.61207204  0.25478033  0.25438282  1
  O  O384  1  0.61236297  0.25222056  0.74246023  1
  O  O385  1  0.62000174  0.75477098  0.25527421  1
  O  O386  1  0.62706727  0.76361262  0.76164150  1
  O  O387  1  0.38093217  0.24629969  0.24067803  1
  O  O388  1  0.37731385  0.24971533  0.73860548  1
  O  O389  1  0.37888723  0.74346604  0.24232554  1
  O  O390  1  0.38294179  0.74227284  0.74607668  1
  O  O391  1  0.88367150  0.25547193  0.23238048  1
  O  O392  1  0.86325764  0.23282458  0.74189700  1
  O  O393  1  0.88730590  0.74236461  0.25050479  1
  O  O394  1  0.89022194  0.74956557  0.75483057  1
  O  O395  1  0.36703129  0.50363763  0.48732385  1
  O  O396  1  0.38902730  0.51389169  0.99469719  1
  O  O397  1  0.38040895  0.98740006  0.49827338  1
  O  O398  1  0.36885004  0.98818133  0.99129661  1
  O  O399  1  0.88272228  0.49504243  0.49384068  1
  O  O400  1  0.88772060  0.49138101  0.99411073  1
  O  O401  1  0.87922633  0.99073964  0.49152846  1
  O  O402  1  0.88849089  0.98815314  1.00201767  1
  O  O403  1  0.11832991  0.00580766  0.00086868  1
  O  O404  1  0.12103948  0.00553779  0.50497707  1
  O  O405  1  0.11528938  0.50371422  0.00558486  1
  O  O406  1  0.11492009  0.50648099  0.50057072  1
  O  O407  1  0.65452014  0.02374017  0.00284285  1
  O  O408  1  0.62477586  0.01334880  0.49358093  1
  O  O409  1  0.61661814  0.50769628  0.00193172  1
  O  O410  1  0.63157661  0.51322367  0.50866979  1
  O  O411  1  0.36605206  0.36190784  0.13119375  1
  O  O412  1  0.37928174  0.36396577  0.62942099  1
  O  O413  1  0.37302126  0.86762846  0.11867598  1
  O  O414  1  0.36781182  0.87545495  0.61908608  1
  O  O415  1  0.88642476  0.35558366  0.10752176  1
  O  O416  1  0.86706095  0.36773333  0.62017828  1
  O  O417  1  0.86999264  0.87022596  0.11812694  1
  O  O418  1  0.86705161  0.88007957  0.61197719  1
  O  O419  1  0.13726966  0.12657825  0.38124733  1
  O  O420  1  0.12900025  0.12892389  0.88248542  1
  O  O421  1  0.13391459  0.61640178  0.38302396  1
  O  O422  1  0.11203699  0.64542321  0.88333137  1
  O  O423  1  0.63523590  0.12690209  0.38019372  1
  O  O424  1  0.61515625  0.14948857  0.87750002  1
  O  O425  1  0.62587381  0.63026585  0.38342952  1
  O  O426  1  0.62700998  0.63939015  0.86704598  1
