# generated using pymatgen
data_V85Zn86O256
_symmetry_space_group_name_H-M   'P 1'
_cell_length_a   16.95736190
_cell_length_b   16.96518535
_cell_length_c   16.94651371
_cell_angle_alpha   89.88126388
_cell_angle_beta   89.78107212
_cell_angle_gamma   89.97970687
_symmetry_Int_Tables_number   1
_chemical_formula_structural   V85Zn86O256
_chemical_formula_sum   'V85 Zn86 O256'
_cell_volume   4875.20784826
_cell_formula_units_Z   1
loop_
 _symmetry_equiv_pos_site_id
 _symmetry_equiv_pos_as_xyz
  1  'x, y, z'
loop_
 _atom_site_type_symbol
 _atom_site_label
 _atom_site_symmetry_multiplicity
 _atom_site_fract_x
 _atom_site_fract_y
 _atom_site_fract_z
 _atom_site_occupancy
  V  V0  1  -0.00099351  0.62541324  0.62717413  1
  V  V1  1  0.37509390  0.24986994  0.62505479  1
  V  V2  1  0.11880964  0.87598573  0.25742896  1
  V  V3  1  0.62321873  0.74166228  0.88018334  1
  V  V4  1  0.37526830  0.37447728  0.49873335  1
  V  V5  1  0.37276737  0.62375137  0.24728302  1
  V  V6  1  0.86569967  0.62918529  0.25586260  1
  V  V7  1  0.62747767  0.62309101  0.49440112  1
  V  V8  1  -0.00339702  0.49079487  0.50277862  1
  V  V9  1  0.50531692  0.12364471  0.11569206  1
  V  V10  1  0.49805413  -0.00634980  -0.00185170  1
  V  V11  1  0.37339946  0.49913713  0.37206518  1
  V  V12  1  0.00169858  0.11847911  0.62794278  1
  V  V13  1  0.37271845  0.75398061  0.11250340  1
  V  V14  1  0.50299821  0.12367101  0.62113149  1
  V  V15  1  0.37802380  0.75039632  0.62060789  1
  V  V16  1  0.86440012  0.49739829  0.38356113  1
  V  V17  1  0.50145408  0.74427643  0.74254736  1
  V  V18  1  -0.00670944  -0.00475334  0.00588651  1
  V  V19  1  0.49065363  0.87660303  0.37445288  1
  V  V20  1  0.12286506  0.37727320  0.75206896  1
  V  V21  1  0.87181785  0.12844795  0.74905265  1
  V  V22  1  0.12771336  0.12013397  0.51091270  1
  V  V23  1  0.00672045  0.75040618  0.75356105  1
  V  V24  1  0.00212872  0.87676828  0.87381381  1
  V  V25  1  0.12233289  0.63709918  0.00691215  1
  V  V26  1  0.63398410  0.37616161  0.24409673  1
  V  V27  1  0.49498820  0.49156976  0.00196736  1
  V  V28  1  0.00473614  0.49913307  0.00751894  1
  V  V29  1  0.50123725  0.75233477  0.24957557  1
  V  V30  1  0.12300998  0.00534331  0.12659208  1
  V  V31  1  0.87377152  0.26230129  0.12208199  1
  V  V32  1  0.24937986  0.50003715  0.75035535  1
  V  V33  1  0.62487546  -0.00210738  0.62147514  1
  V  V34  1  0.74325885  0.49239650  0.75220540  1
  V  V35  1  0.75029405  0.87361531  0.62445444  1
  V  V36  1  0.87195413  0.50131688  0.88212747  1
  V  V37  1  0.12756454  0.38091650  0.25036433  1
  V  V38  1  0.75004890  0.74431204  0.49431703  1
  V  V39  1  0.74694644  -0.00019137  0.26583431  1
  V  V40  1  0.62212693  0.87339444  0.74999101  1
  V  V41  1  0.37666537  0.62428537  0.74522500  1
  V  V42  1  0.50088963  0.62405435  0.11577943  1
  V  V43  1  0.12506772  0.62388832  0.50145319  1
  V  V44  1  0.37455158  0.49375844  0.87942089  1
  V  V45  1  -0.00634257  0.37868089  0.87633283  1
  V  V46  1  0.25343846  0.12376556  0.37667500  1
  V  V47  1  0.00410531  -0.00603941  0.49899537  1
  V  V48  1  0.37897251  -0.00702502  0.87513082  1
  V  V49  1  0.25143717  0.24882223  0.50320000  1
  V  V50  1  -0.00056334  0.25077000  0.25269868  1
  V  V51  1  0.62157246  0.49882759  0.62760117  1
  V  V52  1  0.36812551  0.25198969  0.11147648  1
  V  V53  1  0.24300470  0.63277326  0.87566862  1
  V  V54  1  0.25417937  -0.00042557  0.25525521  1
  V  V55  1  0.75543324  0.25275511  0.49684610  1
  V  V56  1  0.00050131  0.12520609  0.12587669  1
  V  V57  1  0.25124686  0.87577712  0.12081297  1
  V  V58  1  0.11954545  0.75454929  0.37915537  1
  V  V59  1  0.25528425  0.75277005  0.49810397  1
  V  V60  1  0.87427535  0.75037253  0.63150625  1
  V  V61  1  0.74676559  0.12646768  0.88531785  1
  V  V62  1  0.50901206  0.25641965  0.75046585  1
  V  V63  1  0.00171978  0.74646302  0.25245429  1
  V  V64  1  0.74966037  0.26404872  0.00484540  1
  V  V65  1  0.49835135  0.50552443  0.50475674  1
  V  V66  1  0.37622870  0.12196311  0.25355434  1
  V  V67  1  0.48955615  -0.00376152  0.49166352  1
  V  V68  1  -0.00424830  0.25349891  0.75093404  1
  V  V69  1  0.50021730  0.25132975  0.24722192  1
  V  V70  1  0.63791138  -0.00333049  0.11454326  1
  V  V71  1  0.75249777  0.37457593  0.62177400  1
  V  V72  1  0.24889396  0.37900114  0.11167618  1
  V  V73  1  0.63680571  0.50280718  0.11897788  1
  V  V74  1  0.12577112  0.24937195  0.37682743  1
  V  V75  1  0.63161571  0.24574968  0.37058105  1
  V  V76  1  0.87955413  0.00067541  0.37958428  1
  V  V77  1  0.63229962  0.12231315  0.49237619  1
  V  V78  1  0.24916543  -0.00124725  0.74602935  1
  V  V79  1  0.87679060  0.00253036  0.87761223  1
  V  V80  1  0.37699465  0.12274614  0.74972852  1
  V  V81  1  0.74098243  0.62180903  0.88204827  1
  V  V82  1  0.24963002  0.87590554  0.62269359  1
  V  V83  1  0.24929772  0.37354709  0.62682637  1
  V  V84  1  0.12724499  0.87794088  0.75311239  1
  Zn  Zn85  1  0.00907964  0.61381737  0.13976681  1
  Zn  Zn86  1  0.23827967  0.76728028  -0.01040771  1
  Zn  Zn87  1  0.75019685  0.76613445  0.00719647  1
  Zn  Zn88  1  0.62561377  0.25258114  0.88214197  1
  Zn  Zn89  1  0.12364460  0.50012842  0.62496557  1
  Zn  Zn90  1  0.88544056  0.86929147  0.49580108  1
  Zn  Zn91  1  0.87713662  0.25620948  0.61544891  1
  Zn  Zn92  1  0.50462121  0.37585130  0.87463013  1
  Zn  Zn93  1  0.74802100  0.50423524  0.25285522  1
  Zn  Zn94  1  0.24248512  0.50213783  0.24420098  1
  Zn  Zn95  1  0.24900205  0.62514888  0.37190811  1
  Zn  Zn96  1  0.63551860  0.86790948  0.24545546  1
  Zn  Zn97  1  0.86524062  0.12977292  0.25683657  1
  Zn  Zn98  1  0.87086161  0.62493954  0.75207248  1
  Zn  Zn99  1  0.74808282  0.00388122  0.74935296  1
  Zn  Zn100  1  0.50076631  0.37502611  0.37387427  1
  Zn  Zn101  1  0.49691322  0.86650127  0.88100473  1
  Zn  Zn102  1  0.14094441  0.24879558  0.89851043  1
  Zn  Zn103  1  0.24914001  0.13573398  0.89449410  1
  Zn  Zn104  1  0.62884074  0.74601538  0.37061961  1
  Zn  Zn105  1  -0.00440998  0.37061355  0.38365042  1
  Zn  Zn106  1  0.86025613  0.77943834  0.11686073  1
  Zn  Zn107  1  0.18801403  0.19029057  0.18683524  1
  Zn  Zn108  1  0.17558453  0.17705875  0.71728819  1
  Zn  Zn109  1  0.18668388  0.69010989  0.18452856  1
  Zn  Zn110  1  0.18835117  0.68873102  0.68711146  1
  Zn  Zn111  1  0.68851110  0.18128706  0.18371271  1
  Zn  Zn112  1  0.68852565  0.18707413  0.68277640  1
  Zn  Zn113  1  0.68908825  0.68631251  0.17907363  1
  Zn  Zn114  1  0.68612781  0.67930334  0.68652940  1
  Zn  Zn115  1  0.31159153  0.31158322  0.30920077  1
  Zn  Zn116  1  0.31320102  0.30958561  0.81604727  1
  Zn  Zn117  1  0.31152407  0.81135342  0.30945667  1
  Zn  Zn118  1  0.31440598  0.81298078  0.81000264  1
  Zn  Zn119  1  0.81418399  0.31662602  0.31296555  1
  Zn  Zn120  1  0.81166182  0.31417583  0.81399710  1
  Zn  Zn121  1  0.81597290  0.82063362  0.31275174  1
  Zn  Zn122  1  0.79756193  0.82798097  0.84141938  1
  Zn  Zn123  1  0.18692301  0.43619596  0.43594071  1
  Zn  Zn124  1  0.18273205  0.44300603  0.93467568  1
  Zn  Zn125  1  0.19085161  0.93822703  0.43952448  1
  Zn  Zn126  1  0.20145439  0.97409017  0.95317218  1
  Zn  Zn127  1  0.68267757  0.43145506  0.43767050  1
  Zn  Zn128  1  0.68202250  0.43426954  0.93911539  1
  Zn  Zn129  1  0.67807157  0.92710967  0.43517122  1
  Zn  Zn130  1  0.68748231  0.93591100  0.93983853  1
  Zn  Zn131  1  0.31631842  0.06584468  0.06249704  1
  Zn  Zn132  1  0.31510659  0.06284693  0.56500527  1
  Zn  Zn133  1  0.30871997  0.56477826  0.05998937  1
  Zn  Zn134  1  0.31083671  0.56244165  0.56266986  1
  Zn  Zn135  1  0.82018859  0.06978436  0.06453967  1
  Zn  Zn136  1  0.81478231  0.06233978  0.56156708  1
  Zn  Zn137  1  0.83139636  0.60333482  0.05269264  1
  Zn  Zn138  1  0.81025752  0.56365505  0.56559554  1
  Zn  Zn139  1  0.43569577  0.43429084  0.18330249  1
  Zn  Zn140  1  0.43557738  0.43736255  0.68717588  1
  Zn  Zn141  1  0.43920718  0.93580139  0.18462710  1
  Zn  Zn142  1  0.43857250  0.93475240  0.68197562  1
  Zn  Zn143  1  0.93399266  0.44035471  0.19482097  1
  Zn  Zn144  1  0.93051150  0.44123262  0.68871727  1
  Zn  Zn145  1  0.93051740  0.93565487  0.19648979  1
  Zn  Zn146  1  0.93490522  0.93770026  0.68936908  1
  Zn  Zn147  1  0.06374771  0.06505286  0.31682204  1
  Zn  Zn148  1  0.06786661  0.06498231  0.81844534  1
  Zn  Zn149  1  0.05838892  0.56117294  0.32357018  1
  Zn  Zn150  1  0.06226833  0.56532390  0.81657711  1
  Zn  Zn151  1  0.56356333  0.05998014  0.30845842  1
  Zn  Zn152  1  0.56478380  0.06489451  0.81276365  1
  Zn  Zn153  1  0.56041404  0.56261618  0.31046412  1
  Zn  Zn154  1  0.55971955  0.55938177  0.81132105  1
  Zn  Zn155  1  0.44232569  0.18587469  0.43601877  1
  Zn  Zn156  1  0.43697831  0.18174414  0.93255040  1
  Zn  Zn157  1  0.44020335  0.68506937  0.43440768  1
  Zn  Zn158  1  0.43623301  0.68213228  0.93231108  1
  Zn  Zn159  1  0.93841095  0.17951088  0.43631325  1
  Zn  Zn160  1  0.96882473  0.20591079  0.95889880  1
  Zn  Zn161  1  0.93452776  0.68222189  0.43901334  1
  Zn  Zn162  1  0.93486628  0.68940214  0.93548943  1
  Zn  Zn163  1  0.06691899  0.31837595  0.06482721  1
  Zn  Zn164  1  0.06624173  0.30813615  0.56862473  1
  Zn  Zn165  1  0.03810869  0.82477964  0.07751365  1
  Zn  Zn166  1  0.06771816  0.81220260  0.56889444  1
  Zn  Zn167  1  0.56589757  0.31578847  0.06297024  1
  Zn  Zn168  1  0.56478329  0.31521061  0.56168559  1
  Zn  Zn169  1  0.56395269  0.81503320  0.06478586  1
  Zn  Zn170  1  0.56205497  0.81200678  0.55768988  1
  O  O171  1  0.11580008  0.11486801  0.13554932  1
  O  O172  1  0.11631495  0.13224790  0.62018742  1
  O  O173  1  0.12745131  0.62117606  0.11174725  1
  O  O174  1  0.12000270  0.62475766  0.61628258  1
  O  O175  1  0.61370178  0.10973431  0.12982059  1
  O  O176  1  0.62102562  0.11824578  0.61465589  1
  O  O177  1  0.61106190  0.61076130  0.13402158  1
  O  O178  1  0.62832265  0.60882870  0.61180309  1
  O  O179  1  0.37593546  0.38217258  0.37878126  1
  O  O180  1  0.38029857  0.39108804  0.86581940  1
  O  O181  1  0.38969025  0.86998246  0.36756818  1
  O  O182  1  0.38163743  0.88752021  0.86487414  1
  O  O183  1  0.87908229  0.39193212  0.37065106  1
  O  O184  1  0.88351677  0.38745107  0.87187423  1
  O  O185  1  0.87405664  0.89221185  0.38167201  1
  O  O186  1  0.89244999  0.89605033  0.85189921  1
  O  O187  1  0.24682197  0.00548127  0.36244621  1
  O  O188  1  0.26309587  -0.00530169  0.85530433  1
  O  O189  1  0.26273171  0.50253279  0.37353039  1
  O  O190  1  0.25632263  0.50856013  0.87021595  1
  O  O191  1  0.75100204  -0.00182560  0.36912132  1
  O  O192  1  0.75679643  0.01407143  0.87266902  1
  O  O193  1  0.76113815  0.49671459  0.37983827  1
  O  O194  1  0.75199307  0.50110812  0.87070028  1
  O  O195  1  0.26157183  0.48260150  0.12772801  1
  O  O196  1  0.24923318  0.49280609  0.63245724  1
  O  O197  1  0.24198156  0.99490426  0.13796478  1
  O  O198  1  0.26424822  0.98574692  0.63337807  1
  O  O199  1  0.73560400  0.51255908  0.12359157  1
  O  O200  1  0.74370775  0.49343174  0.63175377  1
  O  O201  1  0.73920985  1.00334032  0.11765827  1
  O  O202  1  0.74505495  0.98999639  0.62518126  1
  O  O203  1  0.00870802  0.36332579  0.24872153  1
  O  O204  1  0.00226893  0.37393227  0.75477225  1
  O  O205  1  0.01389398  0.86567096  0.25566389  1
  O  O206  1  0.01017095  0.87123323  0.74939963  1
  O  O207  1  0.50687607  0.36305523  0.24671614  1
  O  O208  1  0.49497033  0.35833635  0.74742189  1
  O  O209  1  0.50021132  0.86406807  0.25201568  1
  O  O210  1  0.50877938  0.86326886  0.74614997  1
  O  O211  1  0.49435572  0.13104438  0.24028590  1
  O  O212  1  0.49346402  0.13053225  0.74255265  1
  O  O213  1  0.48957693  0.63159010  0.24073870  1
  O  O214  1  0.48801261  0.63264009  0.75167219  1
  O  O215  1  1.00237046  0.13810574  0.24578734  1
  O  O216  1  0.99272947  0.13345046  0.74547264  1
  O  O217  1  0.99607415  0.63096028  0.25851195  1
  O  O218  1  1.00023888  0.63501588  0.74689291  1
  O  O219  1  0.38117930  0.24358764  0.01347521  1
  O  O220  1  0.37239678  0.25326000  0.50412747  1
  O  O221  1  0.37305799  0.74445903  0.01032181  1
  O  O222  1  0.36578748  0.73805476  0.50781761  1
  O  O223  1  0.87398842  0.24787680  0.01653304  1
  O  O224  1  0.86015421  0.23963071  0.49706896  1
  O  O225  1  0.86266671  0.71445191  0.01752026  1
  O  O226  1  0.87011051  0.75009729  0.51097538  1
  O  O227  1  0.13111751  0.23998757  0.49778879  1
  O  O228  1  0.07598346  0.24076191  0.98797295  1
  O  O229  1  0.13196255  0.74357473  0.49677417  1
  O  O230  1  0.11892336  0.73947463  1.00553020  1
  O  O231  1  0.62967865  0.24257426  0.48967362  1
  O  O232  1  0.64549209  0.25049723  1.00898117  1
  O  O233  1  0.63247912  0.73858027  0.50267324  1
  O  O234  1  0.62260467  0.75725019  0.98239610  1
  O  O235  1  0.49459515  0.24380898  0.12961771  1
  O  O236  1  0.49679191  0.24532656  0.63143793  1
  O  O237  1  0.49337426  0.74412100  0.12867325  1
  O  O238  1  0.49096135  0.75303080  0.63118383  1
  O  O239  1  0.99079299  0.24538129  0.13369215  1
  O  O240  1  0.99507344  0.24184737  0.63335596  1
  O  O241  1  1.01156229  0.73632512  0.14867320  1
  O  O242  1  0.99351724  0.74652569  0.63218617  1
  O  O243  1  0.00436140  0.24974277  0.36920063  1
  O  O244  1  -0.01346015  0.26343722  0.85862011  1
  O  O245  1  0.01307375  0.74572368  0.37358786  1
  O  O246  1  -0.01150005  0.76187667  0.86161091  1
  O  O247  1  0.50963765  0.24918631  0.36161681  1
  O  O248  1  0.49979927  0.24587731  0.85985736  1
  O  O249  1  0.49958514  0.75377605  0.36360147  1
  O  O250  1  0.50453004  0.74773326  0.86252919  1
  O  O251  1  0.24530863  0.12795456  0.49909453  1
  O  O252  1  0.23441604  0.07994844  0.99042950  1
  O  O253  1  0.24019089  0.63398244  0.50144799  1
  O  O254  1  0.23603150  0.62620884  0.99352418  1
  O  O255  1  0.73736738  0.13286729  0.50612690  1
  O  O256  1  0.75790785  0.13103937  0.98751462  1
  O  O257  1  0.74231884  0.63427302  0.50435840  1
  O  O258  1  0.73953894  0.61689372  0.98277033  1
  O  O259  1  0.23859920  0.37802873  0.01280290  1
  O  O260  1  0.25475676  0.36879484  0.50533517  1
  O  O261  1  0.24012867  0.88183207  0.01618164  1
  O  O262  1  0.24487271  0.86269277  0.50814868  1
  O  O263  1  0.75698957  0.36224875  -0.00257049  1
  O  O264  1  0.74505691  0.36269882  0.50646710  1
  O  O265  1  0.76788871  0.86179787  -0.05010489  1
  O  O266  1  0.74527075  0.86502215  0.51432054  1
  O  O267  1  0.12242596  0.48649765  0.25955307  1
  O  O268  1  0.12839016  0.49186965  0.75033880  1
  O  O269  1  0.13065706  0.99438567  0.24749192  1
  O  O270  1  0.13920775  0.99308079  0.74857978  1
  O  O271  1  0.62520321  0.49387502  0.24230683  1
  O  O272  1  0.62936441  0.50251312  0.73938671  1
  O  O273  1  0.63794656  0.99898510  0.24126579  1
  O  O274  1  0.62386335  0.99010815  0.74237151  1
  O  O275  1  0.36605357  0.01154906  0.23914057  1
  O  O276  1  0.37641108  0.00565507  0.75301777  1
  O  O277  1  0.37806420  0.50755274  0.25631707  1
  O  O278  1  0.37077530  0.50829564  0.75479015  1
  O  O279  1  0.86482652  0.00089877  0.25977373  1
  O  O280  1  0.87361445  0.01383154  0.75517839  1
  O  O281  1  0.87182771  0.50915210  0.26439971  1
  O  O282  1  0.86383013  0.50260231  0.76187761  1
  O  O283  1  0.12305739  0.36608817  0.36881495  1
  O  O284  1  0.11150469  0.37622712  0.86653652  1
  O  O285  1  0.13410546  0.86527921  0.36879573  1
  O  O286  1  0.11474282  0.88260406  0.85945013  1
  O  O287  1  0.61998685  0.36449724  0.36357964  1
  O  O288  1  0.61758373  0.36566840  0.87961754  1
  O  O289  1  0.61299371  0.86475290  0.36508362  1
  O  O290  1  0.62090803  0.86501811  0.85988333  1
  O  O291  1  0.38137090  0.13505155  0.13216512  1
  O  O292  1  0.38535277  0.13029063  0.62939564  1
  O  O293  1  0.37979717  0.63221885  0.13007247  1
  O  O294  1  0.36579313  0.63455652  0.63695868  1
  O  O295  1  0.88741397  0.13242002  0.13476862  1
  O  O296  1  0.88233512  0.12783609  0.63355381  1
  O  O297  1  0.88582850  0.61720272  0.15275928  1
  O  O298  1  0.87995655  0.63440690  0.62844356  1
  O  O299  1  0.26208360  0.25405799  0.12405479  1
  O  O300  1  0.25631902  0.25480857  0.62177491  1
  O  O301  1  0.25568511  0.75986633  0.12164004  1
  O  O302  1  0.25706378  0.75570205  0.61767425  1
  O  O303  1  0.76402672  0.24188677  0.11663997  1
  O  O304  1  0.74842014  0.25823232  0.61496005  1
  O  O305  1  0.74792359  0.76001047  0.12194732  1
  O  O306  1  0.75693001  0.75408950  0.62148741  1
  O  O307  1  0.24687819  0.24343083  0.38272569  1
  O  O308  1  0.25359666  0.24967107  0.88617523  1
  O  O309  1  0.24318250  0.74793353  0.38339976  1
  O  O310  1  0.25903454  0.73919760  0.87812115  1
  O  O311  1  0.73898727  0.25530138  0.37955100  1
  O  O312  1  0.75754882  0.24249056  0.88905032  1
  O  O313  1  0.75097827  0.76010293  0.39125184  1
  O  O314  1  0.73596802  0.73209481  0.86115507  1
  O  O315  1  -0.00705096  0.10720452  0.01628043  1
  O  O316  1  0.00926000  0.11906556  0.50993555  1
  O  O317  1  0.01222295  0.61838410  -0.00338317  1
  O  O318  1  0.00880859  0.61808628  0.50637827  1
  O  O319  1  0.49820033  0.11639763  0.00928749  1
  O  O320  1  0.51184062  0.11827665  0.50101125  1
  O  O321  1  0.49633263  0.61761788  0.01070407  1
  O  O322  1  0.50598731  0.61242845  0.49840871  1
  O  O323  1  0.49341516  0.38419347  0.49688967  1
  O  O324  1  0.49659900  0.38809236  1.00342339  1
  O  O325  1  0.50673804  0.88415376  0.48876041  1
  O  O326  1  0.50202621  0.88828803  0.99834232  1
  O  O327  1  1.00621959  0.38635348  0.50622521  1
  O  O328  1  1.00332723  0.39271242  0.99042176  1
  O  O329  1  1.00527096  0.88990826  0.51273732  1
  O  O330  1  1.00390083  0.88108945  0.98024811  1
  O  O331  1  0.48825236  0.49861790  0.38216061  1
  O  O332  1  0.49205008  0.50218555  0.88476860  1
  O  O333  1  0.50696357  0.99043440  0.37923977  1
  O  O334  1  0.49668144  1.00144295  0.88163486  1
  O  O335  1  0.99084644  0.49503139  0.38916199  1
  O  O336  1  0.99088998  0.49621769  0.87887258  1
  O  O337  1  0.99589308  1.00492672  0.38843783  1
  O  O338  1  0.99728122  1.00043974  0.88420981  1
  O  O339  1  0.00448966  0.00822702  0.12874730  1
  O  O340  1  -0.00407520  0.01289997  0.62027458  1
  O  O341  1  -0.00622400  0.49768969  0.11080716  1
  O  O342  1  -0.00176412  0.50724370  0.61948201  1
  O  O343  1  0.50249168  0.00684598  0.11636455  1
  O  O344  1  0.50609650  0.00219248  0.61354092  1
  O  O345  1  0.49710599  0.50791477  0.11823751  1
  O  O346  1  0.50677425  0.49271984  0.61495872  1
  O  O347  1  0.24129678  0.37534134  0.24363164  1
  O  O348  1  0.24128179  0.37935050  0.74797302  1
  O  O349  1  0.24209401  0.88183055  0.24439837  1
  O  O350  1  0.24520439  0.87816536  0.74308412  1
  O  O351  1  0.73744744  0.37905682  0.25075091  1
  O  O352  1  0.75046245  0.38495368  0.74307919  1
  O  O353  1  0.75294598  0.89291496  0.24754297  1
  O  O354  1  0.73938203  0.87452820  0.74133940  1
  O  O355  1  0.25677801  0.11926518  0.25423324  1
  O  O356  1  0.26915577  0.11219652  0.73382573  1
  O  O357  1  0.26006114  0.62258395  0.24742091  1
  O  O358  1  0.25462031  0.62164668  0.75667292  1
  O  O359  1  0.75074008  0.10547686  0.24319359  1
  O  O360  1  0.75847681  0.12913494  0.75654586  1
  O  O361  1  0.76246228  0.62765168  0.25277807  1
  O  O362  1  0.74814839  0.60789545  0.75528951  1
  O  O363  1  0.37120939  0.13153763  0.36122850  1
  O  O364  1  0.37343066  0.11363729  0.86258647  1
  O  O365  1  0.37385804  0.61777694  0.36389847  1
  O  O366  1  0.36555443  0.61681867  0.86397664  1
  O  O367  1  0.87570936  0.10871669  0.37309043  1
  O  O368  1  0.86805444  0.11752653  0.86492914  1
  O  O369  1  0.87888363  0.61150486  0.36709300  1
  O  O370  1  0.86162844  0.61728882  0.87066906  1
  O  O371  1  0.14024977  0.36676730  0.13583845  1
  O  O372  1  0.13092327  0.37924612  0.63435486  1
  O  O373  1  0.12959816  0.88317037  0.13954654  1
  O  O374  1  0.14051886  0.87086204  0.63628049  1
  O  O375  1  0.62015087  0.39145571  0.13328474  1
  O  O376  1  0.63638276  0.38775233  0.61802880  1
  O  O377  1  0.61922611  0.89331541  0.12910334  1
  O  O378  1  0.63118501  0.87634430  0.63155129  1
  O  O379  1  0.11862144  0.25617982  0.25632821  1
  O  O380  1  0.10972184  0.26869199  0.74367511  1
  O  O381  1  0.12316004  0.75519525  0.26135246  1
  O  O382  1  0.11449677  0.75859864  0.74563406  1
  O  O383  1  0.62096296  0.25381221  0.24987032  1
  O  O384  1  0.61001894  0.24388708  0.74615243  1
  O  O385  1  0.61099445  0.74523404  0.24642406  1
  O  O386  1  0.61607496  0.75236193  0.75018050  1
  O  O387  1  0.38355876  0.24185442  0.24150470  1
  O  O388  1  0.38317307  0.23996655  0.74440708  1
  O  O389  1  0.38088624  0.74073035  0.23986256  1
  O  O390  1  0.38204692  0.74273805  0.74235638  1
  O  O391  1  0.88149431  0.24932098  0.24489663  1
  O  O392  1  0.87920728  0.24413877  0.74530315  1
  O  O393  1  0.88429693  0.73998903  0.26107826  1
  O  O394  1  0.88402049  0.75162105  0.73834904  1
  O  O395  1  0.37984877  0.49703556  0.49373643  1
  O  O396  1  0.38096147  0.50831769  0.98873392  1
  O  O397  1  0.39037640  1.00756717  0.49875390  1
  O  O398  1  0.38639295  1.00468862  0.98707600  1
  O  O399  1  0.88198234  0.50841450  0.49138953  1
  O  O400  1  0.88914106  0.51603123  0.98885624  1
  O  O401  1  0.88642501  0.99927374  0.49697874  1
  O  O402  1  0.88206764  1.00171839  0.98920117  1
  O  O403  1  0.10524327  -0.01163487  0.01991753  1
  O  O404  1  0.12129067  0.01286376  0.49688581  1
  O  O405  1  0.10948687  0.51018285  -0.00482901  1
  O  O406  1  0.11798552  0.50914317  0.49974570  1
  O  O407  1  0.61908807  -0.00166402  0.00849579  1
  O  O408  1  0.62101049  0.00718872  0.50184818  1
  O  O409  1  0.61505987  0.49673517  0.01497953  1
  O  O410  1  0.61693101  0.50377817  0.50308131  1
  O  O411  1  0.36414935  0.36008048  0.12804671  1
  O  O412  1  0.36853786  0.36985654  0.61899770  1
  O  O413  1  0.36303039  0.86578751  0.13201651  1
  O  O414  1  0.36487239  0.85934251  0.63060045  1
  O  O415  1  0.87728772  0.36081211  0.13289474  1
  O  O416  1  0.85893377  0.37518976  0.62607314  1
  O  O417  1  0.92816375  0.86550806  0.11272334  1
  O  O418  1  0.86607648  0.86811297  0.62404201  1
  O  O419  1  0.13304896  0.13084914  0.38632727  1
  O  O420  1  0.14420965  0.14424517  0.83332809  1
  O  O421  1  0.12825698  0.63376763  0.38662052  1
  O  O422  1  0.13526432  0.62316793  0.88471377  1
  O  O423  1  0.62082001  0.13467391  0.37999037  1
  O  O424  1  0.64300374  0.13127481  0.86941000  1
  O  O425  1  0.62103311  0.62539730  0.38789355  1
  O  O426  1  0.62692869  0.63196614  0.86755513  1
