# generated using pymatgen
data_V85Zn86O256
_symmetry_space_group_name_H-M   'P 1'
_cell_length_a   16.98494361
_cell_length_b   17.00142581
_cell_length_c   16.98455219
_cell_angle_alpha   89.84024839
_cell_angle_beta   90.17320985
_cell_angle_gamma   89.90744659
_symmetry_Int_Tables_number   1
_chemical_formula_structural   V85Zn86O256
_chemical_formula_sum   'V85 Zn86 O256'
_cell_volume   4904.55162024
_cell_formula_units_Z   1
loop_
 _symmetry_equiv_pos_site_id
 _symmetry_equiv_pos_as_xyz
  1  'x, y, z'
loop_
 _atom_site_type_symbol
 _atom_site_label
 _atom_site_symmetry_multiplicity
 _atom_site_fract_x
 _atom_site_fract_y
 _atom_site_fract_z
 _atom_site_occupancy
  V  V0  1  0.75237489  0.37227518  0.62646152  1
  V  V1  1  0.13284867  0.63033135  -0.00026831  1
  V  V2  1  0.36412858  0.26274267  0.61496884  1
  V  V3  1  0.49121324  0.00011939  0.49585797  1
  V  V4  1  0.73756493  0.24676889  -0.00360118  1
  V  V5  1  0.37444206  0.87611700  -0.00159434  1
  V  V6  1  0.50602955  0.62706688  0.11854640  1
  V  V7  1  0.49857422  0.49439115  0.49876585  1
  V  V8  1  0.12391005  0.87651284  0.75138836  1
  V  V9  1  0.87408381  0.86823370  0.00525179  1
  V  V10  1  0.37591723  0.12011085  0.25044845  1
  V  V11  1  0.87682269  0.12623934  0.25458563  1
  V  V12  1  0.13296049  0.37386282  0.74381902  1
  V  V13  1  0.49901443  0.12717024  0.62493171  1
  V  V14  1  0.37517240  0.12652378  0.74972259  1
  V  V15  1  0.87591731  0.37283536  0.50138458  1
  V  V16  1  -0.00602222  0.63447355  0.12699915  1
  V  V17  1  0.75053611  0.62365311  0.87890645  1
  V  V18  1  0.74794008  0.62513597  0.37633204  1
  V  V19  1  0.62376355  0.50214713  0.11629976  1
  V  V20  1  0.11713812  0.50056839  0.12488865  1
  V  V21  1  0.11413303  0.00221486  0.62206563  1
  V  V22  1  0.37447094  0.49332353  0.37509300  1
  V  V23  1  0.24899000  0.25465843  0.00132086  1
  V  V24  1  0.25023106  0.12543624  0.87497567  1
  V  V25  1  0.11256439  0.24684302  0.86866493  1
  V  V26  1  0.13655110  0.25027290  0.37991682  1
  V  V27  1  0.12425148  0.12573224  0.00015367  1
  V  V28  1  0.62602183  0.37044031  0.75737870  1
  V  V29  1  0.61812369  0.86825040  0.75739784  1
  V  V30  1  0.73365940  0.12589543  0.87780573  1
  V  V31  1  0.88510150  0.12575809  0.74939174  1
  V  V32  1  -0.00460957  0.74901600  0.75181000  1
  V  V33  1  0.26009826  0.11823617  0.38186339  1
  V  V34  1  0.37117250  0.25430062  0.12374725  1
  V  V35  1  0.62623099  0.00394054  0.12182439  1
  V  V36  1  0.88719402  0.88052378  0.49844894  1
  V  V37  1  0.49651224  0.38075398  0.87537102  1
  V  V38  1  0.48596374  0.74213062  0.75015900  1
  V  V39  1  0.12935355  0.37541163  0.24460213  1
  V  V40  1  0.37005030  0.74934863  0.12075009  1
  V  V41  1  0.12797426  0.00155683  0.12760251  1
  V  V42  1  0.24847056  0.87395952  0.12482516  1
  V  V43  1  -0.00327144  0.50292127  0.49912031  1
  V  V44  1  0.49878476  0.75190454  0.25159193  1
  V  V45  1  0.48887203  0.87978818  0.37475589  1
  V  V46  1  0.87213830  0.63213489  0.24698408  1
  V  V47  1  0.75374920  0.87054015  0.12768867  1
  V  V48  1  -0.00145428  0.87401818  0.87824232  1
  V  V49  1  0.13391253  0.74748817  0.87981294  1
  V  V50  1  0.74145001  0.74636368  0.00244529  1
  V  V51  1  0.00186182  0.37768172  0.37531689  1
  V  V52  1  0.37458479  0.62393190  0.24655297  1
  V  V53  1  0.62356159  0.25406762  0.36547793  1
  V  V54  1  0.75175595  0.12407395  0.37666604  1
  V  V55  1  -0.00750846  0.38836479  0.86737613  1
  V  V56  1  0.74652777  0.37300042  0.12723342  1
  V  V57  1  0.50190095  0.25055348  0.75464692  1
  V  V58  1  0.50318684  0.12727838  0.12098094  1
  V  V59  1  0.62443006  -0.00123075  0.62540088  1
  V  V60  1  0.87253962  0.50044852  0.37480954  1
  V  V61  1  -0.00213055  0.00151479  0.00169535  1
  V  V62  1  0.62541983  0.62463668  0.50201520  1
  V  V63  1  0.74840824  0.25182806  0.50240486  1
  V  V64  1  0.50359360  0.37557848  0.36603607  1
  V  V65  1  0.11985066  0.11882321  0.50102825  1
  V  V66  1  0.00000599  0.25109232  0.25085052  1
  V  V67  1  0.74083299  0.49451131  0.25048437  1
  V  V68  1  -0.00297256  0.62512749  0.62792345  1
  V  V69  1  0.75825477  0.49836784  0.75770854  1
  V  V70  1  0.74884085  0.75157835  0.50176908  1
  V  V71  1  0.37555854  0.38009054  -0.00350542  1
  V  V72  1  0.62581375  0.50035998  0.62590130  1
  V  V73  1  0.12248406  0.62556410  0.49889900  1
  V  V74  1  0.62476654  0.87676967  0.25357951  1
  V  V75  1  0.25718690  0.87319797  0.62505829  1
  V  V76  1  0.37687244  -0.00107366  0.87586850  1
  V  V77  1  0.89121222  -0.00131301  0.37955236  1
  V  V78  1  0.25809171  0.74776397  0.50313801  1
  V  V79  1  0.74957951  0.87486259  0.62671126  1
  V  V80  1  0.24923636  0.49776603  0.23994318  1
  V  V81  1  0.62475818  0.12531353  0.49959323  1
  V  V82  1  0.11794758  0.75704685  0.37107353  1
  V  V83  1  0.50046224  -0.00011791  -0.00271609  1
  V  V84  1  0.25040970  0.00042764  0.74987696  1
  Zn  Zn85  1  0.12698423  0.49194266  0.62618065  1
  Zn  Zn86  1  -0.01172038  0.50705050  -0.01134539  1
  Zn  Zn87  1  0.87620145  0.75109377  0.62676687  1
  Zn  Zn88  1  0.89848696  0.24628094  0.63858868  1
  Zn  Zn89  1  0.50177974  0.25485656  0.24425352  1
  Zn  Zn90  1  -0.00094973  0.12770200  0.12512051  1
  Zn  Zn91  1  0.87435875  0.37606718  -0.00559245  1
  Zn  Zn92  1  0.11806521  0.88259515  0.25795364  1
  Zn  Zn93  1  0.74819470  0.00035470  0.75606111  1
  Zn  Zn94  1  0.25563909  -0.00335459  0.25453903  1
  Zn  Zn95  1  0.62154411  0.75154311  0.37882828  1
  Zn  Zn96  1  0.24933009  0.62521810  0.37358342  1
  Zn  Zn97  1  0.87465080  0.25011242  0.12089080  1
  Zn  Zn98  1  0.88790718  0.60802114  0.76645176  1
  Zn  Zn99  1  0.37760851  0.86962405  0.50289898  1
  Zn  Zn100  1  0.61858953  0.74415609  0.88222982  1
  Zn  Zn101  1  0.87092767  0.00252066  0.87749941  1
  Zn  Zn102  1  0.34002694  0.61935479  0.78278787  1
  Zn  Zn103  1  0.49080465  0.63021479  0.62444610  1
  Zn  Zn104  1  0.75237260  0.00063344  0.25228832  1
  Zn  Zn105  1  0.49676456  0.51281747  -0.00994048  1
  Zn  Zn106  1  -0.01387786  0.76094381  0.25273330  1
  Zn  Zn107  1  0.19040584  0.18591313  0.19009526  1
  Zn  Zn108  1  0.18583101  0.18961724  0.68516734  1
  Zn  Zn109  1  0.18772745  0.68495283  0.18502867  1
  Zn  Zn110  1  0.18267346  0.69244043  0.68530447  1
  Zn  Zn111  1  0.68996715  0.18716359  0.18684632  1
  Zn  Zn112  1  0.69020180  0.18634243  0.68927236  1
  Zn  Zn113  1  0.68674074  0.68818828  0.18899537  1
  Zn  Zn114  1  0.69037740  0.68384091  0.69170528  1
  Zn  Zn115  1  0.31507607  0.31119888  0.31027092  1
  Zn  Zn116  1  0.31248260  0.31178761  0.81260037  1
  Zn  Zn117  1  0.30546607  0.80967676  0.31170951  1
  Zn  Zn118  1  0.31319932  0.81385827  0.81382459  1
  Zn  Zn119  1  0.81175766  0.31299914  0.31534671  1
  Zn  Zn120  1  0.81330147  0.30587344  0.81413934  1
  Zn  Zn121  1  0.81032873  0.81663000  0.31941186  1
  Zn  Zn122  1  0.81059300  0.81151606  0.81877218  1
  Zn  Zn123  1  0.18691298  0.44218418  0.43403611  1
  Zn  Zn124  1  0.17485151  0.43013475  0.94165982  1
  Zn  Zn125  1  0.19225064  0.93657954  0.43975768  1
  Zn  Zn126  1  0.18829802  0.93599457  0.93928948  1
  Zn  Zn127  1  0.68539492  0.43601652  0.43694498  1
  Zn  Zn128  1  0.68810063  0.43654652  0.93883474  1
  Zn  Zn129  1  0.68842372  0.94014761  0.43790334  1
  Zn  Zn130  1  0.68743789  0.93755099  0.94087920  1
  Zn  Zn131  1  0.31291571  0.06480523  0.06336995  1
  Zn  Zn132  1  0.31002553  0.06535096  0.56731089  1
  Zn  Zn133  1  0.30848440  0.55932647  -0.05008449  1
  Zn  Zn134  1  0.30741561  0.55346683  0.55988870  1
  Zn  Zn135  1  0.81229083  0.06417532  0.06423573  1
  Zn  Zn136  1  0.81633708  0.06150886  0.56300538  1
  Zn  Zn137  1  0.81405186  0.56049314  0.06142317  1
  Zn  Zn138  1  0.81306213  0.56169455  0.56674401  1
  Zn  Zn139  1  0.43829968  0.43953347  0.18248940  1
  Zn  Zn140  1  0.43744918  0.43822237  0.68520560  1
  Zn  Zn141  1  0.43870336  0.93842160  0.18475286  1
  Zn  Zn142  1  0.43989432  0.93764128  0.68908618  1
  Zn  Zn143  1  0.93093108  0.44086402  0.18634461  1
  Zn  Zn144  1  0.94519966  0.43130109  0.68703606  1
  Zn  Zn145  1  0.93827061  0.94034826  0.19143230  1
  Zn  Zn146  1  0.93235623  0.94046225  0.69105424  1
  Zn  Zn147  1  0.06689727  0.06615150  0.31511252  1
  Zn  Zn148  1  0.06345930  0.06062405  0.81386885  1
  Zn  Zn149  1  0.05943551  0.56741442  0.31209463  1
  Zn  Zn150  1  0.17290128  0.55563384  0.81404644  1
  Zn  Zn151  1  0.56185525  0.06417154  0.31127400  1
  Zn  Zn152  1  0.56131039  0.06040299  0.81186615  1
  Zn  Zn153  1  0.56283442  0.56407344  0.31112895  1
  Zn  Zn154  1  0.56654880  0.56410541  0.81337351  1
  Zn  Zn155  1  0.43853250  0.19132841  0.43890308  1
  Zn  Zn156  1  0.43943171  0.18867914  0.93698476  1
  Zn  Zn157  1  0.44031777  0.68316993  0.43461132  1
  Zn  Zn158  1  0.43982740  0.69754494  0.93319909  1
  Zn  Zn159  1  0.94903104  0.19587468  0.45624544  1
  Zn  Zn160  1  0.92560726  0.18827043  0.93697437  1
  Zn  Zn161  1  0.93393404  0.69141288  0.43725153  1
  Zn  Zn162  1  0.93723570  0.68666378  0.94019201  1
  Zn  Zn163  1  0.05830722  0.31409411  0.05788847  1
  Zn  Zn164  1  0.06435449  0.30472534  0.56117346  1
  Zn  Zn165  1  0.06175325  0.81314211  0.06688503  1
  Zn  Zn166  1  0.06929616  0.81131654  0.56521055  1
  Zn  Zn167  1  0.56327281  0.31624866  0.06264896  1
  Zn  Zn168  1  0.55993170  0.31345681  0.56383185  1
  Zn  Zn169  1  0.56074543  0.81629576  0.06564896  1
  Zn  Zn170  1  0.55841992  0.81116751  0.56742270  1
  O  O171  1  0.12484194  0.11738951  0.11949369  1
  O  O172  1  0.13123873  0.11928927  0.60873891  1
  O  O173  1  0.11476139  0.62104822  0.11987637  1
  O  O174  1  0.11291060  0.62446211  0.61287825  1
  O  O175  1  0.61646119  0.11407242  0.13311410  1
  O  O176  1  0.62048395  0.11650037  0.62137535  1
  O  O177  1  0.61535418  0.61795645  0.13175124  1
  O  O178  1  0.62771906  0.61218933  0.62144982  1
  O  O179  1  0.38293924  0.38640663  0.36934718  1
  O  O180  1  0.38453184  0.36897891  0.88356767  1
  O  O181  1  0.38626284  0.87298065  0.37264769  1
  O  O182  1  0.36727662  0.88290020  0.88894159  1
  O  O183  1  0.88073483  0.38192056  0.38017178  1
  O  O184  1  0.89016393  0.36579475  0.87202978  1
  O  O185  1  0.86739997  0.88725613  0.38661687  1
  O  O186  1  0.87887663  0.87977562  0.88809691  1
  O  O187  1  0.24995174  0.01392100  0.37225433  1
  O  O188  1  0.25485440  0.00528154  0.87015461  1
  O  O189  1  0.25930600  0.50301247  0.36438687  1
  O  O190  1  0.24006118  0.49871140  0.88490633  1
  O  O191  1  0.75383221  0.01093300  0.37403652  1
  O  O192  1  0.74890423  0.01452176  0.88143617  1
  O  O193  1  0.75157103  0.50399159  0.36874144  1
  O  O194  1  0.74534147  0.50539320  0.86576145  1
  O  O195  1  0.23134487  0.50200665  0.13874177  1
  O  O196  1  0.23790708  0.46536264  0.58895321  1
  O  O197  1  0.24249399  0.99472024  0.12601482  1
  O  O198  1  0.24298823  0.99314063  0.63187898  1
  O  O199  1  0.74119510  0.49458804  0.13170133  1
  O  O200  1  0.74250086  0.49301898  0.63232134  1
  O  O201  1  0.74058556  0.99273968  0.12589334  1
  O  O202  1  0.73722183  0.99166586  0.62368393  1
  O  O203  1  0.00701208  0.36945201  0.25624781  1
  O  O204  1  0.00706152  0.36897225  0.76139476  1
  O  O205  1  0.00840858  0.86867755  0.23717290  1
  O  O206  1  0.00449366  0.87028519  0.75699333  1
  O  O207  1  0.49752470  0.37525994  0.26128167  1
  O  O208  1  0.50556741  0.37053317  0.75633453  1
  O  O209  1  0.50571634  0.87362764  0.25578095  1
  O  O210  1  0.51177828  0.86458159  0.74388294  1
  O  O211  1  0.49284352  0.12761653  0.23989088  1
  O  O212  1  0.49699912  0.13230424  0.74586133  1
  O  O213  1  0.49321103  0.63100965  0.24414841  1
  O  O214  1  0.50748305  0.63863858  0.74737718  1
  O  O215  1  0.99460320  0.13579792  0.25279567  1
  O  O216  1  0.98459108  0.11770046  0.75502241  1
  O  O217  1  0.98816773  0.62994371  0.24601291  1
  O  O218  1  0.99924955  0.63622417  0.74022184  1
  O  O219  1  0.36795676  0.25423494  0.00517602  1
  O  O220  1  0.38208595  0.24861476  0.51646456  1
  O  O221  1  0.38317421  0.76290113  0.01300299  1
  O  O222  1  0.36240351  0.74388671  0.49626096  1
  O  O223  1  0.86191992  0.25504931  0.00459489  1
  O  O224  1  0.85237785  0.25769506  0.48264919  1
  O  O225  1  0.86640409  0.76414133  0.00045815  1
  O  O226  1  0.86246848  0.76002058  0.50064804  1
  O  O227  1  0.12772121  0.23462054  0.48753006  1
  O  O228  1  0.13237930  0.24533387  0.99516259  1
  O  O229  1  0.13179403  0.74341480  0.49092270  1
  O  O230  1  0.11821292  0.73901172  0.99551626  1
  O  O231  1  0.63119980  0.24623483  0.49250812  1
  O  O232  1  0.63814204  0.24967583  1.00520421  1
  O  O233  1  0.63353717  0.74467395  0.50382359  1
  O  O234  1  0.63563175  0.76293947  0.99853601  1
  O  O235  1  0.49435799  0.24173670  0.12308320  1
  O  O236  1  0.49464671  0.24568254  0.63454689  1
  O  O237  1  0.49269673  0.74657974  0.13230099  1
  O  O238  1  0.49947649  0.74746793  0.64062741  1
  O  O239  1  0.99937015  0.25048240  0.13915195  1
  O  O240  1  0.97799048  0.23629347  0.56479773  1
  O  O241  1  1.00387294  0.73726510  0.13070713  1
  O  O242  1  1.00161425  0.74409771  0.63434359  1
  O  O243  1  0.01283572  0.25609675  0.36754473  1
  O  O244  1  0.01200741  0.24575750  0.88351782  1
  O  O245  1  0.01438657  0.74716576  0.37512176  1
  O  O246  1  0.00605941  0.75533337  0.86984046  1
  O  O247  1  0.50682065  0.25913984  0.37431931  1
  O  O248  1  0.49736237  0.25704709  0.86126827  1
  O  O249  1  0.50206030  0.76063845  0.37055484  1
  O  O250  1  0.50664592  0.75171564  0.85721416  1
  O  O251  1  0.24999092  0.12301376  0.48515129  1
  O  O252  1  0.24530432  0.13233467  0.99438150  1
  O  O253  1  0.23945314  0.63032451  0.50216466  1
  O  O254  1  0.23033238  0.62421465  1.01214013  1
  O  O255  1  0.74453716  0.13316276  0.49616169  1
  O  O256  1  0.75377533  0.13577153  0.99203575  1
  O  O257  1  0.74676257  0.63264429  0.49786636  1
  O  O258  1  0.75540202  0.63922412  0.99804422  1
  O  O259  1  0.25699924  0.36018931  -0.00484115  1
  O  O260  1  0.24006892  0.40622010  0.53076474  1
  O  O261  1  0.26215300  0.88272803  0.01347478  1
  O  O262  1  0.25639743  0.86699206  0.50696075  1
  O  O263  1  0.74865365  0.36254088  0.00617886  1
  O  O264  1  0.75341697  0.37024818  0.50579181  1
  O  O265  1  0.75612115  0.86992712  0.00851031  1
  O  O266  1  0.74925764  0.86806701  0.50976963  1
  O  O267  1  0.12934108  0.49435088  0.24890042  1
  O  O268  1  0.12236142  0.47901810  0.74358701  1
  O  O269  1  0.12708060  1.00302347  0.23768245  1
  O  O270  1  0.13103934  0.99621948  0.74355975  1
  O  O271  1  0.63568938  0.50479688  0.24254977  1
  O  O272  1  0.63322452  0.49042939  0.74219030  1
  O  O273  1  0.62508680  0.99180577  0.24156544  1
  O  O274  1  0.62188763  0.98860002  0.74007596  1
  O  O275  1  0.37559900  0.01554926  0.24204790  1
  O  O276  1  0.37231083  0.00528840  0.75618322  1
  O  O277  1  0.36791937  0.50488925  0.25116202  1
  O  O278  1  0.37738780  0.53398702  0.70844875  1
  O  O279  1  0.87360493  0.01033579  0.25957906  1
  O  O280  1  0.86668171  0.00820822  0.75632221  1
  O  O281  1  0.86285383  0.51008202  0.25623774  1
  O  O282  1  0.86168405  0.49459943  0.74177383  1
  O  O283  1  0.12299787  0.36869459  0.36798160  1
  O  O284  1  0.11256488  0.36442861  0.86511995  1
  O  O285  1  0.13193663  0.86095844  0.37683868  1
  O  O286  1  0.11880637  0.86869776  0.87338661  1
  O  O287  1  0.61706829  0.36534727  0.37762859  1
  O  O288  1  0.61768956  0.37635681  0.86316314  1
  O  O289  1  0.61805005  0.87641986  0.36537314  1
  O  O290  1  0.63114577  0.87874116  0.85781681  1
  O  O291  1  0.38305441  0.13405544  0.13016105  1
  O  O292  1  0.38220547  0.13014409  0.63247358  1
  O  O293  1  0.38535336  0.63552912  0.13686479  1
  O  O294  1  0.38051965  0.58937757  0.64006197  1
  O  O295  1  0.87650512  0.12620276  0.14176001  1
  O  O296  1  0.86282600  0.12252679  0.64521445  1
  O  O297  1  0.88092868  0.62046235  0.13790110  1
  O  O298  1  0.88743912  0.62866553  0.62512991  1
  O  O299  1  0.25991366  0.24179660  0.11419686  1
  O  O300  1  0.26591306  0.24407653  0.62698288  1
  O  O301  1  0.26046605  0.75906390  0.13070736  1
  O  O302  1  0.23877185  0.76272897  0.61386464  1
  O  O303  1  0.74900356  0.25598592  0.11747066  1
  O  O304  1  0.74606497  0.25496841  0.61302149  1
  O  O305  1  0.74259530  0.76337199  0.11951781  1
  O  O306  1  0.75140500  0.75734663  0.61876564  1
  O  O307  1  0.24270493  0.24091856  0.36825890  1
  O  O308  1  0.24243013  0.24267841  0.88406864  1
  O  O309  1  0.24143814  0.74505197  0.38537929  1
  O  O310  1  0.23292462  0.75406881  0.87150367  1
  O  O311  1  0.73914583  0.24605913  0.38010144  1
  O  O312  1  0.74802904  0.24039279  0.88732616  1
  O  O313  1  0.74446635  0.74573158  0.38762617  1
  O  O314  1  0.74501854  0.74458981  0.88550082  1
  O  O315  1  0.00319214  0.11585003  0.00180006  1
  O  O316  1  0.02385193  0.11104206  0.48065354  1
  O  O317  1  0.00204428  0.62360473  0.01243519  1
  O  O318  1  0.00301968  0.62432991  0.50637193  1
  O  O319  1  0.49322582  0.11586103  0.01232102  1
  O  O320  1  0.50609699  0.11767872  0.50337764  1
  O  O321  1  0.49580830  0.62924222  0.01532716  1
  O  O322  1  0.50657798  0.61469785  0.50307331  1
  O  O323  1  0.50607845  0.38851224  0.48882453  1
  O  O324  1  0.49286575  0.37162305  0.98910952  1
  O  O325  1  0.49799108  0.88086241  0.49309930  1
  O  O326  1  0.48641770  0.88895503  1.01155441  1
  O  O327  1  0.99665543  0.38503188  0.49216442  1
  O  O328  1  1.00330325  0.37817142  0.98233400  1
  O  O329  1  0.98493459  0.86653927  0.50865445  1
  O  O330  1  0.99201643  0.88081948  1.00032003  1
  O  O331  1  0.49594625  0.49393487  0.37795553  1
  O  O332  1  0.50503428  0.48647226  0.87445328  1
  O  O333  1  0.50680099  0.99215743  0.38502392  1
  O  O334  1  0.49377629  1.00781544  0.88864242  1
  O  O335  1  0.99220783  0.49766403  0.37826002  1
  O  O336  1  0.99842593  0.48738286  0.86920739  1
  O  O337  1  0.99013106  1.00056969  0.36938744  1
  O  O338  1  1.00300822  0.99253315  0.88969834  1
  O  O339  1  0.00996667  0.00166214  0.11548834  1
  O  O340  1  0.01552070  -0.00638307  0.62958312  1
  O  O341  1  0.00890273  0.51190163  0.13551877  1
  O  O342  1  0.00195232  0.50866778  0.61759848  1
  O  O343  1  0.50631245  0.00836739  0.11850922  1
  O  O344  1  0.50835836  0.00406916  0.61826590  1
  O  O345  1  0.50832437  0.50968365  0.12470221  1
  O  O346  1  0.51447131  0.49535708  0.61512387  1
  O  O347  1  0.23811755  0.38242858  0.25467417  1
  O  O348  1  0.23261225  0.36731577  0.75477595  1
  O  O349  1  0.24490423  0.87886056  0.23913081  1
  O  O350  1  0.24423377  0.87984901  0.74417668  1
  O  O351  1  0.75371710  0.38591352  0.24464247  1
  O  O352  1  0.74318445  0.37735324  0.74850241  1
  O  O353  1  0.74187440  0.87638926  0.24449847  1
  O  O354  1  0.74139100  0.87540599  0.74058415  1
  O  O355  1  0.25939185  0.12367689  0.25975176  1
  O  O356  1  0.25493909  0.11874167  0.75539211  1
  O  O357  1  0.25941971  0.61654106  0.24942445  1
  O  O358  1  0.23565014  0.61604782  0.74266874  1
  O  O359  1  0.76132933  0.12744130  0.25833998  1
  O  O360  1  0.74836473  0.12406308  0.76662441  1
  O  O361  1  0.75373118  0.61810585  0.25559571  1
  O  O362  1  0.75650364  0.61458758  0.75735677  1
  O  O363  1  0.36626039  0.13409341  0.36680146  1
  O  O364  1  0.37006999  0.11997957  0.86976135  1
  O  O365  1  0.37829320  0.61508699  0.35960379  1
  O  O366  1  0.37934998  0.61780160  0.88654126  1
  O  O367  1  0.87225190  0.11909783  0.37096231  1
  O  O368  1  0.86368737  0.12249451  0.86463266  1
  O  O369  1  0.86720248  0.61908904  0.37053076  1
  O  O370  1  0.86014446  0.63073945  0.87594480  1
  O  O371  1  0.11460439  0.38430514  0.13712685  1
  O  O372  1  0.11345801  0.36460163  0.64072951  1
  O  O373  1  0.13568893  0.88494594  0.11966094  1
  O  O374  1  0.13488584  0.88363771  0.62998575  1
  O  O375  1  0.63599576  0.38478863  0.12430046  1
  O  O376  1  0.63102578  0.38268590  0.63262293  1
  O  O377  1  0.63079043  0.88414963  0.13581017  1
  O  O378  1  0.63115137  0.88135053  0.63192953  1
  O  O379  1  0.12044150  0.25679333  0.25581909  1
  O  O380  1  0.12638137  0.25183801  0.76105769  1
  O  O381  1  0.13020929  0.74507537  0.26743224  1
  O  O382  1  0.11326567  0.75734756  0.75890307  1
  O  O383  1  0.62243990  0.24424798  0.26203476  1
  O  O384  1  0.61499171  0.26152672  0.74026365  1
  O  O385  1  0.61842886  0.76251422  0.25078595  1
  O  O386  1  0.62569521  0.76282601  0.74927274  1
  O  O387  1  0.37653435  0.24187415  0.23918701  1
  O  O388  1  0.38424044  0.24455470  0.74325526  1
  O  O389  1  0.37808790  0.74321747  0.24364171  1
  O  O390  1  0.38326979  0.74292147  0.75717490  1
  O  O391  1  0.88538960  0.24284902  0.25647547  1
  O  O392  1  0.87090687  0.23300340  0.74870549  1
  O  O393  1  0.86863633  0.73636109  0.26067838  1
  O  O394  1  0.88813080  0.75595439  0.75021061  1
  O  O395  1  0.38681036  0.50926845  0.48387193  1
  O  O396  1  0.37848162  0.48204049  1.00823916  1
  O  O397  1  0.38934375  1.00023515  0.50742917  1
  O  O398  1  0.38137187  0.99570000  0.99731757  1
  O  O399  1  0.87695384  0.49348837  0.49506954  1
  O  O400  1  0.87826712  0.48940874  1.00741100  1
  O  O401  1  0.87148585  0.99281118  0.49207776  1
  O  O402  1  0.88462890  0.99332824  1.00264779  1
  O  O403  1  0.11854447  0.00496429  0.00764503  1
  O  O404  1  0.13731894  0.01023424  0.50839255  1
  O  O405  1  0.11523505  0.51039420  0.01200535  1
  O  O406  1  0.11398727  0.51367883  0.49455051  1
  O  O407  1  0.61410316  -0.00973396  0.01311620  1
  O  O408  1  0.61689723  0.00396956  0.50913866  1
  O  O409  1  0.62069816  0.49826961  0.01224654  1
  O  O410  1  0.62044413  0.50450326  0.50658659  1
  O  O411  1  0.38439692  0.36026551  0.11603951  1
  O  O412  1  0.37754025  0.36142357  0.63011382  1
  O  O413  1  0.36799685  0.86889711  0.12216695  1
  O  O414  1  0.36107318  0.88013588  0.62671629  1
  O  O415  1  0.85819802  0.37188753  0.12877689  1
  O  O416  1  0.86984515  0.36840415  0.61852580  1
  O  O417  1  0.86162128  0.88449924  0.11915899  1
  O  O418  1  0.86248878  0.87818161  0.61804481  1
  O  O419  1  0.14108702  0.12981746  0.37987752  1
  O  O420  1  0.13047194  0.12892458  0.88056141  1
  O  O421  1  0.12559911  0.63337310  0.38475908  1
  O  O422  1  0.12005386  0.63160746  0.89342456  1
  O  O423  1  0.62943700  0.13278999  0.38040191  1
  O  O424  1  0.63426291  0.12315469  0.87540407  1
  O  O425  1  0.63009835  0.62732872  0.38304753  1
  O  O426  1  0.64290100  0.62705493  0.87163774  1
