# generated using pymatgen
data_V85Zn86O256
_symmetry_space_group_name_H-M   'P 1'
_cell_length_a   16.97408927
_cell_length_b   16.96459340
_cell_length_c   16.97450581
_cell_angle_alpha   89.98079181
_cell_angle_beta   90.31197114
_cell_angle_gamma   90.09974509
_symmetry_Int_Tables_number   1
_chemical_formula_structural   V85Zn86O256
_chemical_formula_sum   'V85 Zn86 O256'
_cell_volume   4887.87349413
_cell_formula_units_Z   1
loop_
 _symmetry_equiv_pos_site_id
 _symmetry_equiv_pos_as_xyz
  1  'x, y, z'
loop_
 _atom_site_type_symbol
 _atom_site_label
 _atom_site_symmetry_multiplicity
 _atom_site_fract_x
 _atom_site_fract_y
 _atom_site_fract_z
 _atom_site_occupancy
  V  V0  1  0.50029688  0.62415143  0.12564391  1
  V  V1  1  0.86665153  0.50296413  0.36511719  1
  V  V2  1  0.12140390  0.74882281  0.87043720  1
  V  V3  1  -0.00554565  0.62887955  0.12401516  1
  V  V4  1  0.49180015  0.12440518  0.63598524  1
  V  V5  1  0.87763702  0.64166366  0.74366165  1
  V  V6  1  0.87706387  -0.00151363  0.37685436  1
  V  V7  1  0.74946186  0.86386052  0.62726050  1
  V  V8  1  0.87657336  0.00006154  0.87741892  1
  V  V9  1  0.49897001  0.24879245  0.24652795  1
  V  V10  1  0.75271402  0.37047984  0.62480183  1
  V  V11  1  0.12849807  0.12339955  0.00047854  1
  V  V12  1  -0.00255151  0.50487764  0.49953341  1
  V  V13  1  0.87380310  0.12080070  0.24995157  1
  V  V14  1  0.00194613  0.37536414  0.37370054  1
  V  V15  1  0.12524827  0.87544730  0.25227161  1
  V  V16  1  0.13291178  -0.00062177  0.12925934  1
  V  V17  1  0.74860304  0.25066781  0.49965187  1
  V  V18  1  0.62639955  0.88031939  0.23776962  1
  V  V19  1  0.75606395  0.74866184  0.01069394  1
  V  V20  1  0.62454471  0.63296618  0.49910480  1
  V  V21  1  0.75100323  0.13100931  0.88196739  1
  V  V22  1  0.37508158  0.50145201  0.87225345  1
  V  V23  1  -0.00249923  0.37884459  0.87946833  1
  V  V24  1  0.25311580  0.49999916  0.25391130  1
  V  V25  1  0.74470906  0.62988592  0.36672795  1
  V  V26  1  0.87592996  0.86521477  0.50593673  1
  V  V27  1  0.24583440  0.13874330  0.37511669  1
  V  V28  1  0.12427936  0.24604613  0.87265561  1
  V  V29  1  0.11936467  0.50040439  0.12187394  1
  V  V30  1  0.37745197  0.74832731  0.12707561  1
  V  V31  1  0.37139388  0.36983652  0.49376767  1
  V  V32  1  0.26270390  0.87756964  0.63602011  1
  V  V33  1  0.50012910  0.49935304  -0.00063123  1
  V  V34  1  0.12555124  0.37328874  0.25223933  1
  V  V35  1  0.37216588  0.89540247  0.49559071  1
  V  V36  1  0.25111911  0.50057520  0.74858175  1
  V  V37  1  0.74679916  -0.00236707  0.75055083  1
  V  V38  1  0.25014269  0.24899471  0.00089532  1
  V  V39  1  0.37653341  0.25604955  0.64347961  1
  V  V40  1  0.51081427  0.88145595  0.38674808  1
  V  V41  1  0.11901317  0.62039879  -0.00130392  1
  V  V42  1  0.12390442  0.63092757  0.50056469  1
  V  V43  1  -0.00460731  0.24588483  0.73654358  1
  V  V44  1  0.50013232  0.87574737  0.87518022  1
  V  V45  1  0.63286684  0.50077635  0.12930757  1
  V  V46  1  0.00332022  0.00008021  0.00136824  1
  V  V47  1  0.75001784  0.12296579  0.36961362  1
  V  V48  1  0.62577475  0.25001941  0.87668682  1
  V  V49  1  0.62621036  0.62474537  0.00050624  1
  V  V50  1  -0.00804162  0.74906179  0.24694109  1
  V  V51  1  0.12417865  0.50129493  0.62540974  1
  V  V52  1  0.37219954  0.00346340  0.86585052  1
  V  V53  1  -0.00336552  0.64818777  0.62493228  1
  V  V54  1  0.62441960  0.74922859  0.87638006  1
  V  V55  1  0.62173924  0.25172629  0.37469721  1
  V  V56  1  0.13134698  0.88222656  0.75145512  1
  V  V57  1  0.74938115  0.37075863  0.11633914  1
  V  V58  1  0.25124093  0.74946565  0.00166574  1
  V  V59  1  0.48694027  0.62670752  0.62866878  1
  V  V60  1  0.50014109  0.36945479  0.86693893  1
  V  V61  1  0.12547191  0.37396981  0.74489679  1
  V  V62  1  0.50869370  0.00189997  0.00316663  1
  V  V63  1  0.75127007  0.62484388  0.87344400  1
  V  V64  1  0.48793571  0.74428247  0.74856740  1
  V  V65  1  0.50720650  0.12150330  0.12449971  1
  V  V66  1  0.62484428  0.49914607  0.62437624  1
  V  V67  1  0.37722515  0.87538035  0.00206072  1
  V  V68  1  0.25329157  0.62398634  0.87108037  1
  V  V69  1  0.37525929  0.62251383  0.25548377  1
  V  V70  1  0.49466386  0.49900509  0.49413147  1
  V  V71  1  0.25064343  0.62511517  0.37662273  1
  V  V72  1  0.00293371  0.25101588  0.25302177  1
  V  V73  1  0.63262763  0.37851659  0.24969056  1
  V  V74  1  0.26111306  0.74877695  0.50978986  1
  V  V75  1  0.62404518  0.87380769  0.75069482  1
  V  V76  1  0.37435630  0.37494074  -0.00037076  1
  V  V77  1  0.87240316  0.37609516  0.50104255  1
  V  V78  1  0.25334239  0.12064464  0.86304732  1
  V  V79  1  0.75620693  0.89196506  0.12710641  1
  V  V80  1  0.25054856  0.37470976  0.12435670  1
  V  V81  1  0.87665571  0.12471380  0.73315900  1
  V  V82  1  0.75499178  0.49942860  0.75031713  1
  V  V83  1  0.00166227  0.87088013  0.87031688  1
  V  V84  1  0.87152205  0.25034718  0.11678957  1
  Zn  Zn85  1  0.12470000  0.75359340  0.37546356  1
  Zn  Zn86  1  0.86430801  0.62644013  0.23940653  1
  Zn  Zn87  1  0.00160911  0.12670528  0.12693303  1
  Zn  Zn88  1  0.60880579  0.11638929  0.49676650  1
  Zn  Zn89  1  0.88387589  0.50607198  0.88016451  1
  Zn  Zn90  1  0.27445574  -0.01564216  0.28393423  1
  Zn  Zn91  1  0.62049831  0.36758167  0.74536603  1
  Zn  Zn92  1  0.24380221  0.26010709  0.50831714  1
  Zn  Zn93  1  0.61228186  -0.00072919  0.61470514  1
  Zn  Zn94  1  0.51214445  0.74564727  0.26507213  1
  Zn  Zn95  1  0.49822718  0.38135361  0.37041433  1
  Zn  Zn96  1  0.12172913  0.00832770  0.62754711  1
  Zn  Zn97  1  0.37579942  0.24869257  0.12426074  1
  Zn  Zn98  1  0.88302259  0.86666357  0.00932628  1
  Zn  Zn99  1  0.63273816  0.12811070  0.00600012  1
  Zn  Zn100  1  0.11160552  0.14998545  0.50148125  1
  Zn  Zn101  1  0.25667670  0.87772243  0.13244052  1
  Zn  Zn102  1  0.74554339  0.74969120  0.49811762  1
  Zn  Zn103  1  -0.00829279  0.01391428  0.52293644  1
  Zn  Zn104  1  -0.00176360  0.87453612  0.37474517  1
  Zn  Zn105  1  0.87434401  0.37627402  -0.00210144  1
  Zn  Zn106  1  0.37559650  0.11160010  0.25072601  1
  Zn  Zn107  1  0.19000152  0.18387790  0.19156886  1
  Zn  Zn108  1  0.18711105  0.19138418  0.67932278  1
  Zn  Zn109  1  0.18515199  0.68957677  0.18808687  1
  Zn  Zn110  1  0.18640061  0.69047633  0.68596728  1
  Zn  Zn111  1  0.68797734  0.18943160  0.18725197  1
  Zn  Zn112  1  0.67904552  0.18422305  0.69072505  1
  Zn  Zn113  1  0.68346014  0.69526048  0.19041405  1
  Zn  Zn114  1  0.68042884  0.68433626  0.69045361  1
  Zn  Zn115  1  0.31553409  0.31071522  0.31612801  1
  Zn  Zn116  1  0.30812695  0.31400003  0.81619909  1
  Zn  Zn117  1  0.31621124  0.80948268  0.31865053  1
  Zn  Zn118  1  0.31366022  0.81219602  0.81890993  1
  Zn  Zn119  1  0.81423859  0.31109915  0.30934875  1
  Zn  Zn120  1  0.81256165  0.30725545  0.80890802  1
  Zn  Zn121  1  0.80836558  0.81182157  0.31058658  1
  Zn  Zn122  1  0.81108215  0.81264018  0.81933116  1
  Zn  Zn123  1  0.18621077  0.43916667  0.43907384  1
  Zn  Zn124  1  0.18420557  0.43559371  0.93493971  1
  Zn  Zn125  1  0.17888080  0.95644213  0.44074998  1
  Zn  Zn126  1  0.19186177  0.93730958  0.94013847  1
  Zn  Zn127  1  0.68527700  0.44275359  0.43679517  1
  Zn  Zn128  1  0.68607616  0.43764361  0.93656275  1
  Zn  Zn129  1  0.69012404  0.93922487  0.43762639  1
  Zn  Zn130  1  0.68939193  0.93562859  0.93990447  1
  Zn  Zn131  1  0.32132455  0.06348689  0.06337985  1
  Zn  Zn132  1  0.28707086  0.08079781  0.57709253  1
  Zn  Zn133  1  0.31018188  0.56152209  0.06164409  1
  Zn  Zn134  1  0.31084178  0.55602362  0.56042466  1
  Zn  Zn135  1  0.81721813  0.06283553  0.06275097  1
  Zn  Zn136  1  0.78628977  0.04713925  0.54894552  1
  Zn  Zn137  1  0.81460204  0.55583526  0.05627656  1
  Zn  Zn138  1  0.81355262  0.56582833  0.56085802  1
  Zn  Zn139  1  0.44044507  0.43645558  0.18703043  1
  Zn  Zn140  1  0.43465349  0.43829037  0.68232372  1
  Zn  Zn141  1  0.44690037  0.93531522  0.19059527  1
  Zn  Zn142  1  0.43950797  0.93832469  0.68586257  1
  Zn  Zn143  1  0.93470986  0.43878142  0.18522868  1
  Zn  Zn144  1  0.93932817  0.44091342  0.68827159  1
  Zn  Zn145  1  0.94022088  0.93839305  0.18905715  1
  Zn  Zn146  1  0.93838734  0.93227519  0.68737519  1
  Zn  Zn147  1  0.06475429  0.06495767  0.32010759  1
  Zn  Zn148  1  0.06153710  0.06205888  0.80890137  1
  Zn  Zn149  1  0.06208301  0.56269011  0.31137963  1
  Zn  Zn150  1  0.05946730  0.56610555  0.80641294  1
  Zn  Zn151  1  0.56192461  0.05833728  0.31256539  1
  Zn  Zn152  1  0.56097313  0.06486423  0.81390777  1
  Zn  Zn153  1  0.56391568  0.56322326  0.31214159  1
  Zn  Zn154  1  0.56331977  0.56032710  0.81067737  1
  Zn  Zn155  1  0.41524234  0.16047470  0.45342997  1
  Zn  Zn156  1  0.43759074  0.18662551  0.93552425  1
  Zn  Zn157  1  0.44136036  0.69218674  0.43958024  1
  Zn  Zn158  1  0.43810309  0.68696996  0.93714922  1
  Zn  Zn159  1  0.93551868  0.18902935  0.44116676  1
  Zn  Zn160  1  0.94055773  0.18812249  0.93209902  1
  Zn  Zn161  1  0.93573413  0.68981448  0.43253530  1
  Zn  Zn162  1  0.93542218  0.68567997  0.93552331  1
  Zn  Zn163  1  0.06305908  0.30921716  0.06481543  1
  Zn  Zn164  1  0.06011816  0.31715443  0.56099556  1
  Zn  Zn165  1  0.06624677  0.81131945  0.06324425  1
  Zn  Zn166  1  0.08050627  0.83935964  0.54948570  1
  Zn  Zn167  1  0.56376982  0.31062822  0.05821561  1
  Zn  Zn168  1  0.55463852  0.30638781  0.56189222  1
  Zn  Zn169  1  0.56445737  0.81179307  0.06367579  1
  Zn  Zn170  1  0.55603494  0.81376405  0.56723822  1
  O  O171  1  0.12182187  0.11627243  0.11927544  1
  O  O172  1  0.16706703  0.11151041  0.60132580  1
  O  O173  1  0.12014062  0.61885244  0.11702870  1
  O  O174  1  0.11496579  0.62054117  0.62125916  1
  O  O175  1  0.61408492  0.13066492  0.12322999  1
  O  O176  1  0.61112833  0.12492379  0.62319913  1
  O  O177  1  0.62087562  0.61820830  0.12241882  1
  O  O178  1  0.62071895  0.61433652  0.61701019  1
  O  O179  1  0.38220362  0.37336968  0.38733602  1
  O  O180  1  0.38102268  0.38166925  0.88045118  1
  O  O181  1  0.37122041  0.88096237  0.39185798  1
  O  O182  1  0.38094423  0.88111944  0.88439325  1
  O  O183  1  0.87884649  0.38514514  0.37856530  1
  O  O184  1  0.89043848  0.36892062  0.87157685  1
  O  O185  1  0.86533138  0.88407589  0.38346189  1
  O  O186  1  0.88403706  0.88500690  0.87594297  1
  O  O187  1  0.24985215  0.01789607  0.38572980  1
  O  O188  1  0.26007673  0.00907812  0.88434500  1
  O  O189  1  0.24475245  0.51080389  0.36321395  1
  O  O190  1  0.25221734  0.50612566  0.86843430  1
  O  O191  1  0.76136956  0.01501501  0.37706778  1
  O  O192  1  0.75896204  0.00149580  0.86845344  1
  O  O193  1  0.75756953  0.51133398  0.37945468  1
  O  O194  1  0.74656027  0.50566681  0.86284216  1
  O  O195  1  0.24057212  0.49684997  0.13357563  1
  O  O196  1  0.23423417  0.51081243  0.63501437  1
  O  O197  1  0.23635740  0.99855748  0.11628083  1
  O  O198  1  0.24934965  0.97725022  0.62647563  1
  O  O199  1  0.73782965  0.49275383  0.12320838  1
  O  O200  1  0.74311990  0.49280390  0.62907233  1
  O  O201  1  0.74871743  0.99064872  0.12125843  1
  O  O202  1  0.75498207  0.98618198  0.64494497  1
  O  O203  1  0.00350417  0.37124638  0.25577518  1
  O  O204  1  0.00656679  0.36735112  0.75569215  1
  O  O205  1  0.00605086  0.86507129  0.24842323  1
  O  O206  1  0.00992187  0.87654788  0.76581078  1
  O  O207  1  0.51280628  0.36876255  0.24954509  1
  O  O208  1  0.50239530  0.38825534  0.76386906  1
  O  O209  1  0.51479600  0.87154729  0.25755646  1
  O  O210  1  0.50539156  0.86616786  0.75524627  1
  O  O211  1  0.50447647  0.13318585  0.24261448  1
  O  O212  1  0.50129250  0.12435781  0.73754196  1
  O  O213  1  0.49150787  0.62626033  0.24643346  1
  O  O214  1  0.50699799  0.63165990  0.74125854  1
  O  O215  1  0.99236609  0.13534911  0.25288534  1
  O  O216  1  0.98538177  0.13003958  0.75333220  1
  O  O217  1  1.00310485  0.63334299  0.24017501  1
  O  O218  1  0.98978807  0.62410299  0.73817061  1
  O  O219  1  0.36796413  0.25832283  -0.00040593  1
  O  O220  1  0.37527474  0.26552967  0.50316995  1
  O  O221  1  0.37175636  0.75252073  0.00777429  1
  O  O222  1  0.36308782  0.75214362  0.49930695  1
  O  O223  1  0.88498171  0.25187690  0.01320765  1
  O  O224  1  0.86359973  0.26869951  0.49024653  1
  O  O225  1  0.86195115  0.75253254  -0.00791717  1
  O  O226  1  0.86693902  0.76232018  0.49309776  1
  O  O227  1  0.13186326  0.26224885  0.50091949  1
  O  O228  1  0.12957959  0.24317688  0.99417018  1
  O  O229  1  0.13885614  0.74744296  0.49707532  1
  O  O230  1  0.13213357  0.74101762  0.99254428  1
  O  O231  1  0.63485808  0.25385520  0.48928246  1
  O  O232  1  0.62379557  0.24710950  0.98442912  1
  O  O233  1  0.62082432  0.73563481  0.50571772  1
  O  O234  1  0.63209747  0.74339359  0.99602619  1
  O  O235  1  0.50258945  0.24410553  0.13182192  1
  O  O236  1  0.48899379  0.24244033  0.62891975  1
  O  O237  1  0.49012642  0.74197044  0.12415939  1
  O  O238  1  0.50461999  0.73872491  0.63695680  1
  O  O239  1  0.99066973  0.25051443  0.13527954  1
  O  O240  1  0.99912807  0.25617414  0.63772202  1
  O  O241  1  1.00582939  0.73940129  0.13158006  1
  O  O242  1  1.00946414  0.74484787  0.61620163  1
  O  O243  1  -0.01204595  0.26637296  0.36432637  1
  O  O244  1  0.00613957  0.25619205  0.86206819  1
  O  O245  1  0.00476846  0.75170887  0.36316314  1
  O  O246  1  0.01073232  0.75987345  0.88512946  1
  O  O247  1  0.51640900  0.25047835  0.36476796  1
  O  O248  1  0.50619710  0.26170147  0.87812991  1
  O  O249  1  0.48557768  0.77202830  0.37313473  1
  O  O250  1  0.50577934  0.75396841  0.87080101  1
  O  O251  1  0.26816658  0.14455345  0.48164746  1
  O  O252  1  0.24522516  0.13148503  0.99640700  1
  O  O253  1  0.24640813  0.62789795  0.49471468  1
  O  O254  1  0.24002323  0.62817571  0.99115645  1
  O  O255  1  0.76182293  0.14422468  0.48637454  1
  O  O256  1  0.74951364  0.11377672  0.98635489  1
  O  O257  1  0.74017644  0.62684296  0.49462697  1
  O  O258  1  0.74566923  0.63049062  0.99490625  1
  O  O259  1  0.25297867  0.36987443  0.00321110  1
  O  O260  1  0.26697309  0.38204021  0.49506861  1
  O  O261  1  0.25838807  0.86576578  0.00370673  1
  O  O262  1  0.26109742  0.86688205  0.51344073  1
  O  O263  1  0.74758502  0.37492762  0.01305764  1
  O  O264  1  0.75375042  0.37214336  0.50500939  1
  O  O265  1  0.74949849  0.86870111  0.01375442  1
  O  O266  1  0.75578662  0.87085391  0.51026737  1
  O  O267  1  0.13454533  0.49584538  0.24178027  1
  O  O268  1  0.12945937  0.49434850  0.74385848  1
  O  O269  1  0.11601975  0.99057471  0.23949502  1
  O  O270  1  0.12850948  0.98579497  0.75518219  1
  O  O271  1  0.61773539  0.49093773  0.23901111  1
  O  O272  1  0.63717613  0.50030138  0.73905791  1
  O  O273  1  0.62879823  0.97890555  0.26061276  1
  O  O274  1  0.63551350  0.99220151  0.75545412  1
  O  O275  1  0.36738898  -0.00003740  0.22759388  1
  O  O276  1  0.37747308  -0.00888293  0.76761880  1
  O  O277  1  0.36463954  0.51058844  0.24144731  1
  O  O278  1  0.35807474  0.49163310  0.75398087  1
  O  O279  1  0.88048306  0.01411471  0.25570672  1
  O  O280  1  0.87001936  0.00723202  0.76100401  1
  O  O281  1  0.87880429  0.50556972  0.26108860  1
  O  O282  1  0.86405808  0.50567890  0.75161203  1
  O  O283  1  0.10902307  0.38774358  0.36837757  1
  O  O284  1  0.11566686  0.36762233  0.86538493  1
  O  O285  1  0.12141783  0.87810190  0.36161120  1
  O  O286  1  0.12233393  0.86768280  0.87274065  1
  O  O287  1  0.62705746  0.37018151  0.36574270  1
  O  O288  1  0.61690653  0.36962353  0.87381529  1
  O  O289  1  0.61408594  0.87292020  0.38414944  1
  O  O290  1  0.61962771  0.86898486  0.87111950  1
  O  O291  1  0.39086717  0.13175726  0.12730471  1
  O  O292  1  0.38208305  0.13971138  0.62439631  1
  O  O293  1  0.37933213  0.62964787  0.13162939  1
  O  O294  1  0.38842762  0.61649022  0.62227052  1
  O  O295  1  0.87739442  0.13186383  0.13289836  1
  O  O296  1  0.86236490  0.11445898  0.63757722  1
  O  O297  1  0.89015801  0.61416650  0.12408386  1
  O  O298  1  0.88426418  0.62276117  0.63109296  1
  O  O299  1  0.25018323  0.25758526  0.11999264  1
  O  O300  1  0.27139784  0.25042042  0.62575123  1
  O  O301  1  0.26147219  0.74647401  0.11925503  1
  O  O302  1  0.24993411  0.75651635  0.61874502  1
  O  O303  1  0.76061784  0.25744337  0.12828223  1
  O  O304  1  0.74064557  0.26307180  0.61552475  1
  O  O305  1  0.74770405  0.75227615  0.11363582  1
  O  O306  1  0.74175648  0.76129495  0.62768073  1
  O  O307  1  0.23977349  0.24408436  0.36500929  1
  O  O308  1  0.24343721  0.24232790  0.88117960  1
  O  O309  1  0.24806567  0.73689464  0.38287118  1
  O  O310  1  0.24338030  0.74104686  0.88163096  1
  O  O311  1  0.74146153  0.24721509  0.37853716  1
  O  O312  1  0.74713510  0.23870112  0.87442547  1
  O  O313  1  0.75236157  0.73325292  0.37733140  1
  O  O314  1  0.74219522  0.74472030  0.88438927  1
  O  O315  1  0.00805546  0.11385638  -0.00260820  1
  O  O316  1  0.00214942  0.12312337  0.49633862  1
  O  O317  1  0.01216281  0.63068256  0.00634673  1
  O  O318  1  0.00266108  0.62346999  0.50553977  1
  O  O319  1  0.50220397  0.11791414  0.00660270  1
  O  O320  1  0.49956511  0.13162889  0.51721894  1
  O  O321  1  0.50628368  0.61915459  0.00483824  1
  O  O322  1  0.50483209  0.61922346  0.50689915  1
  O  O323  1  0.49535506  0.38356008  0.49656339  1
  O  O324  1  0.49459599  0.38160732  0.99162307  1
  O  O325  1  0.48567565  0.87441465  0.49624270  1
  O  O326  1  0.49757712  0.88061431  0.99544126  1
  O  O327  1  0.98977671  0.38296531  0.49192041  1
  O  O328  1  1.00541598  0.36788705  0.98158725  1
  O  O329  1  0.97870982  0.86783856  0.49538300  1
  O  O330  1  1.00222244  0.88312391  0.99226036  1
  O  O331  1  0.50567413  0.50205612  0.38957428  1
  O  O332  1  0.49516764  0.49547072  0.88075749  1
  O  O333  1  0.49898697  0.98164318  0.37256343  1
  O  O334  1  0.49258657  0.99557004  0.88218318  1
  O  O335  1  0.99015492  0.49603724  0.37955108  1
  O  O336  1  1.00309653  0.48242268  0.86533928  1
  O  O337  1  0.98394420  0.99611676  0.37462102  1
  O  O338  1  0.99572411  0.99271902  0.88275136  1
  O  O339  1  0.00768291  0.00026955  0.11381328  1
  O  O340  1  0.00632735  0.00179065  0.63627019  1
  O  O341  1  0.01442565  0.50774564  0.13233168  1
  O  O342  1  0.00941317  0.50532806  0.61857849  1
  O  O343  1  0.49931439  0.00875592  0.11410005  1
  O  O344  1  0.49707635  0.01425566  0.62604636  1
  O  O345  1  0.50912159  0.50474554  0.11883339  1
  O  O346  1  0.50947809  0.50665814  0.61996781  1
  O  O347  1  0.24686840  0.38352093  0.24630016  1
  O  O348  1  0.23324512  0.38579336  0.75951530  1
  O  O349  1  0.24043223  0.87335335  0.25116797  1
  O  O350  1  0.24871308  0.86714359  0.74321804  1
  O  O351  1  0.73843150  0.37013912  0.23939471  1
  O  O352  1  0.75253562  0.38226972  0.74010677  1
  O  O353  1  0.74225935  0.86920069  0.23438749  1
  O  O354  1  0.74519582  0.87859116  0.74825974  1
  O  O355  1  0.24841505  0.11838778  0.26162848  1
  O  O356  1  0.24288549  0.12966732  0.76533054  1
  O  O357  1  0.25455773  0.61941683  0.25612291  1
  O  O358  1  0.23857954  0.61542718  0.76297128  1
  O  O359  1  0.76141856  0.13574903  0.26007329  1
  O  O360  1  0.76011314  0.11634082  0.75903657  1
  O  O361  1  0.74630488  0.62711947  0.26210815  1
  O  O362  1  0.75675729  0.61822076  0.75187358  1
  O  O363  1  0.35994255  0.13630834  0.36159592  1
  O  O364  1  0.36556082  0.11577985  0.88101851  1
  O  O365  1  0.36636064  0.62968449  0.36386551  1
  O  O366  1  0.36108941  0.61843928  0.88175772  1
  O  O367  1  0.86882924  0.12138216  0.36698531  1
  O  O368  1  0.86929564  0.11448696  0.87321507  1
  O  O369  1  0.86125533  0.61800637  0.37553243  1
  O  O370  1  0.87042483  0.62337889  0.86269727  1
  O  O371  1  0.12984441  0.38295394  0.12981931  1
  O  O372  1  0.11742983  0.38896604  0.63575374  1
  O  O373  1  0.12859559  0.88147171  0.13352965  1
  O  O374  1  0.14041354  0.86442002  0.64509748  1
  O  O375  1  0.63060926  0.38089458  0.12935036  1
  O  O376  1  0.63170520  0.38420655  0.62390807  1
  O  O377  1  0.63241151  0.87784859  0.13204491  1
  O  O378  1  0.63087922  0.88005160  0.63180881  1
  O  O379  1  0.11009146  0.25763569  0.24108034  1
  O  O380  1  0.11804127  0.25574494  0.75031801  1
  O  O381  1  0.11759439  0.75962640  0.24990484  1
  O  O382  1  0.13045202  0.75585148  0.76700973  1
  O  O383  1  0.61981389  0.25917051  0.25520563  1
  O  O384  1  0.63238885  0.25387269  0.76754304  1
  O  O385  1  0.62447315  0.76786491  0.25180110  1
  O  O386  1  0.61810893  0.75511978  0.75892144  1
  O  O387  1  0.39392097  0.25879715  0.24683195  1
  O  O388  1  0.37622496  0.26249208  0.74296498  1
  O  O389  1  0.37291463  0.73885731  0.24048030  1
  O  O390  1  0.38921010  0.75022635  0.75946186  1
  O  O391  1  0.88346107  0.24327253  0.24154179  1
  O  O392  1  0.87871732  0.23219519  0.74968794  1
  O  O393  1  0.88709477  0.74590852  0.25319558  1
  O  O394  1  0.86947992  0.74082976  0.75238818  1
  O  O395  1  0.38672989  0.48656324  0.51011479  1
  O  O396  1  0.37915110  0.49520976  0.99377925  1
  O  O397  1  0.36581972  0.99130922  0.50879375  1
  O  O398  1  0.38684494  0.99264983  0.99504463  1
  O  O399  1  0.87753893  0.49312416  0.49036462  1
  O  O400  1  0.87385976  0.48975448  0.99084941  1
  O  O401  1  0.87235244  0.98841470  0.49297017  1
  O  O402  1  0.88646470  0.99754268  0.99227331  1
  O  O403  1  0.11843236  0.00204922  0.00641717  1
  O  O404  1  0.10246086  -0.04350207  0.51859869  1
  O  O405  1  0.13212626  0.50933915  0.00925874  1
  O  O406  1  0.12001793  0.50812454  0.50802372  1
  O  O407  1  0.61181900  0.00267332  -0.00887883  1
  O  O408  1  0.66765649  0.01849574  0.51485041  1
  O  O409  1  0.62058187  0.50569478  0.00901252  1
  O  O410  1  0.61730125  0.50701348  0.50888269  1
  O  O411  1  0.36801426  0.37625189  0.11734238  1
  O  O412  1  0.38516060  0.36292314  0.61321044  1
  O  O413  1  0.37812976  0.86143522  0.12084484  1
  O  O414  1  0.36762041  0.87341179  0.61957051  1
  O  O415  1  0.86594794  0.36811941  0.12591654  1
  O  O416  1  0.86438413  0.38579676  0.61275659  1
  O  O417  1  0.86144794  0.88051702  0.12589877  1
  O  O418  1  0.86573833  0.87633200  0.61354924  1
  O  O419  1  0.13765697  0.12136227  0.38571416  1
  O  O420  1  0.13148645  0.12694704  0.88049164  1
  O  O421  1  0.13442673  0.62446525  0.38197957  1
  O  O422  1  0.12839239  0.62929981  0.88109805  1
  O  O423  1  0.63419838  0.13332494  0.37418141  1
  O  O424  1  0.63512150  0.13177521  0.87468073  1
  O  O425  1  0.63721733  0.61750909  0.38387319  1
  O  O426  1  0.63107415  0.62839182  0.88090676  1
