# generated using pymatgen
data_V85Zn86O256
_symmetry_space_group_name_H-M   'P 1'
_cell_length_a   16.97032683
_cell_length_b   16.95744614
_cell_length_c   16.96721499
_cell_angle_alpha   90.13534657
_cell_angle_beta   90.01027200
_cell_angle_gamma   90.05898973
_symmetry_Int_Tables_number   1
_chemical_formula_structural   V85Zn86O256
_chemical_formula_sum   'V85 Zn86 O256'
_cell_volume   4882.69690985
_cell_formula_units_Z   1
loop_
 _symmetry_equiv_pos_site_id
 _symmetry_equiv_pos_as_xyz
  1  'x, y, z'
loop_
 _atom_site_type_symbol
 _atom_site_label
 _atom_site_symmetry_multiplicity
 _atom_site_fract_x
 _atom_site_fract_y
 _atom_site_fract_z
 _atom_site_occupancy
  V  V0  1  0.37718666  0.75379090  0.12584180  1
  V  V1  1  0.63076873  0.86773779  0.74701574  1
  V  V2  1  0.12462324  0.37087023  0.75585092  1
  V  V3  1  0.25196912  0.62630791  0.87641412  1
  V  V4  1  0.37589415  0.38693659  0.49176438  1
  V  V5  1  0.87392849  0.75371713  0.12241253  1
  V  V6  1  0.25246679  0.12572023  0.37201692  1
  V  V7  1  0.74860170  0.62095217  0.37281011  1
  V  V8  1  0.74894929  0.74660647  0.50142195  1
  V  V9  1  0.12305321  0.62404937  0.00351323  1
  V  V10  1  0.74819605  0.11991326  0.87317365  1
  V  V11  1  0.87779958  0.36953560  0.50066336  1
  V  V12  1  0.87705935  0.62113185  0.24656602  1
  V  V13  1  0.75370557  0.24678426  0.50758846  1
  V  V14  1  0.25112158  0.37351746  0.12313670  1
  V  V15  1  0.25347972  0.75652920  0.50099627  1
  V  V16  1  -0.00175016  0.12328808  0.12324392  1
  V  V17  1  0.25134349  0.50252647  0.74897623  1
  V  V18  1  0.25592294  0.75334509  0.00097429  1
  V  V19  1  0.12332070  0.37507337  0.25056837  1
  V  V20  1  0.26156131  0.00324332  0.24949965  1
  V  V21  1  0.37620156  0.62520066  0.25505487  1
  V  V22  1  0.38451597  0.00192705  0.88181346  1
  V  V23  1  0.61655787  0.12189688  0.50656762  1
  V  V24  1  0.62724997  0.38147287  0.24787461  1
  V  V25  1  0.37223907  0.24455316  0.12622983  1
  V  V26  1  0.87514051  0.37355227  -0.00387775  1
  V  V27  1  0.87100665  0.61510437  0.74940013  1
  V  V28  1  0.11883760  0.00933263  0.62561370  1
  V  V29  1  0.86949308  -0.00172148  0.36826596  1
  V  V30  1  0.49838063  0.87966619  0.38944035  1
  V  V31  1  0.50239058  0.37543539  0.87282741  1
  V  V32  1  0.62261725  0.74762848  0.88700828  1
  V  V33  1  0.12643826  0.13055027  -0.01355897  1
  V  V34  1  0.74489624  0.12333752  0.36992855  1
  V  V35  1  0.25393936  0.37725565  0.62297043  1
  V  V36  1  0.37736046  0.50079871  0.87530788  1
  V  V37  1  0.74833625  0.38162786  0.12862338  1
  V  V38  1  0.87508036  -0.01834201  0.87955531  1
  V  V39  1  -0.00349854  -0.01308756  -0.00255350  1
  V  V40  1  0.37842110  -0.00055833  0.39429128  1
  V  V41  1  0.87530071  0.12584023  0.74402867  1
  V  V42  1  0.12488378  0.62685258  0.50046854  1
  V  V43  1  0.00175485  0.74413121  0.24701207  1
  V  V44  1  0.24754967  0.87740411  0.62800167  1
  V  V45  1  0.62481388  0.74737058  0.37832005  1
  V  V46  1  0.87278126  0.24830581  0.12449247  1
  V  V47  1  0.12550447  0.75233139  0.37709820  1
  V  V48  1  0.37454065  0.75385303  0.62405159  1
  V  V49  1  0.49831330  0.24598448  0.74483898  1
  V  V50  1  0.51384215  0.61876374  0.62200274  1
  V  V51  1  0.50225633  0.75198078  0.75481001  1
  V  V52  1  0.86929183  0.12208820  0.24750252  1
  V  V53  1  0.74534605  0.61546472  0.88045749  1
  V  V54  1  0.63074428  0.00174359  0.12936110  1
  V  V55  1  0.87389889  0.49458983  0.37083572  1
  V  V56  1  0.12622510  0.87664226  0.25256286  1
  V  V57  1  0.12619059  0.50243439  0.62363030  1
  V  V58  1  0.00038959  0.49892292  -0.00161030  1
  V  V59  1  0.87017617  0.87536050  0.50364920  1
  V  V60  1  0.25446995  0.50067765  0.25435087  1
  V  V61  1  0.50539748  0.62493287  0.11917639  1
  V  V62  1  0.25533672  0.87670499  0.12375318  1
  V  V63  1  -0.00115101  0.87636982  0.37660558  1
  V  V64  1  0.63344811  0.88290534  0.25446199  1
  V  V65  1  0.49748949  0.12347446  0.12113038  1
  V  V66  1  0.11866177  0.75653691  0.87464875  1
  V  V67  1  0.37580295  0.62549984  0.75190217  1
  V  V68  1  0.49723138  0.24825745  0.25010777  1
  V  V69  1  0.12366556  0.25226377  0.37468392  1
  V  V70  1  0.00106596  0.49458220  0.49254578  1
  V  V71  1  0.12228243  0.50342430  0.12541796  1
  V  V72  1  0.74704747  0.39069697  0.62640047  1
  V  V73  1  0.62445253  0.24828148  0.87130430  1
  V  V74  1  -0.00138842  0.62614877  0.62596093  1
  V  V75  1  0.12443843  0.00112346  0.12536554  1
  V  V76  1  0.51413055  0.50328522  0.49330290  1
  V  V77  1  0.37901182  0.24868626  0.62408157  1
  V  V78  1  0.25596703  0.01205114  0.75994303  1
  V  V79  1  0.87175243  0.75163723  0.62572731  1
  V  V80  1  0.37668295  0.37472969  -0.00109699  1
  V  V81  1  0.25244262  0.62544092  0.37611997  1
  V  V82  1  0.74686093  -0.01047259  0.74264975  1
  V  V83  1  0.74881466  0.24825066  -0.00226182  1
  V  V84  1  -0.00109495  0.25441403  0.25215496  1
  Zn  Zn85  1  -0.00759822  0.75485908  0.75933542  1
  Zn  Zn86  1  0.61559200  -0.01717712  0.61434612  1
  Zn  Zn87  1  0.50035602  0.75279277  0.25585841  1
  Zn  Zn88  1  0.75560780  0.88320777  0.12120774  1
  Zn  Zn89  1  0.50959276  0.51511963  -0.00625692  1
  Zn  Zn90  1  -0.00320262  0.00380920  0.50158715  1
  Zn  Zn91  1  0.49714138  0.38222721  0.36877165  1
  Zn  Zn92  1  0.11654515  0.88186658  0.75566597  1
  Zn  Zn93  1  0.00933591  0.36378112  0.87967623  1
  Zn  Zn94  1  0.62204425  0.25254417  0.37531073  1
  Zn  Zn95  1  0.49781618  -0.02311119  0.00336320  1
  Zn  Zn96  1  0.87365121  0.49533018  0.86789014  1
  Zn  Zn97  1  -0.03727640  0.15882865  0.59965429  1
  Zn  Zn98  1  0.61970975  0.11638479  -0.00527927  1
  Zn  Zn99  1  0.63354525  0.38740177  0.74593848  1
  Zn  Zn100  1  0.00629274  0.24259018  0.75002541  1
  Zn  Zn101  1  0.24677091  0.24509901  -0.02063788  1
  Zn  Zn102  1  0.11927256  0.13040500  0.50135830  1
  Zn  Zn103  1  0.63381066  0.51279172  0.12222200  1
  Zn  Zn104  1  0.75540436  0.75400165  -0.00095717  1
  Zn  Zn105  1  0.25228082  0.25060281  0.49803772  1
  Zn  Zn106  1  0.48594033  0.10976236  0.62260560  1
  Zn  Zn107  1  0.18705655  0.18518545  0.18489302  1
  Zn  Zn108  1  0.19544685  0.19024878  0.69346011  1
  Zn  Zn109  1  0.18927877  0.68795288  0.18849659  1
  Zn  Zn110  1  0.18675666  0.68806385  0.68869785  1
  Zn  Zn111  1  0.68221759  0.19080183  0.18610889  1
  Zn  Zn112  1  0.68869552  0.18906042  0.68864050  1
  Zn  Zn113  1  0.69059138  0.69191218  0.19538844  1
  Zn  Zn114  1  0.69179217  0.68021308  0.69272619  1
  Zn  Zn115  1  0.31254976  0.31352260  0.31064214  1
  Zn  Zn116  1  0.31460383  0.30912924  0.81023128  1
  Zn  Zn117  1  0.31535027  0.81695845  0.31422872  1
  Zn  Zn118  1  0.30642252  0.81844593  0.81022761  1
  Zn  Zn119  1  0.80881801  0.30944901  0.31465251  1
  Zn  Zn120  1  0.81385314  0.31013657  0.80860127  1
  Zn  Zn121  1  0.81265629  0.80978166  0.31142695  1
  Zn  Zn122  1  0.80746825  0.80368254  0.81251876  1
  Zn  Zn123  1  0.18758608  0.43643273  0.43582226  1
  Zn  Zn124  1  0.19321715  0.43717817  0.93760101  1
  Zn  Zn125  1  0.18852620  0.94016184  0.44072987  1
  Zn  Zn126  1  0.18745623  0.94110322  0.94124325  1
  Zn  Zn127  1  0.68976111  0.43419731  0.43605852  1
  Zn  Zn128  1  0.68369869  0.43798305  0.94266796  1
  Zn  Zn129  1  0.68808608  0.93734248  0.43843364  1
  Zn  Zn130  1  0.68287257  0.92958401  0.94344593  1
  Zn  Zn131  1  0.31293305  0.06181840  0.05420578  1
  Zn  Zn132  1  0.30269173  0.06571572  0.56291372  1
  Zn  Zn133  1  0.31598396  0.56340226  0.06406121  1
  Zn  Zn134  1  0.31658703  0.56582446  0.56127540  1
  Zn  Zn135  1  0.81096783  0.06087209  0.05806356  1
  Zn  Zn136  1  0.80063662  0.05520827  0.55935085  1
  Zn  Zn137  1  0.81482666  0.56555356  0.06119645  1
  Zn  Zn138  1  0.81385853  0.56365273  0.55732872  1
  Zn  Zn139  1  0.43931572  0.43801340  0.18584890  1
  Zn  Zn140  1  0.44351468  0.43768291  0.68621347  1
  Zn  Zn141  1  0.44605597  0.93706182  0.19497621  1
  Zn  Zn142  1  0.43634427  0.93473272  0.69415712  1
  Zn  Zn143  1  0.93698946  0.43687850  0.18413092  1
  Zn  Zn144  1  0.93939395  0.43316506  0.67935869  1
  Zn  Zn145  1  0.94036317  0.93572748  0.18876415  1
  Zn  Zn146  1  0.93730102  0.93461265  0.69296926  1
  Zn  Zn147  1  0.06088531  0.06425542  0.31173421  1
  Zn  Zn148  1  0.05772438  0.05626480  0.81059452  1
  Zn  Zn149  1  0.06390255  0.56298299  0.31402319  1
  Zn  Zn150  1  0.06028113  0.56280908  0.81307562  1
  Zn  Zn151  1  0.55729527  0.06505893  0.31175308  1
  Zn  Zn152  1  0.55470912  0.05339479  0.79855651  1
  Zn  Zn153  1  0.56344906  0.56287866  0.30894156  1
  Zn  Zn154  1  0.56627556  0.56091739  0.81041537  1
  Zn  Zn155  1  0.43365115  0.19106599  0.43745599  1
  Zn  Zn156  1  0.43158725  0.18535582  0.93458236  1
  Zn  Zn157  1  0.43942882  0.68705191  0.43977240  1
  Zn  Zn158  1  0.43948688  0.81482756  0.93060783  1
  Zn  Zn159  1  0.93618299  0.18584636  0.42955212  1
  Zn  Zn160  1  0.94100102  0.18353282  0.93103400  1
  Zn  Zn161  1  0.93705286  0.68540503  0.43620170  1
  Zn  Zn162  1  0.93666305  0.68112204  0.93829149  1
  Zn  Zn163  1  0.06223680  0.31080221  0.06520591  1
  Zn  Zn164  1  0.06420055  0.31253432  0.56585076  1
  Zn  Zn165  1  0.06531636  0.81012793  0.06605815  1
  Zn  Zn166  1  0.05947143  0.81724484  0.56605690  1
  Zn  Zn167  1  0.56345551  0.31142558  0.06096039  1
  Zn  Zn168  1  0.56539524  0.31445925  0.55832846  1
  Zn  Zn169  1  0.56911872  0.80937099  0.07152493  1
  Zn  Zn170  1  0.56304103  0.80639067  0.56459491  1
  O  O171  1  0.11599234  0.11760431  0.12164353  1
  O  O172  1  0.13378019  0.11301521  0.62559935  1
  O  O173  1  0.13319066  0.61585803  0.11536680  1
  O  O174  1  0.12023684  0.62223621  0.61973135  1
  O  O175  1  0.61680637  0.11822267  0.12261248  1
  O  O176  1  0.62590156  0.12879081  0.60998307  1
  O  O177  1  0.60955385  0.63054852  0.14052923  1
  O  O178  1  0.61155815  0.63173765  0.62518365  1
  O  O179  1  0.37609439  0.37285717  0.38639046  1
  O  O180  1  0.38305201  0.38092220  0.88011350  1
  O  O181  1  0.38188292  0.88940241  0.37434815  1
  O  O182  1  0.37167420  0.88366517  0.87246159  1
  O  O183  1  0.86609118  0.38554119  0.38394660  1
  O  O184  1  0.86886306  0.37684567  0.88810475  1
  O  O185  1  0.87792486  0.88063563  0.38017033  1
  O  O186  1  0.86848332  0.88340615  0.87317449  1
  O  O187  1  0.25952828  0.00345450  0.37032577  1
  O  O188  1  0.25094003  -0.00484520  0.86321167  1
  O  O189  1  0.24170291  0.50780585  0.36146784  1
  O  O190  1  0.25795281  0.50688994  0.86976095  1
  O  O191  1  0.75973253  0.00934674  0.37885726  1
  O  O192  1  0.75772027  0.00305099  0.87186830  1
  O  O193  1  0.76104911  0.50998152  0.38273441  1
  O  O194  1  0.75164203  0.51167825  0.88145934  1
  O  O195  1  0.24162494  0.49585112  0.13241059  1
  O  O196  1  0.24742427  0.49623535  0.62819615  1
  O  O197  1  0.24759352  0.99405539  0.13088711  1
  O  O198  1  0.24552145  0.99328805  0.63426139  1
  O  O199  1  0.75387829  0.48574133  0.12086237  1
  O  O200  1  0.75008153  0.49000023  0.61556237  1
  O  O201  1  0.73583206  1.00372476  0.12330094  1
  O  O202  1  0.73757065  0.99972949  0.63960643  1
  O  O203  1  0.00549793  0.36178765  0.24162882  1
  O  O204  1  0.01977858  0.38332830  0.74674059  1
  O  O205  1  0.00706513  0.86609259  0.25764395  1
  O  O206  1  0.00607861  0.86550324  0.74626705  1
  O  O207  1  0.50680317  0.36827701  0.24788450  1
  O  O208  1  0.50089723  0.36817428  0.76136379  1
  O  O209  1  0.51064082  0.87297068  0.26634155  1
  O  O210  1  0.50815124  0.85609408  0.74779643  1
  O  O211  1  0.50350350  0.13769618  0.23625632  1
  O  O212  1  0.50758882  0.14378264  0.74455097  1
  O  O213  1  0.48689127  0.62811471  0.24868238  1
  O  O214  1  0.49344029  0.63135943  0.73876773  1
  O  O215  1  0.99164823  0.13277898  0.24323037  1
  O  O216  1  0.97942574  0.11826444  0.75152781  1
  O  O217  1  0.99323784  0.63561244  0.25839205  1
  O  O218  1  0.99192505  0.63105625  0.74504119  1
  O  O219  1  0.37208887  0.25931234  0.00734363  1
  O  O220  1  0.37512415  0.26606194  0.50737517  1
  O  O221  1  0.36178501  0.75022502  0.01096663  1
  O  O222  1  0.36396436  0.74261889  0.51174711  1
  O  O223  1  0.87074933  0.25574266  0.00392597  1
  O  O224  1  0.86987693  0.25941982  0.49007948  1
  O  O225  1  0.88575373  0.74175005  0.02147802  1
  O  O226  1  0.86893744  0.75561745  0.50412213  1
  O  O227  1  0.12766862  0.25328616  0.48709601  1
  O  O228  1  0.12205225  0.23499186  1.00411509  1
  O  O229  1  0.13292655  0.74684675  0.49755628  1
  O  O230  1  0.13316482  0.74199035  0.99651991  1
  O  O231  1  0.63379135  0.23976782  0.49501771  1
  O  O232  1  0.62952198  0.24689519  0.98574430  1
  O  O233  1  0.63651295  0.75539993  0.48917226  1
  O  O234  1  0.62308851  0.74537059  0.98766266  1
  O  O235  1  0.49231044  0.24511792  0.12930846  1
  O  O236  1  0.49354390  0.25729874  0.63009854  1
  O  O237  1  0.49102265  0.74197931  0.13451323  1
  O  O238  1  0.49132480  0.73829341  0.62844611  1
  O  O239  1  0.99261513  0.24355458  0.13292174  1
  O  O240  1  1.00350712  0.25287637  0.63756287  1
  O  O241  1  0.99372115  0.75399714  0.13973104  1
  O  O242  1  0.98661918  0.74172957  0.61926692  1
  O  O243  1  0.00968690  0.24415084  0.36102593  1
  O  O244  1  -0.01075021  0.25508110  0.86034815  1
  O  O245  1  0.00561980  0.75549838  0.36900321  1
  O  O246  1  0.01634343  0.74322080  0.88174120  1
  O  O247  1  0.49770082  0.25163734  0.36148143  1
  O  O248  1  0.50470609  0.25511000  0.86673270  1
  O  O249  1  0.50850900  0.75745994  0.37926820  1
  O  O250  1  0.51259346  0.74103443  0.86579089  1
  O  O251  1  0.24249889  0.12920300  0.48563117  1
  O  O252  1  0.22983487  0.12340675  1.00437942  1
  O  O253  1  0.24495544  0.63426073  0.49678534  1
  O  O254  1  0.24425474  0.63257073  0.99765849  1
  O  O255  1  0.74397452  0.13034419  0.49044089  1
  O  O256  1  0.74747435  0.12937557  0.98705398  1
  O  O257  1  0.75867301  0.63665286  0.48623478  1
  O  O258  1  0.76035830  0.63248649  0.98466114  1
  O  O259  1  0.26109838  0.37410193  0.00508158  1
  O  O260  1  0.25747054  0.37850715  0.50842402  1
  O  O261  1  0.24182238  0.86689019  0.01514536  1
  O  O262  1  0.24670305  0.86424437  0.51052537  1
  O  O263  1  0.75783495  0.36785418  0.00719157  1
  O  O264  1  0.75690280  0.36659745  0.50640738  1
  O  O265  1  0.74773576  0.86619029  0.00847416  1
  O  O266  1  0.76134594  0.86266576  0.49340959  1
  O  O267  1  0.13061242  0.49784962  0.24256689  1
  O  O268  1  0.13268993  0.49798614  0.74283436  1
  O  O269  1  0.13232619  0.99487706  0.24573228  1
  O  O270  1  0.13439825  1.00094398  0.74120320  1
  O  O271  1  0.61948849  0.48643142  0.24191838  1
  O  O272  1  0.62235994  0.49698563  0.74366079  1
  O  O273  1  0.61844113  0.99425208  0.24286988  1
  O  O274  1  0.63613517  0.98100336  0.76311815  1
  O  O275  1  0.36321591  -0.00189480  0.25396339  1
  O  O276  1  0.36038933  -0.00647095  0.75923280  1
  O  O277  1  0.36242512  0.50984279  0.24232151  1
  O  O278  1  0.37222594  0.50767135  0.75267030  1
  O  O279  1  0.87849367  0.00497868  0.25981192  1
  O  O280  1  0.86495260  0.00031542  0.76165502  1
  O  O281  1  0.88697263  0.50710584  0.26011219  1
  O  O282  1  0.88490156  0.51029985  0.74906267  1
  O  O283  1  0.13293290  0.36224722  0.36544808  1
  O  O284  1  0.12940409  0.38367264  0.85900972  1
  O  O285  1  0.12104417  0.87153483  0.37267453  1
  O  O286  1  0.13071254  0.85859950  0.87937426  1
  O  O287  1  0.62307908  0.37343406  0.36307177  1
  O  O288  1  0.61800863  0.36467390  0.87531599  1
  O  O289  1  0.61965496  0.87154825  0.37226331  1
  O  O290  1  0.62992212  0.85330691  0.86594561  1
  O  O291  1  0.37986348  0.13658183  0.11701505  1
  O  O292  1  0.37423010  0.14320909  0.61119576  1
  O  O293  1  0.37927399  0.63546522  0.13453096  1
  O  O294  1  0.37620350  0.63478458  0.63681568  1
  O  O295  1  0.87714221  0.12866245  0.12775824  1
  O  O296  1  0.86852147  0.10673818  0.63884123  1
  O  O297  1  0.87289068  0.63174824  0.13969457  1
  O  O298  1  0.87887967  0.62967242  0.63033486  1
  O  O299  1  0.25841434  0.25628428  0.12668765  1
  O  O300  1  0.25919738  0.26259621  0.62383266  1
  O  O301  1  0.25593019  0.75673523  0.12066289  1
  O  O302  1  0.25403887  0.75611380  0.62048208  1
  O  O303  1  0.75470860  0.25520880  0.11714929  1
  O  O304  1  0.75302162  0.24776830  0.61003918  1
  O  O305  1  0.76620263  0.74651520  0.12646629  1
  O  O306  1  0.76189000  0.73811120  0.61482888  1
  O  O307  1  0.24320900  0.24134633  0.37040274  1
  O  O308  1  0.25032047  0.24680063  0.86955779  1
  O  O309  1  0.24615273  0.74914941  0.38369238  1
  O  O310  1  0.24363830  0.74549666  0.88508765  1
  O  O311  1  0.74805685  0.23871563  0.38491460  1
  O  O312  1  0.74235986  0.24127625  0.87565711  1
  O  O313  1  0.74481440  0.74262644  0.38174441  1
  O  O314  1  0.73847018  0.73802353  0.87661656  1
  O  O315  1  0.00578471  0.11550020  0.00494958  1
  O  O316  1  0.00036519  0.12140882  0.49963458  1
  O  O317  1  0.01362546  0.61280595  -0.00323508  1
  O  O318  1  0.00523664  0.61676084  0.50375426  1
  O  O319  1  0.50113312  0.12935425  0.01319145  1
  O  O320  1  0.51352737  0.13125584  0.50101439  1
  O  O321  1  0.49657866  0.63212307  0.02064887  1
  O  O322  1  0.49537539  0.61579056  0.51230153  1
  O  O323  1  0.49522452  0.39005278  0.49977611  1
  O  O324  1  0.49024225  0.36954281  0.98768668  1
  O  O325  1  0.50828924  0.87501903  0.48949041  1
  O  O326  1  0.49757576  0.86480353  1.00938352  1
  O  O327  1  0.99336879  0.38607114  0.50519287  1
  O  O328  1  0.99206779  0.37943040  1.00099631  1
  O  O329  1  0.98778244  0.87703088  0.49404727  1
  O  O330  1  1.00687819  0.88794551  1.00603533  1
  O  O331  1  0.50120518  0.50534062  0.38932627  1
  O  O332  1  0.49498773  0.49248821  0.87609455  1
  O  O333  1  0.48390264  0.99832335  0.37406852  1
  O  O334  1  0.48886343  0.99655467  0.87396147  1
  O  O335  1  0.99280595  0.50425076  0.38500288  1
  O  O336  1  1.00006904  0.49244380  0.88795974  1
  O  O337  1  0.98857831  0.99516554  0.37611898  1
  O  O338  1  0.98247783  0.99935648  0.88078171  1
  O  O339  1  0.00279344  0.00369877  0.11851475  1
  O  O340  1  0.01566386  -0.00036135  0.62816144  1
  O  O341  1  0.01407468  0.49385221  0.11492573  1
  O  O342  1  0.00623639  0.50695279  0.61290401  1
  O  O343  1  0.50449647  0.00971723  0.12633712  1
  O  O344  1  0.51251419  0.00652270  0.65612611  1
  O  O345  1  0.49553573  0.51838215  0.12610032  1
  O  O346  1  0.49761148  0.51412034  0.61788568  1
  O  O347  1  0.24564145  0.38447335  0.24395301  1
  O  O348  1  0.24523578  0.38397078  0.73973522  1
  O  O349  1  0.24518040  0.88286488  0.24389065  1
  O  O350  1  0.23901077  0.87996410  0.73899486  1
  O  O351  1  0.74138402  0.36564022  0.23907533  1
  O  O352  1  0.75811759  0.37055534  0.72929991  1
  O  O353  1  0.73746475  0.87250338  0.25061920  1
  O  O354  1  0.74344437  0.87783149  0.75247917  1
  O  O355  1  0.24387362  0.11459065  0.26034251  1
  O  O356  1  0.25278491  0.11058022  0.74852382  1
  O  O357  1  0.25600659  0.61938926  0.25441312  1
  O  O358  1  0.25823209  0.62238436  0.75394028  1
  O  O359  1  0.75352676  0.13493593  0.26106587  1
  O  O360  1  0.75233034  0.11195849  0.75654886  1
  O  O361  1  0.76318499  0.62963344  0.26315576  1
  O  O362  1  0.76177825  0.62601273  0.76361713  1
  O  O363  1  0.36510282  0.11221272  0.38099274  1
  O  O364  1  0.37548070  0.10404802  0.87756432  1
  O  O365  1  0.36757095  0.63474722  0.36410294  1
  O  O366  1  0.37093680  0.62029589  0.86030173  1
  O  O367  1  0.86537062  0.11651845  0.36824358  1
  O  O368  1  0.86168930  0.11611730  0.86462478  1
  O  O369  1  0.86974777  0.61649256  0.36794265  1
  O  O370  1  0.86703830  0.62247035  0.86693844  1
  O  O371  1  0.13142499  0.38313135  0.12943754  1
  O  O372  1  0.13775331  0.38345344  0.63005797  1
  O  O373  1  0.13538895  0.87970409  0.13284634  1
  O  O374  1  0.13405176  0.88623404  0.62412340  1
  O  O375  1  0.63472386  0.37031147  0.13108601  1
  O  O376  1  0.64451645  0.36835988  0.62195441  1
  O  O377  1  0.62473082  0.88386765  0.13977905  1
  O  O378  1  0.62418751  0.86707641  0.64046736  1
  O  O379  1  0.11758348  0.25399156  0.25325860  1
  O  O380  1  0.13112051  0.26933350  0.74509852  1
  O  O381  1  0.12059662  0.75392913  0.25591332  1
  O  O382  1  0.12740834  0.74507042  0.76933003  1
  O  O383  1  0.61302506  0.25997405  0.24988184  1
  O  O384  1  0.62114634  0.25739814  0.75864034  1
  O  O385  1  0.62468864  0.76144822  0.26503615  1
  O  O386  1  0.61987749  0.74986237  0.75551528  1
  O  O387  1  0.38391961  0.25944905  0.23597692  1
  O  O388  1  0.38624222  0.26038188  0.73464118  1
  O  O389  1  0.37133607  0.74247231  0.24218230  1
  O  O390  1  0.38113889  0.74276238  0.74565473  1
  O  O391  1  0.88142872  0.24471222  0.24601709  1
  O  O392  1  0.86417927  0.22622975  0.74716671  1
  O  O393  1  0.88402087  0.74092706  0.24691797  1
  O  O394  1  0.87328259  0.74016491  0.73993387  1
  O  O395  1  0.38345552  0.49271836  0.50505952  1
  O  O396  1  0.37880148  0.49092353  0.99545530  1
  O  O397  1  0.36994450  0.99881720  0.49283406  1
  O  O398  1  0.37660041  0.99409335  0.98846924  1
  O  O399  1  0.88395309  0.49376955  0.49021163  1
  O  O400  1  0.88641380  0.49109977  1.00351805  1
  O  O401  1  0.87222255  0.98995510  0.49199480  1
  O  O402  1  0.88023742  1.00164678  0.98710450  1
  O  O403  1  0.11621716  0.00852723  0.00533026  1
  O  O404  1  0.12474242  0.00265267  0.51464371  1
  O  O405  1  0.12273240  0.50451463  0.00633123  1
  O  O406  1  0.11939842  0.50521974  0.50214782  1
  O  O407  1  0.61665371  -0.00104093  0.01135729  1
  O  O408  1  0.63213768  0.01550072  0.50232136  1
  O  O409  1  0.61834757  0.49520226  0.01115152  1
  O  O410  1  0.61291402  0.49708786  0.49926959  1
  O  O411  1  0.37253500  0.36896345  0.11548142  1
  O  O412  1  0.36812826  0.37335654  0.61765141  1
  O  O413  1  0.36542951  0.86547926  0.13750156  1
  O  O414  1  0.36540860  0.86086482  0.63436342  1
  O  O415  1  0.86822275  0.36876175  0.11676441  1
  O  O416  1  0.86497419  0.38003173  0.60828305  1
  O  O417  1  0.87280362  0.85819193  0.13795994  1
  O  O418  1  0.87827399  0.86485405  0.61460038  1
  O  O419  1  0.13205250  0.13496166  0.37364066  1
  O  O420  1  0.11550629  0.11907062  0.88818350  1
  O  O421  1  0.13209233  0.63298042  0.38090041  1
  O  O422  1  0.13275068  0.62993475  0.88607661  1
  O  O423  1  0.63100950  0.12424014  0.38306586  1
  O  O424  1  0.63275434  0.13034921  0.86971398  1
  O  O425  1  0.63473093  0.63605169  0.36583328  1
  O  O426  1  0.63768907  0.63253009  0.86976431  1
