# generated using pymatgen
data_V85Zn86O256
_symmetry_space_group_name_H-M   'P 1'
_cell_length_a   16.97719614
_cell_length_b   16.97848922
_cell_length_c   16.96410930
_cell_angle_alpha   89.95703877
_cell_angle_beta   90.09377045
_cell_angle_gamma   90.00988077
_symmetry_Int_Tables_number   1
_chemical_formula_structural   V85Zn86O256
_chemical_formula_sum   'V85 Zn86 O256'
_cell_volume   4889.84802370
_cell_formula_units_Z   1
loop_
 _symmetry_equiv_pos_site_id
 _symmetry_equiv_pos_as_xyz
  1  'x, y, z'
loop_
 _atom_site_type_symbol
 _atom_site_label
 _atom_site_symmetry_multiplicity
 _atom_site_fract_x
 _atom_site_fract_y
 _atom_site_fract_z
 _atom_site_occupancy
  V  V0  1  0.38126232  -0.00435708  0.37421120  1
  V  V1  1  0.37282411  0.87706017  0.00041898  1
  V  V2  1  0.25246349  0.13014021  0.37511367  1
  V  V3  1  0.50551484  0.62212119  0.11233075  1
  V  V4  1  0.74869693  0.62736902  0.37386301  1
  V  V5  1  0.87800372  0.50518171  0.87249145  1
  V  V6  1  0.75461083  0.50260852  0.74945362  1
  V  V7  1  0.62429733  0.76429739  0.37715715  1
  V  V8  1  0.00406190  0.49868944  0.00185563  1
  V  V9  1  0.75645964  0.86904309  0.62928692  1
  V  V10  1  0.62402812  0.62576171  0.49914003  1
  V  V11  1  0.50000667  0.62509349  0.62417541  1
  V  V12  1  -0.00031496  0.25003386  0.74705498  1
  V  V13  1  0.12297652  0.75491504  0.87665158  1
  V  V14  1  0.61973524  0.37063191  0.75169365  1
  V  V15  1  0.18246950  0.42810604  0.18549445  1
  V  V16  1  0.87665606  0.37819713  0.49998870  1
  V  V17  1  0.39258697  0.24396204  0.63143188  1
  V  V18  1  0.50138606  -0.00177263  0.49942698  1
  V  V19  1  -0.00359110  0.11174734  0.62089690  1
  V  V20  1  0.37787526  0.37324397  0.49906459  1
  V  V21  1  0.37061861  0.61279042  0.25236641  1
  V  V22  1  0.00098858  0.24267294  0.24765868  1
  V  V23  1  0.62463099  0.38048443  0.24669196  1
  V  V24  1  0.24699519  0.00657218  0.24488158  1
  V  V25  1  0.36813522  -0.00011717  0.86893894  1
  V  V26  1  0.75298970  0.12569971  0.37019411  1
  V  V27  1  -0.00275347  0.75094625  0.74056650  1
  V  V28  1  0.88126396  -0.00544398  0.88187678  1
  V  V29  1  0.13846412  0.73958489  0.38327492  1
  V  V30  1  0.00385282  0.62013459  0.12616461  1
  V  V31  1  0.00270467  0.00159304  0.02206748  1
  V  V32  1  0.87633639  0.37416518  0.00079487  1
  V  V33  1  0.24819556  0.49783630  0.75522837  1
  V  V34  1  0.00074247  0.37353254  0.87504664  1
  V  V35  1  0.62216307  0.12545870  0.00692115  1
  V  V36  1  0.87630661  0.75579964  0.11721745  1
  V  V37  1  0.37241799  0.62635444  0.75109218  1
  V  V38  1  0.38960394  0.12849185  0.75083820  1
  V  V39  1  0.87436257  0.12505874  0.75226495  1
  V  V40  1  0.49783866  0.74927410  0.74891806  1
  V  V41  1  0.61743189  0.00643749  0.62923152  1
  V  V42  1  0.74675849  0.25116144  0.50053318  1
  V  V43  1  0.62217457  0.25186925  0.37390785  1
  V  V44  1  0.25415689  0.36842608  0.63107885  1
  V  V45  1  0.75005842  0.24965198  -0.00114110  1
  V  V46  1  0.24746355  0.12233115  0.86811623  1
  V  V47  1  0.24684527  0.24520412  0.50387155  1
  V  V48  1  0.38284996  0.50001099  0.88336305  1
  V  V49  1  0.50205904  0.75474779  0.25424158  1
  V  V50  1  0.36658367  0.37213433  0.00260661  1
  V  V51  1  0.75167786  0.12468819  0.87824394  1
  V  V52  1  0.76056021  0.75097418  0.50615061  1
  V  V53  1  0.12831138  0.12629430  0.01893760  1
  V  V54  1  0.00072889  0.37421870  0.37065841  1
  V  V55  1  0.24810371  0.87910781  0.12657102  1
  V  V56  1  0.12680339  0.37479785  0.75147962  1
  V  V57  1  0.14451118  0.00289065  0.62517390  1
  V  V58  1  0.74820399  0.74368477  -0.00066612  1
  V  V59  1  0.00283763  0.75042643  0.25285120  1
  V  V60  1  0.62598377  0.50528912  0.10943309  1
  V  V61  1  0.37563901  0.74902155  0.12617309  1
  V  V62  1  0.74477875  0.87700926  0.12112355  1
  V  V63  1  0.12625615  0.88048403  0.24872078  1
  V  V64  1  0.49856677  0.87441259  0.87603616  1
  V  V65  1  -0.00672652  0.88746529  0.37782504  1
  V  V66  1  0.24923478  0.75118189  0.00251897  1
  V  V67  1  0.62441938  0.50216168  0.62440168  1
  V  V68  1  0.38039471  0.12958576  0.24184288  1
  V  V69  1  0.49738675  0.38196616  0.37410336  1
  V  V70  1  0.49870701  0.00456788  0.00636840  1
  V  V71  1  0.13066561  0.24577438  0.87888111  1
  V  V72  1  0.62328572  0.87429647  0.75191815  1
  V  V73  1  0.36904203  0.25085344  0.11793539  1
  V  V74  1  0.62408089  0.74128760  0.87971410  1
  V  V75  1  0.12723886  0.62153032  0.00478904  1
  V  V76  1  0.50267669  0.37050450  0.88048697  1
  V  V77  1  0.75034690  0.37862824  0.12463161  1
  V  V78  1  0.87551805  0.24225257  0.12721995  1
  V  V79  1  0.74881382  -0.00124819  0.75450111  1
  V  V80  1  0.87527582  0.62563329  0.24977858  1
  V  V81  1  0.87863125  0.50402750  0.37770885  1
  V  V82  1  0.49872099  0.24938877  0.23962438  1
  V  V83  1  0.25279769  0.85761914  0.62412171  1
  V  V84  1  0.75013125  0.37637298  0.62520774  1
  Zn  Zn85  1  0.12955388  0.50297708  0.60734233  1
  Zn  Zn86  1  0.61844577  0.00385956  0.12975706  1
  Zn  Zn87  1  0.49610207  0.50271222  0.49593181  1
  Zn  Zn88  1  0.37170398  0.74277093  0.60736549  1
  Zn  Zn89  1  0.25032117  0.62507487  0.87896643  1
  Zn  Zn90  1  0.61976535  0.88107403  0.25490381  1
  Zn  Zn91  1  0.12903857  0.88406920  0.75551454  1
  Zn  Zn92  1  0.12518768  0.25049503  0.37384130  1
  Zn  Zn93  1  0.74877746  0.50345129  0.24851399  1
  Zn  Zn94  1  0.00314401  0.59613915  0.58720793  1
  Zn  Zn95  1  -0.00073026  0.87709104  0.88291438  1
  Zn  Zn96  1  0.37429851  0.86700179  0.49038570  1
  Zn  Zn97  1  0.61501632  0.13033769  0.50942876  1
  Zn  Zn98  1  0.11235386  0.11789139  0.49460871  1
  Zn  Zn99  1  0.62030461  0.24483711  0.87093957  1
  Zn  Zn100  1  0.87448196  0.24976469  0.62471461  1
  Zn  Zn101  1  0.74914878  -0.00840481  0.25737223  1
  Zn  Zn102  1  0.87537082  0.63936626  0.73117430  1
  Zn  Zn103  1  0.74679964  0.62222172  0.87846483  1
  Zn  Zn104  1  0.31122752  0.53709361  0.39439598  1
  Zn  Zn105  1  0.87772799  0.11481832  0.25246826  1
  Zn  Zn106  1  0.88738657  0.89485750  0.50832070  1
  Zn  Zn107  1  0.19880425  0.22379890  0.19522674  1
  Zn  Zn108  1  0.18947000  0.18357169  0.68871506  1
  Zn  Zn109  1  0.18819709  0.68782890  0.19254663  1
  Zn  Zn110  1  0.17575589  0.68260730  0.68408956  1
  Zn  Zn111  1  0.68676156  0.19304985  0.18613713  1
  Zn  Zn112  1  0.68816281  0.18759419  0.68985923  1
  Zn  Zn113  1  0.68592689  0.69070755  0.18845379  1
  Zn  Zn114  1  0.68633317  0.68772270  0.68991566  1
  Zn  Zn115  1  0.29945424  0.34349252  0.31636945  1
  Zn  Zn116  1  0.31650436  0.30826160  0.81627123  1
  Zn  Zn117  1  0.31428902  0.80956655  0.30969638  1
  Zn  Zn118  1  0.30607821  0.81479768  0.81018511  1
  Zn  Zn119  1  0.81329618  0.31279698  0.30957527  1
  Zn  Zn120  1  0.81218646  0.31390763  0.81341928  1
  Zn  Zn121  1  0.81130902  0.81163778  0.30983853  1
  Zn  Zn122  1  0.81308353  0.81332016  0.81680451  1
  Zn  Zn123  1  0.19030111  0.42746170  0.43117690  1
  Zn  Zn124  1  0.18922795  0.43582448  0.93931791  1
  Zn  Zn125  1  0.18493563  0.93354992  0.44200825  1
  Zn  Zn126  1  0.18325447  0.94361433  0.94448167  1
  Zn  Zn127  1  0.68856182  0.44100715  0.43533611  1
  Zn  Zn128  1  0.69049079  0.43621565  0.93462431  1
  Zn  Zn129  1  0.71365865  0.95416506  0.45927429  1
  Zn  Zn130  1  0.68744484  0.93469636  0.94134014  1
  Zn  Zn131  1  0.31039605  0.06866345  0.05906394  1
  Zn  Zn132  1  0.32264192  0.06427525  0.56238235  1
  Zn  Zn133  1  0.30954733  0.55672084  0.07172231  1
  Zn  Zn134  1  0.31174771  0.55625521  0.57000389  1
  Zn  Zn135  1  0.81399986  0.05970866  0.06120527  1
  Zn  Zn136  1  0.81130176  0.06243490  0.56553539  1
  Zn  Zn137  1  0.81553463  0.56358757  0.06247237  1
  Zn  Zn138  1  0.81546336  0.56668787  0.56147943  1
  Zn  Zn139  1  0.44179710  0.43745853  0.18040389  1
  Zn  Zn140  1  0.43802890  0.43763041  0.68935790  1
  Zn  Zn141  1  0.43355156  0.93800748  0.18944505  1
  Zn  Zn142  1  0.43416949  0.93606948  0.68618836  1
  Zn  Zn143  1  0.93934284  0.43548342  0.19037966  1
  Zn  Zn144  1  0.94239035  0.44689658  0.68016611  1
  Zn  Zn145  1  0.92973507  0.93686216  0.19491525  1
  Zn  Zn146  1  0.94011539  0.93393664  0.69837504  1
  Zn  Zn147  1  0.06479885  0.06604750  0.31094956  1
  Zn  Zn148  1  0.06198138  0.06171649  0.80892802  1
  Zn  Zn149  1  0.07127601  0.55609724  0.31716689  1
  Zn  Zn150  1  0.06403814  0.56898962  0.81037271  1
  Zn  Zn151  1  0.56545496  0.06187539  0.31393184  1
  Zn  Zn152  1  0.56280980  0.05979640  0.82080182  1
  Zn  Zn153  1  0.56173795  0.56790263  0.30582686  1
  Zn  Zn154  1  0.56132482  0.55904565  0.81088816  1
  Zn  Zn155  1  0.43809961  0.18623284  0.43780728  1
  Zn  Zn156  1  0.43940976  0.18810641  0.93382012  1
  Zn  Zn157  1  0.43849068  0.68860884  0.43336257  1
  Zn  Zn158  1  0.43526788  0.68924621  0.93615712  1
  Zn  Zn159  1  0.93351510  0.19017424  0.43883969  1
  Zn  Zn160  1  0.94289885  0.18153139  0.94251373  1
  Zn  Zn161  1  0.94214028  0.69449636  0.44040153  1
  Zn  Zn162  1  0.93956446  0.68791087  0.93689171  1
  Zn  Zn163  1  0.06171288  0.30815143  0.06312188  1
  Zn  Zn164  1  0.06123794  0.32134113  0.56464974  1
  Zn  Zn165  1  0.06296451  0.81511675  0.06372329  1
  Zn  Zn166  1  0.06871628  0.81610022  0.55836013  1
  Zn  Zn167  1  0.56224384  0.31714563  0.05674448  1
  Zn  Zn168  1  0.56389519  0.31786135  0.56324704  1
  Zn  Zn169  1  0.56129885  0.81083483  0.06167459  1
  Zn  Zn170  1  0.56284605  0.81593097  0.56112342  1
  O  O171  1  0.13890802  0.14149011  0.11498120  1
  O  O172  1  0.11778235  0.11460027  0.62523115  1
  O  O173  1  0.11417904  0.63396361  0.11684588  1
  O  O174  1  0.10716958  0.61011029  0.63859716  1
  O  O175  1  0.63215908  0.12376924  0.11126165  1
  O  O176  1  0.63100438  0.11149914  0.62826317  1
  O  O177  1  0.61323816  0.62143870  0.12870705  1
  O  O178  1  0.61969006  0.62081579  0.62062084  1
  O  O179  1  0.38964607  0.35850032  0.38774950  1
  O  O180  1  0.38342694  0.37919422  0.88296563  1
  O  O181  1  0.36646700  0.89299435  0.37021834  1
  O  O182  1  0.37668372  0.88186967  0.87947425  1
  O  O183  1  0.87779629  0.38284999  0.38026416  1
  O  O184  1  0.88072283  0.38311588  0.88099709  1
  O  O185  1  0.89251021  0.87115688  0.36574035  1
  O  O186  1  0.87362352  0.89121719  0.87808051  1
  O  O187  1  0.25772578  0.01261356  0.36527513  1
  O  O188  1  0.26027997  0.00599552  0.88041198  1
  O  O189  1  0.26238625  0.44950517  0.34962267  1
  O  O190  1  0.26280054  0.49995877  0.86934705  1
  O  O191  1  0.72743029  0.02599209  0.37093526  1
  O  O192  1  0.75741182  0.00466165  0.87539764  1
  O  O193  1  0.75926164  0.50812130  0.37111178  1
  O  O194  1  0.75948000  0.50067711  0.86672197  1
  O  O195  1  0.24742644  0.48658049  0.13377179  1
  O  O196  1  0.25188189  0.48797230  0.64322793  1
  O  O197  1  0.25914822  0.99733001  0.13802804  1
  O  O198  1  0.24489265  1.00603303  0.62944996  1
  O  O199  1  0.74493002  0.49715367  0.12656440  1
  O  O200  1  0.74503188  0.49576629  0.63245288  1
  O  O201  1  0.74872588  0.98121174  0.11472674  1
  O  O202  1  0.73809528  0.99082412  0.63769386  1
  O  O203  1  -0.00933443  0.36166578  0.26369436  1
  O  O204  1  0.00572549  0.36707096  0.75641377  1
  O  O205  1  0.00807284  0.86930305  0.25314313  1
  O  O206  1  0.00703822  0.86405545  0.76013764  1
  O  O207  1  0.50350002  0.36812281  0.25561365  1
  O  O208  1  0.51285010  0.38408487  0.75958249  1
  O  O209  1  0.50123448  0.85963626  0.24032394  1
  O  O210  1  0.50255997  0.86879106  0.75697643  1
  O  O211  1  0.49045173  0.13818634  0.25800958  1
  O  O212  1  0.48891683  0.12704750  0.76484709  1
  O  O213  1  0.49210456  0.63632565  0.24081875  1
  O  O214  1  0.49051756  0.62786076  0.74521907  1
  O  O215  1  0.99242653  0.13816215  0.25917284  1
  O  O216  1  0.99374948  0.13295554  0.74103509  1
  O  O217  1  0.99753080  0.63275149  0.24280005  1
  O  O218  1  0.99663723  0.64584905  0.76150864  1
  O  O219  1  0.38762346  0.26286544  0.00433207  1
  O  O220  1  0.37045569  0.25393366  0.51055241  1
  O  O221  1  0.36896762  0.75721968  0.00489158  1
  O  O222  1  0.37554246  0.75351791  0.49573218  1
  O  O223  1  0.87312004  0.25416865  0.00696332  1
  O  O224  1  0.86050725  0.26043839  0.50089931  1
  O  O225  1  0.86868395  0.74608852  0.00950888  1
  O  O226  1  0.86135127  0.75949054  0.49350615  1
  O  O227  1  0.13932121  0.24782107  0.50331541  1
  O  O228  1  0.11345499  0.23571709  0.98797385  1
  O  O229  1  0.12130062  0.75106590  0.48188259  1
  O  O230  1  0.12963132  0.74326176  0.99677882  1
  O  O231  1  0.63036577  0.25393645  0.49213446  1
  O  O232  1  0.63115339  0.24245769  0.99790388  1
  O  O233  1  0.62830532  0.74278072  0.49330873  1
  O  O234  1  0.63158163  0.75328604  0.98825658  1
  O  O235  1  0.49835920  0.25633695  0.13573402  1
  O  O236  1  0.49173629  0.25105017  0.62107750  1
  O  O237  1  0.49711035  0.73971480  0.13040794  1
  O  O238  1  0.49918376  0.74293733  0.63300626  1
  O  O239  1  0.98926111  0.25616167  0.13925337  1
  O  O240  1  1.00018967  0.24805241  0.63847168  1
  O  O241  1  0.99447245  0.74480436  0.13120567  1
  O  O242  1  1.00920339  0.75861888  0.64123724  1
  O  O243  1  -0.00642501  0.25737873  0.36445624  1
  O  O244  1  0.00667340  0.25122852  0.86509857  1
  O  O245  1  0.00765240  0.75833867  0.36121506  1
  O  O246  1  0.01095676  0.75679072  0.88030292  1
  O  O247  1  0.50805894  0.25868996  0.36742676  1
  O  O248  1  0.50274336  0.26452102  0.87414665  1
  O  O249  1  0.51249715  0.74613219  0.36481361  1
  O  O250  1  0.50571078  0.75477094  0.87068185  1
  O  O251  1  0.25825607  0.13319653  0.49015615  1
  O  O252  1  0.23452724  0.11961965  0.98696257  1
  O  O253  1  0.23564159  0.57711137  0.48408520  1
  O  O254  1  0.24229125  0.63044880  1.00574553  1
  O  O255  1  0.74291989  0.14052716  0.49184751  1
  O  O256  1  0.74318273  0.12934611  0.99609120  1
  O  O257  1  0.74505461  0.63403161  0.49645452  1
  O  O258  1  0.75276411  0.63794968  0.99909209  1
  O  O259  1  0.26764259  0.36948926  -0.00869748  1
  O  O260  1  0.26041962  0.36149054  0.50906706  1
  O  O261  1  0.25368281  0.87275834  0.00772463  1
  O  O262  1  0.25479077  0.88296945  0.51921890  1
  O  O263  1  0.75713375  0.36952512  0.00425425  1
  O  O264  1  0.75416952  0.36884899  0.50324340  1
  O  O265  1  0.74719002  0.86012454  0.01148757  1
  O  O266  1  0.73619055  0.85827623  0.51782667  1
  O  O267  1  0.12453827  0.48536122  0.24649736  1
  O  O268  1  0.13853721  0.49088642  0.76604978  1
  O  O269  1  0.13746558  0.99455685  0.25453393  1
  O  O270  1  0.11741077  0.99914533  0.73053731  1
  O  O271  1  0.62667884  0.49547890  0.23900534  1
  O  O272  1  0.63629425  0.49402206  0.74595830  1
  O  O273  1  0.62919525  0.99788073  0.24425159  1
  O  O274  1  0.62789260  0.99386392  0.74992697  1
  O  O275  1  0.37046164  0.01117052  0.25499157  1
  O  O276  1  0.38218817  0.00797579  0.76394627  1
  O  O277  1  0.38359574  0.51393121  0.24128620  1
  O  O278  1  0.36850958  0.50695672  0.75920948  1
  O  O279  1  0.85935672  0.00565964  0.24365980  1
  O  O280  1  0.86900311  0.00617723  0.76141968  1
  O  O281  1  0.87447693  0.50736072  0.25987263  1
  O  O282  1  0.86866949  0.49281460  0.75917560  1
  O  O283  1  0.10265947  0.36847915  0.38739493  1
  O  O284  1  0.12060143  0.36388753  0.87383817  1
  O  O285  1  0.11740972  0.86950378  0.36480436  1
  O  O286  1  0.12910633  0.86616238  0.87744944  1
  O  O287  1  0.61939769  0.36868267  0.36937281  1
  O  O288  1  0.61866252  0.37635156  0.86855032  1
  O  O289  1  0.63676017  0.86429650  0.37709901  1
  O  O290  1  0.61872991  0.86719178  0.87062518  1
  O  O291  1  0.37572560  0.13128578  0.13444438  1
  O  O292  1  0.37428400  0.13160901  0.63958451  1
  O  O293  1  0.38778879  0.62841766  0.12982410  1
  O  O294  1  0.37842123  0.62391895  0.63480210  1
  O  O295  1  0.86509469  0.14039925  0.12623175  1
  O  O296  1  0.87877540  0.12772995  0.63228295  1
  O  O297  1  0.88469335  0.63445817  0.12931666  1
  O  O298  1  0.89561425  0.60227237  0.62783303  1
  O  O299  1  0.27064282  0.24421778  0.11001374  1
  O  O300  1  0.25947763  0.24975419  0.62002592  1
  O  O301  1  0.25556492  0.75817133  0.12146533  1
  O  O302  1  0.24561269  0.75511312  0.62438071  1
  O  O303  1  0.75643736  0.25931302  0.11864193  1
  O  O304  1  0.74840714  0.25704917  0.61598689  1
  O  O305  1  0.75591126  0.75412069  0.11798203  1
  O  O306  1  0.74706059  0.75605595  0.62114477  1
  O  O307  1  0.25063364  0.24477743  0.38412711  1
  O  O308  1  0.23792292  0.24127944  0.87276050  1
  O  O309  1  0.23698744  0.75742032  0.37063494  1
  O  O310  1  0.24209788  0.74828455  0.88412812  1
  O  O311  1  0.74041948  0.25020450  0.38173068  1
  O  O312  1  0.75097781  0.24327922  0.88248505  1
  O  O313  1  0.74380972  0.74547796  0.38351303  1
  O  O314  1  0.74225414  0.74825428  0.88182351  1
  O  O315  1  0.01610481  0.11558670  0.00289844  1
  O  O316  1  -0.00155119  0.13854699  0.51597830  1
  O  O317  1  0.00779322  0.62043942  0.00820784  1
  O  O318  1  -0.00246994  0.60927021  0.47665046  1
  O  O319  1  0.50984579  0.11601827  -0.00836558  1
  O  O320  1  0.50076184  0.10992173  0.49650857  1
  O  O321  1  0.49720656  0.63143791  0.01375161  1
  O  O322  1  0.50568263  0.62131551  0.50585916  1
  O  O323  1  0.49429982  0.37734949  0.49245217  1
  O  O324  1  0.49496325  0.38006092  0.98734303  1
  O  O325  1  0.49610800  0.89137062  0.50396378  1
  O  O326  1  0.49231440  0.88100225  0.99502122  1
  O  O327  1  0.98326454  0.35845893  0.48536102  1
  O  O328  1  0.99537191  0.37897958  0.99365874  1
  O  O329  1  0.99737481  0.87121849  0.48362082  1
  O  O330  1  1.01172685  0.89680926  1.00131122  1
  O  O331  1  0.50629702  0.48569524  0.37288226  1
  O  O332  1  0.48838584  0.49275397  0.87062688  1
  O  O333  1  0.48996557  1.00443809  0.38003770  1
  O  O334  1  0.49014166  0.99272403  0.88617522  1
  O  O335  1  0.99033976  0.48334959  0.36703509  1
  O  O336  1  0.99466173  0.49435529  0.87894076  1
  O  O337  1  1.00561672  0.98629158  0.36853108  1
  O  O338  1  0.99221641  1.00058477  0.87716984  1
  O  O339  1  -0.00482308  0.00020886  0.12042455  1
  O  O340  1  -0.00555621  0.00956951  0.62643626  1
  O  O341  1  -0.00886810  0.51337120  0.11968079  1
  O  O342  1  0.01849910  0.47370843  0.60521017  1
  O  O343  1  0.49735370  -0.00558922  0.11023452  1
  O  O344  1  0.50992653  -0.00479531  0.62114246  1
  O  O345  1  0.50972875  0.51476716  0.12484402  1
  O  O346  1  0.50659936  0.50710895  0.62454370  1
  O  O347  1  0.22889787  0.34142062  0.22886914  1
  O  O348  1  0.24832750  0.37931398  0.75156880  1
  O  O349  1  0.24481230  0.88693698  0.24629810  1
  O  O350  1  0.24505387  0.87199730  0.73298897  1
  O  O351  1  0.74228299  0.37640638  0.24233755  1
  O  O352  1  0.74444799  0.38524460  0.74644631  1
  O  O353  1  0.74503811  0.86982677  0.23446529  1
  O  O354  1  0.74320506  0.87818554  0.74760180  1
  O  O355  1  0.25855179  0.12615129  0.25592674  1
  O  O356  1  0.25953935  0.12604090  0.76363742  1
  O  O357  1  0.27148694  0.62783501  0.23986323  1
  O  O358  1  0.25765836  0.61542711  0.75223009  1
  O  O359  1  0.74857036  0.13762554  0.26512231  1
  O  O360  1  0.75514642  0.11941257  0.75823823  1
  O  O361  1  0.75834839  0.62848926  0.25503416  1
  O  O362  1  0.75597644  0.61340716  0.75028041  1
  O  O363  1  0.36800752  0.12223564  0.36397201  1
  O  O364  1  0.36691820  0.11969833  0.87203781  1
  O  O365  1  0.38051674  0.61936955  0.35978700  1
  O  O366  1  0.37421941  0.61665927  0.86949981  1
  O  O367  1  0.85539015  0.13178336  0.37774189  1
  O  O368  1  0.87091540  0.11789045  0.87222996  1
  O  O369  1  0.86860893  0.62026566  0.36883570  1
  O  O370  1  0.87544089  0.61057651  0.87530205  1
  O  O371  1  0.12037330  0.38510579  0.11752711  1
  O  O372  1  0.13947705  0.37093582  0.63491842  1
  O  O373  1  0.13249588  0.87052311  0.13995902  1
  O  O374  1  0.13808800  0.88747440  0.62292499  1
  O  O375  1  0.62926313  0.38543045  0.12647869  1
  O  O376  1  0.63012731  0.38217537  0.63288521  1
  O  O377  1  0.63665775  0.87242008  0.12548231  1
  O  O378  1  0.63126390  0.88180428  0.63590207  1
  O  O379  1  0.10407296  0.24467289  0.25402461  1
  O  O380  1  0.11821241  0.25360777  0.75803031  1
  O  O381  1  0.11822666  0.76021678  0.25391716  1
  O  O382  1  0.11638341  0.75002098  0.76427983  1
  O  O383  1  0.61695232  0.25895099  0.25441539  1
  O  O384  1  0.63484559  0.26650258  0.75282045  1
  O  O385  1  0.61858613  0.75145572  0.26003722  1
  O  O386  1  0.61840803  0.75512464  0.75894856  1
  O  O387  1  0.38227153  0.24647036  0.23820061  1
  O  O388  1  0.37301963  0.24185722  0.74247706  1
  O  O389  1  0.38401526  0.74369094  0.24463529  1
  O  O390  1  0.37827604  0.73603721  0.75541864  1
  O  O391  1  0.88045711  0.24709016  0.24252116  1
  O  O392  1  0.88367476  0.24556523  0.75058627  1
  O  O393  1  0.88564791  0.74461731  0.24186063  1
  O  O394  1  0.89042334  0.75440224  0.75735932  1
  O  O395  1  0.37455051  0.48189468  0.50034216  1
  O  O396  1  0.37000030  0.48816380  0.99265728  1
  O  O397  1  0.38265768  0.99953862  0.48976903  1
  O  O398  1  0.37993627  0.99775943  0.99188211  1
  O  O399  1  0.86532032  0.48807246  0.48717752  1
  O  O400  1  0.88223742  0.49469926  0.99203215  1
  O  O401  1  0.82570934  0.98474778  0.48933101  1
  O  O402  1  0.89450276  1.01221425  0.99456686  1
  O  O403  1  0.11667012  0.01501559  0.00674162  1
  O  O404  1  0.12845616  0.00379141  0.51728651  1
  O  O405  1  0.12022485  0.51307735  -0.00863960  1
  O  O406  1  0.16955379  0.52176438  0.49352894  1
  O  O407  1  0.61571832  0.00670309  0.00109661  1
  O  O408  1  0.61951637  0.00252779  0.51301025  1
  O  O409  1  0.63308467  0.50109799  0.00994174  1
  O  O410  1  0.62603497  0.50746716  0.50691839  1
  O  O411  1  0.38298743  0.36923408  0.10876466  1
  O  O412  1  0.37366874  0.36511734  0.62104752  1
  O  O413  1  0.36764846  0.86938551  0.12023089  1
  O  O414  1  0.36175876  0.86747045  0.62875569  1
  O  O415  1  0.87022889  0.36896023  0.11973173  1
  O  O416  1  0.86760529  0.37507815  0.61523113  1
  O  O417  1  0.86325627  0.86153038  0.13030244  1
  O  O418  1  0.85948970  0.88269532  0.62866093  1
  O  O419  1  0.13810819  0.12833893  0.37838141  1
  O  O420  1  0.13178343  0.13063668  0.87168510  1
  O  O421  1  0.12811142  0.64138222  0.36053484  1
  O  O422  1  0.12730843  0.63597579  0.88836569  1
  O  O423  1  0.62835992  0.14383322  0.37597178  1
  O  O424  1  0.63370118  0.12535359  0.88566746  1
  O  O425  1  0.63179359  0.63023149  0.37995331  1
  O  O426  1  0.62517879  0.63703717  0.86724614  1
