# generated using pymatgen
data_V85Zn86O256
_symmetry_space_group_name_H-M   'P 1'
_cell_length_a   16.96833252
_cell_length_b   16.97195455
_cell_length_c   16.98023148
_cell_angle_alpha   89.64527448
_cell_angle_beta   89.95899529
_cell_angle_gamma   90.05388751
_symmetry_Int_Tables_number   1
_chemical_formula_structural   V85Zn86O256
_chemical_formula_sum   'V85 Zn86 O256'
_cell_volume   4889.96785506
_cell_formula_units_Z   1
loop_
 _symmetry_equiv_pos_site_id
 _symmetry_equiv_pos_as_xyz
  1  'x, y, z'
loop_
 _atom_site_type_symbol
 _atom_site_label
 _atom_site_symmetry_multiplicity
 _atom_site_fract_x
 _atom_site_fract_y
 _atom_site_fract_z
 _atom_site_occupancy
  V  V0  1  0.25115439  0.63127141  0.88438701  1
  V  V1  1  0.74712090  0.12791193  0.87156379  1
  V  V2  1  0.74795504  0.00069573  0.24740294  1
  V  V3  1  0.75364853  0.37478490  0.62472949  1
  V  V4  1  0.49391687  0.87912780  0.87544337  1
  V  V5  1  0.00255755  0.61419239  0.12179961  1
  V  V6  1  0.25535531  0.60747145  0.37089576  1
  V  V7  1  0.12616003  0.75561039  0.87660603  1
  V  V8  1  0.74804071  0.87648908  0.12471334  1
  V  V9  1  0.37499490  0.12844967  0.25211294  1
  V  V10  1  0.62227271  -0.00108460  0.12462059  1
  V  V11  1  0.87502058  -0.00019994  0.87404473  1
  V  V12  1  0.87606244  0.50036076  0.37561812  1
  V  V13  1  0.13032879  0.62860145  0.49500863  1
  V  V14  1  0.37267791  0.75596560  0.62096837  1
  V  V15  1  0.25287680  0.24565318  0.00240297  1
  V  V16  1  0.12730633  0.36827137  0.76002271  1
  V  V17  1  0.87487652  0.75117617  0.12495479  1
  V  V18  1  0.00112805  0.12916249  0.12648158  1
  V  V19  1  0.49642801  0.38091112  0.87718199  1
  V  V20  1  0.01525801  0.24839790  0.25279139  1
  V  V21  1  0.87512692  0.13358311  0.24739171  1
  V  V22  1  0.37904909  0.25113980  0.63054496  1
  V  V23  1  0.61744657  0.25112916  0.86931359  1
  V  V24  1  0.62142655  0.37405556  0.74947608  1
  V  V25  1  0.62248446  0.12720217  0.49844933  1
  V  V26  1  0.49866729  0.25355846  0.24846416  1
  V  V27  1  0.75109127  0.86695712  0.61669685  1
  V  V28  1  0.25346733  0.49986590  0.76064230  1
  V  V29  1  0.62486472  0.87637181  0.75026363  1
  V  V30  1  0.61869466  0.87425569  0.25454880  1
  V  V31  1  0.37145316  0.61420959  0.24984712  1
  V  V32  1  0.75351165  0.50129101  0.75191505  1
  V  V33  1  0.25005572  -0.00043449  0.25204582  1
  V  V34  1  0.88050205  0.50005675  0.88504774  1
  V  V35  1  0.75082164  0.62567689  0.87960266  1
  V  V36  1  0.87374314  0.62579719  0.25086558  1
  V  V37  1  0.13032974  0.39435473  0.24366926  1
  V  V38  1  0.49525546  0.13036113  0.12462087  1
  V  V39  1  0.49911997  0.74917796  0.74943292  1
  V  V40  1  0.00833499  0.00404226  0.49852961  1
  V  V41  1  0.37737893  0.11958030  0.75611104  1
  V  V42  1  0.25242875  0.37448713  0.62734684  1
  V  V43  1  0.12086137  0.61521890  0.00280477  1
  V  V44  1  0.00973665  0.37082082  0.37574086  1
  V  V45  1  0.12710091  0.50252668  0.62745272  1
  V  V46  1  0.87421177  0.87776903  0.00014753  1
  V  V47  1  0.37749203  -0.01303125  0.37626933  1
  V  V48  1  0.49994498  0.13164810  0.62388470  1
  V  V49  1  0.87225860  -0.00494760  0.37647295  1
  V  V50  1  0.00102369  0.24765610  0.75430283  1
  V  V51  1  0.24104725  0.24658102  0.49755980  1
  V  V52  1  0.00107802  0.37621803  0.88504214  1
  V  V53  1  0.74809032  0.12676982  0.37390815  1
  V  V54  1  0.62503882  0.74479658  0.38406389  1
  V  V55  1  0.00182879  0.75018503  0.25467306  1
  V  V56  1  0.50641008  0.62904688  0.11987367  1
  V  V57  1  0.49911935  0.50138709  -0.00239168  1
  V  V58  1  0.37496571  0.62021839  0.75542613  1
  V  V59  1  0.75105333  0.25192246  0.49925277  1
  V  V60  1  0.00408762  0.49982844  0.49958656  1
  V  V61  1  0.62060425  0.12328273  -0.00457581  1
  V  V62  1  0.62307542  0.25775621  0.37056165  1
  V  V63  1  0.24085763  0.12871416  0.37868847  1
  V  V64  1  0.74249878  0.49691757  0.25163692  1
  V  V65  1  0.50503763  0.62391324  0.62052434  1
  V  V66  1  0.49359781  -0.00992750  0.49623907  1
  V  V67  1  0.12274942  0.00149313  0.12450349  1
  V  V68  1  0.25863606  0.38211911  0.12738485  1
  V  V69  1  0.74642930  0.62616282  0.38955578  1
  V  V70  1  0.25420567  0.75778344  0.48913410  1
  V  V71  1  0.24717246  0.87229339  0.11558803  1
  V  V72  1  0.12354915  0.86853734  0.25385305  1
  V  V73  1  0.62730130  0.49572535  0.12329827  1
  V  V74  1  0.48963440  -0.00094258  -0.00347859  1
  V  V75  1  0.49671119  0.38097518  0.37143282  1
  V  V76  1  0.74747545  0.75010808  0.00064440  1
  V  V77  1  0.25097109  -0.01194072  0.75594094  1
  V  V78  1  0.37531923  0.37947373  0.49630580  1
  V  V79  1  0.50394036  0.50357587  0.49738102  1
  V  V80  1  0.74947954  0.00009275  0.74596183  1
  V  V81  1  0.49647180  0.75304836  0.25325799  1
  V  V82  1  0.62541520  0.74581280  0.88073731  1
  V  V83  1  0.00363137  0.87529463  0.86745231  1
  V  V84  1  0.36877788  0.75198619  0.11746084  1
  Zn  Zn85  1  -0.12016765  0.38105846  0.01460085  1
  Zn  Zn86  1  0.87989123  0.12576657  0.74576231  1
  Zn  Zn87  1  0.87482283  0.86549776  0.49506557  1
  Zn  Zn88  1  0.36243048  0.87626469  -0.01038043  1
  Zn  Zn89  1  0.00249148  0.86895461  0.37732945  1
  Zn  Zn90  1  0.00492442  0.75224391  0.74330485  1
  Zn  Zn91  1  0.76167158  0.36223876  0.13354517  1
  Zn  Zn92  1  0.63018438  0.50702749  0.61981917  1
  Zn  Zn93  1  0.13117371  0.00179465  0.62696312  1
  Zn  Zn94  1  0.24713919  0.12667351  0.87376278  1
  Zn  Zn95  1  0.00728774  0.13144122  0.61416440  1
  Zn  Zn96  1  0.11681076  0.14018013  -0.00999466  1
  Zn  Zn97  1  0.24470644  0.87438510  0.62478557  1
  Zn  Zn98  1  0.87784437  0.24595381  0.62338815  1
  Zn  Zn99  1  0.38634984  0.36758809  0.01186970  1
  Zn  Zn100  1  0.00134201  0.62966697  0.62667152  1
  Zn  Zn101  1  -0.00004344  0.00233089  -0.00072815  1
  Zn  Zn102  1  0.62347065  0.00113996  0.61987200  1
  Zn  Zn103  1  0.87874045  0.74272135  0.61836967  1
  Zn  Zn104  1  0.75296851  0.25832192  0.00455236  1
  Zn  Zn105  1  0.87933534  0.37356928  0.49952677  1
  Zn  Zn106  1  0.88342189  0.63045803  0.74997795  1
  Zn  Zn107  1  0.19178492  0.19119759  0.18338278  1
  Zn  Zn108  1  0.18887046  0.18059384  0.68218257  1
  Zn  Zn109  1  0.18597943  0.68418030  0.18642417  1
  Zn  Zn110  1  0.18682956  0.69226092  0.68936199  1
  Zn  Zn111  1  0.68397126  0.18549357  0.18740272  1
  Zn  Zn112  1  0.68563150  0.18994671  0.68608353  1
  Zn  Zn113  1  0.68706320  0.68662999  0.19305830  1
  Zn  Zn114  1  0.68877297  0.68743472  0.69206774  1
  Zn  Zn115  1  0.31093192  0.31291790  0.31264606  1
  Zn  Zn116  1  0.31354867  0.30715445  0.81705102  1
  Zn  Zn117  1  0.30842461  0.80783002  0.30572724  1
  Zn  Zn118  1  0.31200939  0.80599647  0.81091725  1
  Zn  Zn119  1  0.81709177  0.31557638  0.31300023  1
  Zn  Zn120  1  0.81692540  0.31420652  0.81419991  1
  Zn  Zn121  1  0.80769188  0.80928483  0.31215965  1
  Zn  Zn122  1  0.81743016  0.81105001  0.80738861  1
  Zn  Zn123  1  0.18836223  0.43472568  0.43778695  1
  Zn  Zn124  1  0.18961191  0.43501225  0.94447701  1
  Zn  Zn125  1  0.18898048  0.93831993  0.43477036  1
  Zn  Zn126  1  0.17927603  0.96015220  0.92527745  1
  Zn  Zn127  1  0.68574987  0.43897591  0.43730210  1
  Zn  Zn128  1  0.68927615  0.43693130  0.94303929  1
  Zn  Zn129  1  0.68078009  0.93887924  0.43439083  1
  Zn  Zn130  1  0.68416893  0.93960021  0.93822952  1
  Zn  Zn131  1  0.31145078  0.06214178  0.06700550  1
  Zn  Zn132  1  0.31221302  0.06281692  0.56398776  1
  Zn  Zn133  1  0.31710688  0.55991167  0.06297698  1
  Zn  Zn134  1  0.31569053  0.56470503  0.56458844  1
  Zn  Zn135  1  0.83074641  0.09889661  0.04303159  1
  Zn  Zn136  1  0.81788560  0.06410847  0.56262927  1
  Zn  Zn137  1  0.81219322  0.56511205  0.06461837  1
  Zn  Zn138  1  0.81884686  0.56030395  0.56447554  1
  Zn  Zn139  1  0.44210244  0.43814077  0.18463780  1
  Zn  Zn140  1  0.43900066  0.43964032  0.68585130  1
  Zn  Zn141  1  0.43338274  0.93868611  0.18598167  1
  Zn  Zn142  1  0.43652125  0.94089695  0.68341542  1
  Zn  Zn143  1  0.93521582  0.43478308  0.19259208  1
  Zn  Zn144  1  0.94018543  0.43747332  0.69253267  1
  Zn  Zn145  1  0.93586195  0.93926412  0.18928605  1
  Zn  Zn146  1  0.93682018  0.93671785  0.68276442  1
  Zn  Zn147  1  0.06075169  0.05747693  0.31261588  1
  Zn  Zn148  1  0.06939442  0.06362782  0.81113554  1
  Zn  Zn149  1  0.06315076  0.56658694  0.31352631  1
  Zn  Zn150  1  0.06473911  0.56446432  0.81572400  1
  Zn  Zn151  1  0.56091003  0.06398568  0.31467953  1
  Zn  Zn152  1  0.55885475  0.06215257  0.80977854  1
  Zn  Zn153  1  0.55988975  0.56654048  0.31009375  1
  Zn  Zn154  1  0.56545451  0.56169380  0.81053064  1
  Zn  Zn155  1  0.43088157  0.18809951  0.43809991  1
  Zn  Zn156  1  0.43542539  0.19542376  0.93925968  1
  Zn  Zn157  1  0.43426885  0.68695784  0.43492710  1
  Zn  Zn158  1  0.43786257  0.68879462  0.93818444  1
  Zn  Zn159  1  0.93583199  0.18822784  0.43371242  1
  Zn  Zn160  1  0.93680345  0.19521632  0.93722687  1
  Zn  Zn161  1  0.93528236  0.68708364  0.44308441  1
  Zn  Zn162  1  0.93915750  0.68880426  0.93735845  1
  Zn  Zn163  1  0.06855744  0.31274919  0.06586585  1
  Zn  Zn164  1  0.06432671  0.31512795  0.56922573  1
  Zn  Zn165  1  0.06266974  0.80765780  0.05789750  1
  Zn  Zn166  1  0.06190716  0.82240351  0.56502490  1
  Zn  Zn167  1  0.58875389  0.30542825  0.06952569  1
  Zn  Zn168  1  0.56488551  0.31610976  0.56045319  1
  Zn  Zn169  1  0.55901904  0.81441830  0.06274410  1
  Zn  Zn170  1  0.56277447  0.81183058  0.56574087  1
  O  O171  1  0.11734269  0.11569094  0.12964837  1
  O  O172  1  0.11851960  0.11430829  0.62822994  1
  O  O173  1  0.11567909  0.63216142  0.11437381  1
  O  O174  1  0.13238317  0.61367964  0.61628432  1
  O  O175  1  0.61255078  0.11694833  0.11847818  1
  O  O176  1  0.61599177  0.12616043  0.61858072  1
  O  O177  1  0.61121991  0.62443047  0.12935401  1
  O  O178  1  0.60950961  0.62754719  0.63254886  1
  O  O179  1  0.38474369  0.36950891  0.38538741  1
  O  O180  1  0.39523413  0.37083828  0.87019667  1
  O  O181  1  0.37016354  0.88826709  0.36444767  1
  O  O182  1  0.39072495  0.86323223  0.87492176  1
  O  O183  1  0.89002411  0.38303672  0.37360898  1
  O  O184  1  0.88347876  0.38314678  0.88020400  1
  O  O185  1  0.86994200  0.88560404  0.37121320  1
  O  O186  1  0.87847692  0.88298354  0.87996289  1
  O  O187  1  0.25953783  0.00788327  0.37149832  1
  O  O188  1  0.26694886  -0.00267051  0.85953205  1
  O  O189  1  0.25567195  0.50862088  0.37711303  1
  O  O190  1  0.24669411  0.50785941  0.86463824  1
  O  O191  1  0.75160721  0.00656763  0.36754340  1
  O  O192  1  0.75338877  0.00293330  0.86354657  1
  O  O193  1  0.75173088  0.50653253  0.36937667  1
  O  O194  1  0.75552833  0.50757117  0.87078246  1
  O  O195  1  0.25108644  0.48204665  0.11785904  1
  O  O196  1  0.24505495  0.49519700  0.63419963  1
  O  O197  1  0.24302579  0.99363530  0.13378333  1
  O  O198  1  0.25832676  0.99622875  0.63722014  1
  O  O199  1  0.73698142  0.50714345  0.13240167  1
  O  O200  1  0.74873854  0.49315959  0.63374956  1
  O  O201  1  0.73930180  0.99476446  0.13123636  1
  O  O202  1  0.74591277  0.99526046  0.63453489  1
  O  O203  1  0.01463561  0.36959054  0.25506631  1
  O  O204  1  0.00952186  0.36871954  0.75892711  1
  O  O205  1  0.00590542  0.86698440  0.24925590  1
  O  O206  1  -0.00486428  0.87905244  0.76444111  1
  O  O207  1  0.49137952  0.36514169  0.25959730  1
  O  O208  1  0.51523897  0.38991465  0.75814571  1
  O  O209  1  0.50750000  0.86620860  0.24279344  1
  O  O210  1  0.50698423  0.87257730  0.75491720  1
  O  O211  1  0.49423642  0.13120597  0.24432014  1
  O  O212  1  0.49065509  0.11840534  0.73491138  1
  O  O213  1  0.49087217  0.63457080  0.24075185  1
  O  O214  1  0.49280186  0.62753405  0.74465544  1
  O  O215  1  0.99503138  0.13157193  0.24876577  1
  O  O216  1  1.00317380  0.13967806  0.75812316  1
  O  O217  1  0.99550025  0.63257491  0.24435152  1
  O  O218  1  1.00232696  0.62744220  0.74637753  1
  O  O219  1  0.36408238  0.25433761  0.00355105  1
  O  O220  1  0.36991125  0.26130279  0.50982792  1
  O  O221  1  0.38027141  0.75565038  0.01391007  1
  O  O222  1  0.36278258  0.74169872  0.50766542  1
  O  O223  1  0.85503262  0.21056217  0.01031026  1
  O  O224  1  0.86657640  0.25451719  0.49974200  1
  O  O225  1  0.86705986  0.75743478  0.00510596  1
  O  O226  1  0.87106861  0.75307796  0.50379588  1
  O  O227  1  0.14232841  0.25788202  0.50730627  1
  O  O228  1  0.14237434  0.25131545  1.00342716  1
  O  O229  1  0.14369659  0.73572071  0.50568143  1
  O  O230  1  0.12298810  0.73904145  0.98629216  1
  O  O231  1  0.62987330  0.24670662  0.48999514  1
  O  O232  1  0.62831581  0.23975781  0.98169422  1
  O  O233  1  0.61466201  0.75490284  0.48175517  1
  O  O234  1  0.62970859  0.75869209  0.98787754  1
  O  O235  1  0.51021358  0.23965668  0.13435094  1
  O  O236  1  0.49214090  0.24326960  0.61739556  1
  O  O237  1  0.49241545  0.74595565  0.13193224  1
  O  O238  1  0.49379194  0.74264174  0.62895806  1
  O  O239  1  1.00766797  0.23667303  0.13668459  1
  O  O240  1  0.99852324  0.25332941  0.63834105  1
  O  O241  1  0.99167032  0.74457012  0.13373799  1
  O  O242  1  1.00240728  0.74862038  0.62540026  1
  O  O243  1  -0.00300538  0.26195924  0.36703300  1
  O  O244  1  -0.00332603  0.26179349  0.86603564  1
  O  O245  1  -0.00702444  0.74858328  0.35838564  1
  O  O246  1  0.00595609  0.76113313  0.87405050  1
  O  O247  1  0.50482667  0.25757272  0.37019828  1
  O  O248  1  0.51200481  0.26120620  0.87747355  1
  O  O249  1  0.50931165  0.74107127  0.36201459  1
  O  O250  1  0.50855660  0.75572765  0.87008059  1
  O  O251  1  0.26016853  0.13482616  0.49054406  1
  O  O252  1  0.25300110  0.13730731  1.00582968  1
  O  O253  1  0.24977538  0.62578414  0.48770667  1
  O  O254  1  0.24672094  0.61723717  0.98904897  1
  O  O255  1  0.74352285  0.13088801  0.49372346  1
  O  O256  1  0.73362451  0.10855654  0.97927082  1
  O  O257  1  0.74887363  0.61431343  0.48828625  1
  O  O258  1  0.75323770  0.63272040  0.98692551  1
  O  O259  1  0.25425180  0.36803689  0.01131818  1
  O  O260  1  0.25880342  0.36995809  0.50510863  1
  O  O261  1  0.24697317  0.88741099  0.01333169  1
  O  O262  1  0.24894058  0.85920712  0.49479792  1
  O  O263  1  0.76004933  0.37477496  0.00555612  1
  O  O264  1  0.74957386  0.37187879  0.50918337  1
  O  O265  1  0.75317343  0.87130435  0.00499117  1
  O  O266  1  0.74058638  0.88350771  0.51598935  1
  O  O267  1  0.12578619  0.49281338  0.24857096  1
  O  O268  1  0.13570964  0.49349250  0.74433701  1
  O  O269  1  0.12914385  0.99069358  0.24168441  1
  O  O270  1  0.14837661  1.00064355  0.75266801  1
  O  O271  1  0.63245879  0.51126563  0.23926267  1
  O  O272  1  0.63935835  0.49265603  0.75033349  1
  O  O273  1  0.62557434  0.99284458  0.24753962  1
  O  O274  1  0.63111408  0.99085614  0.74946949  1
  O  O275  1  0.37137936  0.00847889  0.25685159  1
  O  O276  1  0.37262688  0.01436055  0.74456859  1
  O  O277  1  0.38087051  0.51588446  0.24287968  1
  O  O278  1  0.36573050  0.51033239  0.74308673  1
  O  O279  1  0.86766439  0.00719091  0.25863718  1
  O  O280  1  0.86450114  -0.00165341  0.75774490  1
  O  O281  1  0.86617184  0.50799535  0.25747043  1
  O  O282  1  0.86341888  0.49637099  0.76124993  1
  O  O283  1  0.11818343  0.38178091  0.36229094  1
  O  O284  1  0.11701912  0.38468186  0.86664485  1
  O  O285  1  0.12515994  0.87920119  0.35721378  1
  O  O286  1  0.11312344  0.87095366  0.88571716  1
  O  O287  1  0.61342266  0.36514838  0.37959232  1
  O  O288  1  0.62222135  0.36923968  0.86804251  1
  O  O289  1  0.63005347  0.86185913  0.36205240  1
  O  O290  1  0.61794614  0.86818441  0.86660986  1
  O  O291  1  0.38681478  0.11842709  0.13854486  1
  O  O292  1  0.38290765  0.13446065  0.62970596  1
  O  O293  1  0.37909077  0.63435705  0.13077413  1
  O  O294  1  0.38346124  0.63228421  0.63483941  1
  O  O295  1  0.88841656  0.11246083  0.14115820  1
  O  O296  1  0.88508683  0.12722939  0.62952998  1
  O  O297  1  0.88082466  0.63190615  0.13056366  1
  O  O298  1  0.88185519  0.62255179  0.63083627  1
  O  O299  1  0.24903767  0.26260246  0.11536562  1
  O  O300  1  0.26007429  0.25495696  0.61836403  1
  O  O301  1  0.25817909  0.75964389  0.13141555  1
  O  O302  1  0.25832904  0.74869908  0.61551726  1
  O  O303  1  0.70431890  0.26541062  0.11406489  1
  O  O304  1  0.75045971  0.25945362  0.61893452  1
  O  O305  1  0.75336252  0.75495705  0.12119989  1
  O  O306  1  0.74406233  0.76569184  0.62954570  1
  O  O307  1  0.25855634  0.24076767  0.38547652  1
  O  O308  1  0.25368363  0.24652014  0.89204491  1
  O  O309  1  0.25610772  0.74249403  0.38696584  1
  O  O310  1  0.24397952  0.73975045  0.87420737  1
  O  O311  1  0.74183521  0.24851901  0.37687520  1
  O  O312  1  0.74237402  0.23807765  0.86975380  1
  O  O313  1  0.73442548  0.74038656  0.36957702  1
  O  O314  1  0.74406640  0.74560427  0.87838351  1
  O  O315  1  0.00086391  0.12339794  0.01246245  1
  O  O316  1  -0.00794681  0.10876640  0.49280996  1
  O  O317  1  0.00672384  0.63016365  0.01011702  1
  O  O318  1  0.01565293  0.61719791  0.49719574  1
  O  O319  1  0.50075680  0.11999304  0.00565095  1
  O  O320  1  0.50282992  0.12290003  0.50726654  1
  O  O321  1  0.49345436  0.61807287  0.01078797  1
  O  O322  1  0.48843189  0.61468398  0.50874787  1
  O  O323  1  0.49334436  0.38155610  0.49240095  1
  O  O324  1  0.50761745  0.38158698  0.99338996  1
  O  O325  1  0.50354529  0.89205812  0.50611023  1
  O  O326  1  0.49845241  0.88360088  0.99176907  1
  O  O327  1  1.00553342  0.38039326  0.49110632  1
  O  O328  1  0.99814430  0.36396246  0.98919207  1
  O  O329  1  0.99472902  0.88741732  0.49142042  1
  O  O330  1  0.98960267  0.87884649  0.99276183  1
  O  O331  1  0.50521935  0.49025080  0.38015550  1
  O  O332  1  0.51320529  0.49451672  0.88749432  1
  O  O333  1  0.49278672  1.00547218  0.38731677  1
  O  O334  1  0.50521108  0.98985538  0.88318113  1
  O  O335  1  0.99736225  0.49330381  0.37912062  1
  O  O336  1  0.99023410  0.48932655  0.86783657  1
  O  O337  1  0.98762096  0.99702755  0.37885621  1
  O  O338  1  0.98840732  0.99502873  0.87433182  1
  O  O339  1  0.00728857  0.00982075  0.12996797  1
  O  O340  1  -0.00450820  -0.00273423  0.60437066  1
  O  O341  1  -0.00513591  0.51597730  0.13425751  1
  O  O342  1  0.01489800  0.49526473  0.62010374  1
  O  O343  1  0.50294928  0.00753082  0.11799395  1
  O  O344  1  0.49935513  0.01079970  0.61112260  1
  O  O345  1  0.51065990  0.50972814  0.12161639  1
  O  O346  1  0.50320459  0.50811967  0.61719569  1
  O  O347  1  0.23848407  0.36988992  0.24249988  1
  O  O348  1  0.24705013  0.38089128  0.75009703  1
  O  O349  1  0.24128752  0.87921954  0.24098967  1
  O  O350  1  0.26236782  0.88511164  0.74735091  1
  O  O351  1  0.75360146  0.39253176  0.25262009  1
  O  O352  1  0.74365744  0.38171527  0.74498724  1
  O  O353  1  0.73862889  0.87937936  0.24349601  1
  O  O354  1  0.74135613  0.88230240  0.74385757  1
  O  O355  1  0.25938549  0.12202892  0.25438929  1
  O  O356  1  0.26585154  0.11946750  0.75066090  1
  O  O357  1  0.25476631  0.63014464  0.26361287  1
  O  O358  1  0.25682026  0.61845594  0.75825390  1
  O  O359  1  0.75577492  0.12216188  0.25230246  1
  O  O360  1  0.74536515  0.11549858  0.75631414  1
  O  O361  1  0.75546184  0.61752058  0.25818677  1
  O  O362  1  0.75055267  0.61595037  0.76061564  1
  O  O363  1  0.37029893  0.11643591  0.36512979  1
  O  O364  1  0.38364064  0.13220785  0.85666952  1
  O  O365  1  0.36363794  0.62706958  0.36529606  1
  O  O366  1  0.36809653  0.63335774  0.86355896  1
  O  O367  1  0.86691832  0.11674518  0.36535333  1
  O  O368  1  0.86379669  0.11401660  0.86824291  1
  O  O369  1  0.86606039  0.61947646  0.37099697  1
  O  O370  1  0.86707739  0.61906294  0.87219093  1
  O  O371  1  0.13063233  0.37627094  0.14003638  1
  O  O372  1  0.13378023  0.38489990  0.63680334  1
  O  O373  1  0.12926663  0.87899968  0.13272156  1
  O  O374  1  0.13275651  0.88896739  0.61731923  1
  O  O375  1  0.61845840  0.39688489  0.13335376  1
  O  O376  1  0.63480122  0.37608543  0.63313727  1
  O  O377  1  0.62753683  0.87883381  0.13357670  1
  O  O378  1  0.63039335  0.87752629  0.63609148  1
  O  O379  1  0.11690388  0.25205035  0.25228441  1
  O  O380  1  0.12149054  0.26311286  0.74573045  1
  O  O381  1  0.11379662  0.75759982  0.24229567  1
  O  O382  1  0.12599621  0.74722454  0.76936276  1
  O  O383  1  0.61105255  0.24291826  0.26294590  1
  O  O384  1  0.62953759  0.26244297  0.75735763  1
  O  O385  1  0.61479081  0.75726242  0.25365040  1
  O  O386  1  0.62005510  0.75981173  0.75902703  1
  O  O387  1  0.38707748  0.23878666  0.25767180  1
  O  O388  1  0.37036060  0.24025218  0.73665315  1
  O  O389  1  0.38215222  0.74416180  0.24099900  1
  O  O390  1  0.38005687  0.73878067  0.74108331  1
  O  O391  1  0.88320207  0.23783540  0.25564467  1
  O  O392  1  0.88693637  0.25038127  0.74850039  1
  O  O393  1  0.87905176  0.74520829  0.24385409  1
  O  O394  1  0.88041029  0.74902292  0.74007512  1
  O  O395  1  0.38439771  0.48632593  0.50861480  1
  O  O396  1  0.39497307  0.49085117  1.00940986  1
  O  O397  1  0.38667785  1.00413168  0.49193428  1
  O  O398  1  0.38640131  0.99776031  1.00520215  1
  O  O399  1  0.88586077  0.49591819  0.49284356  1
  O  O400  1  0.87283506  0.50395539  0.98765959  1
  O  O401  1  0.87455934  0.99610435  0.48602469  1
  O  O402  1  0.87227299  0.99874092  0.98679976  1
  O  O403  1  0.12056827  -0.00527909  0.02074513  1
  O  O404  1  0.10913405  0.00003476  0.48847325  1
  O  O405  1  0.12407328  0.51532791  -0.00624708  1
  O  O406  1  0.12576973  0.50510800  0.50932052  1
  O  O407  1  0.61118010  0.00345670  0.00420342  1
  O  O408  1  0.61098893  0.00926625  0.49656557  1
  O  O409  1  0.61939637  0.50232812  0.01547536  1
  O  O410  1  0.60931582  0.49557625  0.50276595  1
  O  O411  1  0.36282120  0.37339981  0.13318443  1
  O  O412  1  0.37292705  0.36841267  0.62058220  1
  O  O413  1  0.36394164  0.86858381  0.12596680  1
  O  O414  1  0.37734126  0.85838595  0.62898325  1
  O  O415  1  0.87524855  0.36965433  0.12763918  1
  O  O416  1  0.86247689  0.37620749  0.62567773  1
  O  O417  1  0.86761488  0.87227576  0.12084747  1
  O  O418  1  0.85590526  0.87817336  0.62287985  1
  O  O419  1  0.14249757  0.11778436  0.36620443  1
  O  O420  1  0.14068413  0.08581748  0.89487758  1
  O  O421  1  0.14131320  0.61828859  0.38353633  1
  O  O422  1  0.13311111  0.63179296  0.88342387  1
  O  O423  1  0.62885747  0.13546336  0.37888120  1
  O  O424  1  0.62610126  0.13215337  0.87243460  1
  O  O425  1  0.63032642  0.63711975  0.37042981  1
  O  O426  1  0.63459242  0.63812028  0.86757896  1
