# generated using pymatgen
data_V85Zn86O256
_symmetry_space_group_name_H-M   'P 1'
_cell_length_a   17.03768272
_cell_length_b   17.04105112
_cell_length_c   17.01523146
_cell_angle_alpha   89.80892963
_cell_angle_beta   90.08918171
_cell_angle_gamma   90.13893470
_symmetry_Int_Tables_number   1
_chemical_formula_structural   V85Zn86O256
_chemical_formula_sum   'V85 Zn86 O256'
_cell_volume   4940.15476486
_cell_formula_units_Z   1
loop_
 _symmetry_equiv_pos_site_id
 _symmetry_equiv_pos_as_xyz
  1  'x, y, z'
loop_
 _atom_site_type_symbol
 _atom_site_label
 _atom_site_symmetry_multiplicity
 _atom_site_fract_x
 _atom_site_fract_y
 _atom_site_fract_z
 _atom_site_occupancy
  V  V0  1  0.62528529  0.75165495  0.87574314  1
  V  V1  1  0.87590646  0.62250513  0.75059170  1
  V  V2  1  0.74332456  0.12750538  0.37054923  1
  V  V3  1  0.62567393  0.62491373  0.50108392  1
  V  V4  1  0.00503987  0.49574843  0.01020917  1
  V  V5  1  0.50217780  0.49953599  -0.00146219  1
  V  V6  1  0.75165895  0.50062626  0.24925999  1
  V  V7  1  0.00693172  0.37400161  0.86190148  1
  V  V8  1  0.49857216  0.12390798  0.62452869  1
  V  V9  1  0.75402957  0.87643023  0.11984099  1
  V  V10  1  0.37519616  -0.00348490  0.88197067  1
  V  V11  1  0.75850085  0.12119719  0.87551680  1
  V  V12  1  0.23969844  0.37883682  0.12899757  1
  V  V13  1  0.62702225  0.75206446  0.37511924  1
  V  V14  1  0.37644549  0.49905189  0.87208755  1
  V  V15  1  0.07405128  0.18123145  0.44516439  1
  V  V16  1  0.88011316  0.50093704  0.37568527  1
  V  V17  1  0.49971543  0.62515220  0.62435958  1
  V  V18  1  0.49977542  0.75042993  0.74947150  1
  V  V19  1  0.12946036  0.88966607  0.24734691  1
  V  V20  1  0.87902448  0.13005586  0.74898560  1
  V  V21  1  0.00657024  0.50146597  0.50273842  1
  V  V22  1  0.87910459  0.75325025  0.12035405  1
  V  V23  1  0.24047398  0.25080595  0.00035966  1
  V  V24  1  0.75014796  0.87686012  0.62406383  1
  V  V25  1  0.62784186  0.62330046  -0.00099650  1
  V  V26  1  0.23780447  0.49684076  0.24637356  1
  V  V27  1  0.24739995  0.62381439  0.37378033  1
  V  V28  1  0.25687161  0.75463624  0.49416802  1
  V  V29  1  0.75128378  0.24930556  -0.00000723  1
  V  V30  1  0.87761181  0.37083473  -0.00122468  1
  V  V31  1  0.62423812  0.24794704  0.87424997  1
  V  V32  1  0.87452077  0.87606636  0.49904588  1
  V  V33  1  0.61526828  0.00220265  0.12058364  1
  V  V34  1  0.61203136  0.12077167  0.00162299  1
  V  V35  1  0.50562814  0.74426043  0.24871926  1
  V  V36  1  0.87135764  0.00357414  0.37121386  1
  V  V37  1  0.87882840  0.75065739  0.62281525  1
  V  V38  1  0.62230497  0.12873017  0.49587229  1
  V  V39  1  0.37731946  0.12095945  0.25028639  1
  V  V40  1  0.62328104  0.87731867  0.75085988  1
  V  V41  1  0.23879458  0.37995335  0.62586464  1
  V  V42  1  0.11379947  0.01124140  0.11421910  1
  V  V43  1  0.12448527  0.74669633  0.87618075  1
  V  V44  1  -0.00894164  0.13254824  0.12516148  1
  V  V45  1  0.87607164  0.62632147  0.24881474  1
  V  V46  1  0.75527117  0.75221301  -0.00025352  1
  V  V47  1  0.75082729  0.75024382  0.49973052  1
  V  V48  1  0.25124170  0.62390393  0.87833005  1
  V  V49  1  0.74979667  0.37411702  0.12277195  1
  V  V50  1  0.37790669  0.49470724  0.37288470  1
  V  V51  1  0.37524004  0.62798729  0.74715148  1
  V  V52  1  0.49399369  -0.00724682  0.49076399  1
  V  V53  1  0.62515788  0.37196905  0.25614186  1
  V  V54  1  0.01096553  0.62226284  0.62436637  1
  V  V55  1  0.25029778  -0.00634701  0.74569591  1
  V  V56  1  0.50123058  0.62388902  0.12210843  1
  V  V57  1  0.12820430  0.61835014  0.00531287  1
  V  V58  1  -0.00331897  0.87597668  0.37367123  1
  V  V59  1  0.50188738  0.25116071  0.25549043  1
  V  V60  1  0.75558013  0.00164278  0.75296846  1
  V  V61  1  0.00265981  0.75304821  0.24872149  1
  V  V62  1  0.12713894  0.00184513  0.61688255  1
  V  V63  1  0.74971256  0.00319093  0.24875800  1
  V  V64  1  0.50150105  0.50018703  0.50091722  1
  V  V65  1  0.74806248  0.37638196  0.62845793  1
  V  V66  1  0.87825160  0.37842845  0.50002010  1
  V  V67  1  0.36809778  0.12411656  0.75166432  1
  V  V68  1  0.75309423  0.62454728  0.87477435  1
  V  V69  1  0.49852949  0.24945708  0.75057129  1
  V  V70  1  0.00086934  0.00099829  0.49753534  1
  V  V71  1  0.24865267  0.12595778  0.36841436  1
  V  V72  1  0.00778936  0.75279188  0.74978862  1
  V  V73  1  0.37546174  0.37384613  0.50122715  1
  V  V74  1  0.37827930  0.62123963  0.24480293  1
  V  V75  1  0.37759948  0.37554108  -0.00052175  1
  V  V76  1  0.23693155  0.49795695  0.74355610  1
  V  V77  1  0.49516728  0.87907064  0.88376807  1
  V  V78  1  0.74394571  0.25212366  0.49949716  1
  V  V79  1  0.38196893  0.24937909  0.12470832  1
  V  V80  1  0.00457675  0.13103137  0.62912716  1
  V  V81  1  0.62436521  0.00094972  0.62382064  1
  V  V82  1  0.12729988  0.25277209  0.85915759  1
  V  V83  1  0.25122145  0.24623836  0.49573430  1
  V  V84  1  0.25433376  0.87703326  0.61586123  1
  Zn  Zn85  1  0.37267134  0.25029336  0.62665693  1
  Zn  Zn86  1  0.08669755  0.91193143  0.78508526  1
  Zn  Zn87  1  0.12970758  0.62431821  0.50301548  1
  Zn  Zn88  1  0.12552166  0.75317176  0.37464359  1
  Zn  Zn89  1  0.62286085  0.87868668  0.24908611  1
  Zn  Zn90  1  0.51134964  0.36972286  0.38077226  1
  Zn  Zn91  1  0.50156136  0.37466281  0.87352989  1
  Zn  Zn92  1  0.74805042  0.49792942  0.75193752  1
  Zn  Zn93  1  0.00903443  0.62004072  0.12828392  1
  Zn  Zn94  1  0.24081100  0.10916971  0.89940342  1
  Zn  Zn95  1  0.87683724  0.49861320  0.87552918  1
  Zn  Zn96  1  0.62538352  0.50047796  0.62827634  1
  Zn  Zn97  1  0.62578884  0.49967027  0.12448995  1
  Zn  Zn98  1  0.44060239  -0.05004825  0.05142215  1
  Zn  Zn99  1  0.87957123  0.24846891  0.14621321  1
  Zn  Zn100  1  0.62392374  0.37670616  0.75014582  1
  Zn  Zn101  1  0.37760883  0.75691484  0.61791125  1
  Zn  Zn102  1  0.75112226  0.62601516  0.37499631  1
  Zn  Zn103  1  0.88029765  0.25215003  0.62652382  1
  Zn  Zn104  1  0.48338798  0.86301644  0.37895249  1
  Zn  Zn105  1  0.35565207  -0.01396207  0.37740088  1
  Zn  Zn106  1  0.36371083  0.76618525  0.10426236  1
  Zn  Zn107  1  0.23507833  0.12224852  0.13907402  1
  Zn  Zn108  1  0.18850454  0.18863578  0.68010559  1
  Zn  Zn109  1  0.19371899  0.69499107  0.18350545  1
  Zn  Zn110  1  0.19437046  0.69124765  0.68771387  1
  Zn  Zn111  1  0.68270476  0.18879982  0.18488480  1
  Zn  Zn112  1  0.68765481  0.18792516  0.68585601  1
  Zn  Zn113  1  0.69029580  0.68510061  0.18480301  1
  Zn  Zn114  1  0.68659356  0.68821282  0.68619735  1
  Zn  Zn115  1  0.31032868  0.30838473  0.31005171  1
  Zn  Zn116  1  0.31087919  0.31577482  0.81085648  1
  Zn  Zn117  1  0.30312739  0.80191912  0.28790166  1
  Zn  Zn118  1  0.30428873  0.81588499  0.93523706  1
  Zn  Zn119  1  0.80606057  0.32038478  0.31873990  1
  Zn  Zn120  1  0.81641359  0.30968553  0.81387468  1
  Zn  Zn121  1  0.81126965  0.81506811  0.30812375  1
  Zn  Zn122  1  0.80314383  0.79822755  0.79680709  1
  Zn  Zn123  1  0.19178943  0.43864934  0.43865270  1
  Zn  Zn124  1  0.18839889  0.43876138  0.93551637  1
  Zn  Zn125  1  0.18289060  0.93756730  0.43468404  1
  Zn  Zn126  1  0.16644785  0.94581576  0.93146385  1
  Zn  Zn127  1  0.69109846  0.44181056  0.43836573  1
  Zn  Zn128  1  0.68857280  0.43861604  0.93453711  1
  Zn  Zn129  1  0.68310705  0.93748740  0.43733020  1
  Zn  Zn130  1  0.68571111  0.93829811  0.93925619  1
  Zn  Zn131  1  0.26333116  -0.08990697  0.09729235  1
  Zn  Zn132  1  0.31530418  0.06497166  0.55924629  1
  Zn  Zn133  1  0.31380777  0.56010962  0.06229440  1
  Zn  Zn134  1  0.31334624  0.56232518  0.56240294  1
  Zn  Zn135  1  0.79914307  0.07961638  0.07656154  1
  Zn  Zn136  1  0.81375875  0.06464707  0.56262990  1
  Zn  Zn137  1  0.81834276  0.56232528  0.06203088  1
  Zn  Zn138  1  0.81416990  0.56364101  0.56469413  1
  Zn  Zn139  1  0.43912811  0.43559336  0.18527519  1
  Zn  Zn140  1  0.43421429  0.43881378  0.68623585  1
  Zn  Zn141  1  0.41086392  0.91327402  0.22393890  1
  Zn  Zn142  1  0.43603171  0.93804095  0.68831119  1
  Zn  Zn143  1  0.93418695  0.43312696  0.18816316  1
  Zn  Zn144  1  0.93655945  0.44009530  0.68311928  1
  Zn  Zn145  1  0.93791807  0.94125193  0.18640368  1
  Zn  Zn146  1  0.93673514  0.94188810  0.68379702  1
  Zn  Zn147  1  0.05156517  0.07124352  0.30114820  1
  Zn  Zn148  1  0.06585112  0.07517333  0.81594661  1
  Zn  Zn149  1  0.06067066  0.56332038  0.31325637  1
  Zn  Zn150  1  0.05990071  0.56180488  0.81649282  1
  Zn  Zn151  1  0.56077728  0.06382944  0.30749159  1
  Zn  Zn152  1  0.56234925  0.06253483  0.81410248  1
  Zn  Zn153  1  0.56719062  0.55947873  0.31348780  1
  Zn  Zn154  1  0.56460897  0.56112724  0.81158615  1
  Zn  Zn155  1  0.43501278  0.18604678  0.43382105  1
  Zn  Zn156  1  0.43047221  0.18455432  0.93598019  1
  Zn  Zn157  1  0.43662591  0.68345122  0.43462632  1
  Zn  Zn158  1  0.43981183  0.68682342  0.93644437  1
  Zn  Zn159  1  0.90920838  0.20186628  0.41934920  1
  Zn  Zn160  1  0.94567143  0.18722224  0.94156598  1
  Zn  Zn161  1  0.93853111  0.68632546  0.43668888  1
  Zn  Zn162  1  0.94332351  0.68671379  0.93959100  1
  Zn  Zn163  1  0.06054500  0.31000305  0.06424157  1
  Zn  Zn164  1  0.06027763  0.31773171  0.56738835  1
  Zn  Zn165  1  0.07518677  0.81349193  0.06107925  1
  Zn  Zn166  1  0.07006086  0.81266103  0.56053527  1
  Zn  Zn167  1  0.56404393  0.30990079  0.06354398  1
  Zn  Zn168  1  0.56194018  0.31263994  0.56549878  1
  Zn  Zn169  1  0.56762078  0.80956934  0.06557438  1
  Zn  Zn170  1  0.56298369  0.81270022  0.56290635  1
  O  O171  1  0.11341512  0.11641883  0.13052775  1
  O  O172  1  0.11590782  0.11673286  0.62614234  1
  O  O173  1  0.12930009  0.63568008  0.11043400  1
  O  O174  1  0.11370409  0.62980965  0.62453236  1
  O  O175  1  0.63507023  0.11442737  0.11262409  1
  O  O176  1  0.61974740  0.12054598  0.61549190  1
  O  O177  1  0.62087116  0.62258812  0.11617185  1
  O  O178  1  0.61796902  0.62554700  0.61866583  1
  O  O179  1  0.37145334  0.38357000  0.38363781  1
  O  O180  1  0.37618396  0.37942376  0.88542080  1
  O  O181  1  0.37737099  0.88281514  0.33620679  1
  O  O182  1  0.38460474  0.88314660  0.87544689  1
  O  O183  1  0.86555913  0.38888823  0.39183676  1
  O  O184  1  0.88794330  0.37293760  0.88156221  1
  O  O185  1  0.87595668  0.88464934  0.37980600  1
  O  O186  1  0.90489150  0.93879945  0.94556005  1
  O  O187  1  0.24673503  0.02011106  0.38600194  1
  O  O188  1  0.25633830  0.00134229  0.86194542  1
  O  O189  1  0.25843318  0.50331919  0.36709815  1
  O  O190  1  0.25667220  0.50446878  0.86406403  1
  O  O191  1  0.75136823  0.00568538  0.36850487  1
  O  O192  1  0.74391884  0.00996344  0.86458676  1
  O  O193  1  0.76164112  0.50423633  0.36904541  1
  O  O194  1  0.75628440  0.50811913  0.87196179  1
  O  O195  1  0.25666246  0.48671097  0.13212391  1
  O  O196  1  0.25487098  0.49266601  0.63093344  1
  O  O197  1  0.22063380  1.00713717  0.13568366  1
  O  O198  1  0.24552471  0.99717402  0.62114771  1
  O  O199  1  0.75304933  0.48927770  0.12944034  1
  O  O200  1  0.75007237  0.48883127  0.62652529  1
  O  O201  1  0.74788233  0.99379562  0.13179885  1
  O  O202  1  0.74484246  0.99653241  0.63141275  1
  O  O203  1  -0.04171197  0.34483655  0.25898871  1
  O  O204  1  -0.00559961  0.38067699  0.76359768  1
  O  O205  1  -0.00025523  0.86740243  0.25564235  1
  O  O206  1  -0.00232657  0.85908833  0.73883320  1
  O  O207  1  0.50976989  0.37054943  0.25136996  1
  O  O208  1  0.49793014  0.36106704  0.75047483  1
  O  O209  1  0.50826398  0.85422980  0.25143435  1
  O  O210  1  0.50565302  0.86976420  0.75504449  1
  O  O211  1  0.48660321  0.13633353  0.25508554  1
  O  O212  1  0.49117280  0.13107206  0.74664610  1
  O  O213  1  0.49795631  0.62345225  0.24306091  1
  O  O214  1  0.49513262  0.62964333  0.74516527  1
  O  O215  1  0.99234585  0.13038719  0.23138946  1
  O  O216  1  0.99013473  0.11698298  0.74190552  1
  O  O217  1  0.99675465  0.63540985  0.24744629  1
  O  O218  1  0.99324622  0.62957040  0.74268565  1
  O  O219  1  0.37064316  0.25925755  0.00341124  1
  O  O220  1  0.36944398  0.25961369  0.49928707  1
  O  O221  1  0.36665909  0.74344225  -0.00399002  1
  O  O222  1  0.36238914  0.74483103  0.49742021  1
  O  O223  1  0.86812994  0.26209280  -0.00647133  1
  O  O224  1  0.86257868  0.26197265  0.50316923  1
  O  O225  1  0.87212267  0.74359923  0.01190101  1
  O  O226  1  0.87107461  0.75631013  0.50366995  1
  O  O227  1  0.13187888  0.24758182  0.50053911  1
  O  O228  1  0.13979556  0.26159808  0.99581070  1
  O  O229  1  0.13878440  0.74595651  0.49340381  1
  O  O230  1  0.11687425  0.73514825  0.98369639  1
  O  O231  1  0.63165898  0.24038498  0.50321182  1
  O  O232  1  0.63078276  0.24170615  0.99358822  1
  O  O233  1  0.63070433  0.74589273  0.49347490  1
  O  O234  1  0.63401272  0.74335159  0.99445546  1
  O  O235  1  0.48912989  0.25415267  0.13340822  1
  O  O236  1  0.49829740  0.24311484  0.63522923  1
  O  O237  1  0.49938552  0.74167054  0.13422598  1
  O  O238  1  0.49739738  0.74554105  0.63036798  1
  O  O239  1  0.99601020  0.24067646  0.12100878  1
  O  O240  1  1.00059105  0.23583955  0.61987525  1
  O  O241  1  0.99317071  0.75255138  0.13298433  1
  O  O242  1  0.99816825  0.74202516  0.62891788  1
  O  O243  1  0.01151006  0.23832715  0.39297390  1
  O  O244  1  0.01587950  0.26217362  0.87871076  1
  O  O245  1  -0.00110531  0.75591869  0.36491999  1
  O  O246  1  0.01401487  0.73764881  0.86259769  1
  O  O247  1  0.49427367  0.25496051  0.36166790  1
  O  O248  1  0.50772262  0.24703209  0.86660793  1
  O  O249  1  0.51156931  0.74565259  0.37036357  1
  O  O250  1  0.50645915  0.75852308  0.86903051  1
  O  O251  1  0.25794440  0.13972587  0.49180920  1
  O  O252  1  0.25258013  0.14997912  1.00786749  1
  O  O253  1  0.25053872  0.62861128  0.48892375  1
  O  O254  1  0.24202663  0.60930780  0.98795298  1
  O  O255  1  0.74090347  0.13166749  0.49501868  1
  O  O256  1  0.74547190  0.12961248  0.98946726  1
  O  O257  1  0.74517868  0.63344432  0.50139469  1
  O  O258  1  0.74809181  0.63065072  0.99457969  1
  O  O259  1  0.26053733  0.37586016  0.00858318  1
  O  O260  1  0.25683977  0.36931854  0.50392038  1
  O  O261  1  0.23235624  0.87731796  -0.00502849  1
  O  O262  1  0.24709809  0.86648868  0.50161705  1
  O  O263  1  0.75668538  0.37067900  0.00396089  1
  O  O264  1  0.75406774  0.36985644  0.50791742  1
  O  O265  1  0.74751596  0.86909924  0.01064409  1
  O  O266  1  0.75410286  0.87140997  0.50514793  1
  O  O267  1  0.13897334  0.50337572  0.25333979  1
  O  O268  1  0.13865498  0.50560853  0.75385491  1
  O  O269  1  0.10973539  0.98900725  0.25047819  1
  O  O270  1  0.13620792  1.00615009  0.73032603  1
  O  O271  1  0.63258541  0.49049973  0.24644236  1
  O  O272  1  0.62967137  0.49457510  0.74728597  1
  O  O273  1  0.63381103  1.00081334  0.24144767  1
  O  O274  1  0.63414068  0.99768662  0.74395973  1
  O  O275  1  0.37924820  0.02190353  0.24635873  1
  O  O276  1  0.36922693  0.00826819  0.75490469  1
  O  O277  1  0.37270852  0.50439596  0.25693583  1
  O  O278  1  0.37292530  0.51098346  0.75418571  1
  O  O279  1  0.86072207  -0.00594434  0.26127216  1
  O  O280  1  0.86227999  0.00931488  0.74420023  1
  O  O281  1  0.87266183  0.50510202  0.25779369  1
  O  O282  1  0.87399767  0.51414285  0.75043987  1
  O  O283  1  0.10725426  0.37637592  0.37015898  1
  O  O284  1  0.11415990  0.36999347  0.87614411  1
  O  O285  1  0.11310625  0.87531068  0.36482701  1
  O  O286  1  0.14091578  0.84405800  0.86529079  1
  O  O287  1  0.63039848  0.37751602  0.36110162  1
  O  O288  1  0.62507993  0.35874516  0.87431065  1
  O  O289  1  0.62414299  0.86027786  0.37307122  1
  O  O290  1  0.61817536  0.87155822  0.86960329  1
  O  O291  1  0.35758833  0.14278924  0.14237899  1
  O  O292  1  0.38175556  0.12667858  0.63405452  1
  O  O293  1  0.38139991  0.62016347  0.13557479  1
  O  O294  1  0.38187914  0.62605402  0.63166460  1
  O  O295  1  0.87856687  0.13330217  0.12863292  1
  O  O296  1  0.88567055  0.12521469  0.63009604  1
  O  O297  1  0.87894256  0.63610892  0.13134209  1
  O  O298  1  0.88330464  0.63253280  0.63254145  1
  O  O299  1  0.26088783  0.26619267  0.11226291  1
  O  O300  1  0.25325299  0.25903661  0.61326328  1
  O  O301  1  0.27572341  0.76806162  0.17418700  1
  O  O302  1  0.25146446  0.75904174  0.61371826  1
  O  O303  1  0.75355146  0.25865910  0.12034720  1
  O  O304  1  0.75108730  0.25654769  0.61420252  1
  O  O305  1  0.75837994  0.75782046  0.12121565  1
  O  O306  1  0.75713449  0.75780773  0.62114315  1
  O  O307  1  0.25143981  0.24413554  0.38518086  1
  O  O308  1  0.24056593  0.26238640  0.88722468  1
  O  O309  1  0.25178367  0.73820258  0.37589661  1
  O  O310  1  0.23966991  0.72900810  0.87097699  1
  O  O311  1  0.75789640  0.23973830  0.38603401  1
  O  O312  1  0.74155765  0.24066905  0.87777545  1
  O  O313  1  0.74404993  0.74954853  0.38000163  1
  O  O314  1  0.74646803  0.74705728  0.87985570  1
  O  O315  1  -0.00847856  0.12283597  0.01899621  1
  O  O316  1  0.00654570  0.12266608  0.50338814  1
  O  O317  1  0.00896733  0.61203166  0.00260974  1
  O  O318  1  0.00203054  0.61935370  0.50757396  1
  O  O319  1  0.51311638  0.12866415  -0.00641369  1
  O  O320  1  0.50671695  0.11914298  0.50162163  1
  O  O321  1  0.50795690  0.61910509  0.00264435  1
  O  O322  1  0.50476086  0.61980477  0.50482307  1
  O  O323  1  0.49214642  0.37847031  0.49866981  1
  O  O324  1  0.49194440  0.37859938  0.99912758  1
  O  O325  1  0.50384782  0.88851097  0.49702033  1
  O  O326  1  0.50675905  0.87426677  0.98840968  1
  O  O327  1  0.98650839  0.38599240  0.51178553  1
  O  O328  1  0.99351492  0.37954419  0.99615901  1
  O  O329  1  0.99386083  0.87985162  0.49423451  1
  O  O330  1  1.00285943  0.85683171  0.97731492  1
  O  O331  1  0.49129166  0.49683851  0.38037120  1
  O  O332  1  0.49476371  0.49694807  0.88050525  1
  O  O333  1  0.50378714  0.99770085  0.38622690  1
  O  O334  1  0.49050459  0.98883116  0.86499639  1
  O  O335  1  0.98718578  0.50693521  0.38367391  1
  O  O336  1  0.99974762  0.48627841  0.88443929  1
  O  O337  1  0.98717316  0.99920542  0.37779435  1
  O  O338  1  1.07179756  0.98156051  0.87173001  1
  O  O339  1  0.00355140  0.01133127  0.12979549  1
  O  O340  1  0.00659958  0.00867314  0.61740161  1
  O  O341  1  -0.00394163  0.49806109  0.11597639  1
  O  O342  1  -0.00604665  0.51204095  0.61473460  1
  O  O343  1  0.51616355  -0.00730345  0.12851497  1
  O  O344  1  0.50452233  0.00405810  0.61399613  1
  O  O345  1  0.50226163  0.50534820  0.11602433  1
  O  O346  1  0.50081249  0.50634681  0.61736986  1
  O  O347  1  0.25719831  0.38069330  0.23606752  1
  O  O348  1  0.26117104  0.38669057  0.73687242  1
  O  O349  1  0.22696361  0.88780530  0.26049249  1
  O  O350  1  0.24757111  0.89356549  0.73425899  1
  O  O351  1  0.74381347  0.37878241  0.24170246  1
  O  O352  1  0.75196582  0.37189994  0.73942021  1
  O  O353  1  0.74510322  0.88480050  0.24073422  1
  O  O354  1  0.74635338  0.88286801  0.74622120  1
  O  O355  1  0.26283246  0.13744145  0.26063709  1
  O  O356  1  0.26105011  0.11705120  0.74033833  1
  O  O357  1  0.26050021  0.61442766  0.25567228  1
  O  O358  1  0.25865989  0.61669022  0.75360366  1
  O  O359  1  0.74068026  0.11719014  0.25961904  1
  O  O360  1  0.75582524  0.11897892  0.75508058  1
  O  O361  1  0.75831737  0.61813010  0.24950856  1
  O  O362  1  0.76189606  0.63133170  0.75499244  1
  O  O363  1  0.36657964  0.12499487  0.36310859  1
  O  O364  1  0.36728036  0.11879886  0.86482046  1
  O  O365  1  0.36835673  0.61046259  0.36811130  1
  O  O366  1  0.36901294  0.61785677  0.86696635  1
  O  O367  1  0.85675079  0.11228476  0.37982462  1
  O  O368  1  0.86465719  0.13206204  0.86756828  1
  O  O369  1  0.87302711  0.61809574  0.36841668  1
  O  O370  1  0.87275524  0.62671725  0.86554867  1
  O  O371  1  0.14204567  0.37140106  0.12146614  1
  O  O372  1  0.13972789  0.37487998  0.62084651  1
  O  O373  1  0.11807251  0.88632904  0.13816019  1
  O  O374  1  0.13648127  0.88828844  0.62046041  1
  O  O375  1  0.63604144  0.37620888  0.13054878  1
  O  O376  1  0.63597198  0.37552358  0.62694147  1
  O  O377  1  0.63742600  0.88271832  0.12549406  1
  O  O378  1  0.63119783  0.88051488  0.63088756  1
  O  O379  1  0.12209739  0.33197481  0.31298413  1
  O  O380  1  0.13666979  0.25478465  0.76061148  1
  O  O381  1  0.11322223  0.76151351  0.24924445  1
  O  O382  1  0.11625021  0.73600874  0.75874456  1
  O  O383  1  0.61398980  0.25976233  0.24182916  1
  O  O384  1  0.61577091  0.24597184  0.75799950  1
  O  O385  1  0.61964796  0.74248465  0.25843320  1
  O  O386  1  0.62132438  0.75717470  0.75580516  1
  O  O387  1  0.38455882  0.25065033  0.24283629  1
  O  O388  1  0.38135605  0.24125459  0.75195852  1
  O  O389  1  0.39663674  0.72722251  0.26548663  1
  O  O390  1  0.38232112  0.73212535  0.74746375  1
  O  O391  1  0.89953668  0.28582560  0.25837526  1
  O  O392  1  0.86997885  0.23427893  0.74484162  1
  O  O393  1  0.88263020  0.74690954  0.24230229  1
  O  O394  1  0.88609071  0.74248770  0.74432078  1
  O  O395  1  0.37962922  0.49251442  0.49099407  1
  O  O396  1  0.38162022  0.49267562  0.99348218  1
  O  O397  1  0.39098403  1.00588262  0.49347890  1
  O  O398  1  0.37506491  1.01072238  0.98101278  1
  O  O399  1  0.88224947  0.49752473  0.49466790  1
  O  O400  1  0.88452290  0.48844919  0.99755838  1
  O  O401  1  0.87831249  0.99557960  0.49185693  1
  O  O402  1  0.95681458  0.92097143  0.99622466  1
  O  O403  1  0.11631918  0.00427088  0.01681734  1
  O  O404  1  0.11585684  -0.00044389  0.50721714  1
  O  O405  1  0.11621820  0.50607388  -0.00380797  1
  O  O406  1  0.11000224  0.50073685  0.48908130  1
  O  O407  1  0.63069564  0.00953988  0.00824779  1
  O  O408  1  0.61680533  0.00940844  0.50392661  1
  O  O409  1  0.62032185  0.50553464  -0.00076237  1
  O  O410  1  0.61885119  0.50680659  0.50017844  1
  O  O411  1  0.37200750  0.36887000  0.11463839  1
  O  O412  1  0.36898861  0.37449827  0.61082974  1
  O  O413  1  0.37460761  0.88645204  0.12070618  1
  O  O414  1  0.36011961  0.87623066  0.62644056  1
  O  O415  1  0.86508810  0.37078734  0.11400403  1
  O  O416  1  0.86594536  0.37371227  0.61702208  1
  O  O417  1  0.86496192  0.86557189  0.13179750  1
  O  O418  1  0.86954336  0.87121485  0.61841149  1
  O  O419  1  0.12716516  0.12625814  0.37627444  1
  O  O420  1  0.13273792  0.14918910  0.87494123  1
  O  O421  1  0.13986621  0.62605434  0.37243469  1
  O  O422  1  0.13319753  0.62474777  0.88308244  1
  O  O423  1  0.63312494  0.11990719  0.38462496  1
  O  O424  1  0.63348552  0.13117569  0.88046557  1
  O  O425  1  0.62822444  0.63419962  0.38203636  1
  O  O426  1  0.63220312  0.63262200  0.87904166  1
