# generated using pymatgen
data_V85Zn86O256
_symmetry_space_group_name_H-M   'P 1'
_cell_length_a   16.98342988
_cell_length_b   16.99273953
_cell_length_c   16.99694301
_cell_angle_alpha   90.11740690
_cell_angle_beta   89.99131614
_cell_angle_gamma   89.87025892
_symmetry_Int_Tables_number   1
_chemical_formula_structural   V85Zn86O256
_chemical_formula_sum   'V85 Zn86 O256'
_cell_volume   4905.20983742
_cell_formula_units_Z   1
loop_
 _symmetry_equiv_pos_site_id
 _symmetry_equiv_pos_as_xyz
  1  'x, y, z'
loop_
 _atom_site_type_symbol
 _atom_site_label
 _atom_site_symmetry_multiplicity
 _atom_site_fract_x
 _atom_site_fract_y
 _atom_site_fract_z
 _atom_site_occupancy
  V  V0  1  0.49807541  0.87297693  0.36368193  1
  V  V1  1  0.62450105  0.37662119  0.75416275  1
  V  V2  1  0.49761905  0.00014055  0.49971640  1
  V  V3  1  0.63539497  0.12607035  0.49312148  1
  V  V4  1  -0.00158337  0.37607212  0.87816403  1
  V  V5  1  -0.00018879  0.49737543  0.50355515  1
  V  V6  1  -0.00075062  0.62203273  0.62713481  1
  V  V7  1  0.37491738  0.86686604  0.50151947  1
  V  V8  1  0.87656836  0.12498411  0.25228604  1
  V  V9  1  0.74543430  0.87598992  0.62433865  1
  V  V10  1  0.62691630  0.50046306  0.12494585  1
  V  V11  1  0.00332485  0.00245919  0.49880652  1
  V  V12  1  0.13589122  0.88190113  0.24572328  1
  V  V13  1  0.62138258  0.12590191  0.00061238  1
  V  V14  1  0.87134149  0.00142065  0.37448250  1
  V  V15  1  -0.00622752  0.24608692  0.74646412  1
  V  V16  1  0.75340516  0.36284328  0.62255355  1
  V  V17  1  0.37672319  0.75937057  0.12267920  1
  V  V18  1  0.24811611  0.13316081  0.39856467  1
  V  V19  1  0.62615423  0.37393165  0.25142577  1
  V  V20  1  0.12403633  0.75070891  0.87780075  1
  V  V21  1  0.74914935  0.87623656  0.12366005  1
  V  V22  1  0.12169899  0.38393151  0.74596214  1
  V  V23  1  0.25503967  0.00221737  0.75359379  1
  V  V24  1  0.37775481  0.37792305  -0.00338645  1
  V  V25  1  0.11688992  0.36403911  0.25453088  1
  V  V26  1  0.50097165  0.12155724  0.12405493  1
  V  V27  1  0.24289350  0.50155097  0.74971400  1
  V  V28  1  0.12428953  0.62019829  0.49842388  1
  V  V29  1  0.12416467  0.62684198  0.00863191  1
  V  V30  1  0.50138466  0.49859583  -0.00296974  1
  V  V31  1  0.74831187  0.74417690  -0.00553691  1
  V  V32  1  0.87833868  0.49851487  0.37904526  1
  V  V33  1  0.49748321  0.62479792  0.62180769  1
  V  V34  1  0.37625358  0.50520468  0.37995355  1
  V  V35  1  0.87553742  0.87276913  0.49813531  1
  V  V36  1  0.87398939  0.87649348  0.00035779  1
  V  V37  1  0.74838017  0.00305923  0.25250024  1
  V  V38  1  0.00179690  0.50519609  0.00696013  1
  V  V39  1  0.87972849  0.74424481  0.12823605  1
  V  V40  1  0.49908028  0.25084724  0.25410052  1
  V  V41  1  0.87019897  0.50849364  0.87245875  1
  V  V42  1  0.12348109  0.12740066  0.00085639  1
  V  V43  1  0.50248874  0.62742517  0.12901769  1
  V  V44  1  0.50147714  0.38033406  0.38511821  1
  V  V45  1  0.37902163  0.49643196  0.87435999  1
  V  V46  1  0.12673084  0.50152977  0.13108942  1
  V  V47  1  -0.00141687  0.87627234  0.87432915  1
  V  V48  1  0.49854581  0.25807825  0.75454308  1
  V  V49  1  0.87315110  0.00323968  0.87046967  1
  V  V50  1  0.25073133  0.62637201  0.87770397  1
  V  V51  1  0.00044433  0.00172953  0.00093606  1
  V  V52  1  0.25131375  0.74005975  0.49934124  1
  V  V53  1  0.12001112  0.25044832  0.39045613  1
  V  V54  1  0.62270048  0.00164768  0.12226662  1
  V  V55  1  0.37354247  0.62524565  0.74140022  1
  V  V56  1  0.87371709  0.36300668  0.50036345  1
  V  V57  1  0.74839245  0.12788306  0.87594588  1
  V  V58  1  0.61969312  0.87488575  0.75401355  1
  V  V59  1  0.63752032  0.24589385  0.37655976  1
  V  V60  1  0.12198433  0.00463393  0.61937691  1
  V  V61  1  0.25136803  0.25549890  -0.00319290  1
  V  V62  1  0.36557214  -0.00023849  0.37058083  1
  V  V63  1  0.36485862  0.12542106  0.25156465  1
  V  V64  1  0.49630889  0.75115880  0.75251189  1
  V  V65  1  0.00172661  0.12287241  0.13029233  1
  V  V66  1  0.25422046  0.76203851  0.00400856  1
  V  V67  1  0.12291476  0.87424692  0.74884719  1
  V  V68  1  -0.00117015  0.74977385  0.74934939  1
  V  V69  1  0.37626405  0.25513980  0.12525840  1
  V  V70  1  0.62430056  0.49970834  0.61996854  1
  V  V71  1  0.61973819  0.61992937  0.49713658  1
  V  V72  1  0.75222653  0.49980525  0.25149577  1
  V  V73  1  0.74840732  0.75016458  0.49786565  1
  V  V74  1  0.36871228  0.62549138  0.24781270  1
  V  V75  1  0.49728014  0.13138968  0.62181834  1
  V  V76  1  0.75211482  0.37402928  0.12724919  1
  V  V77  1  0.12554732  0.25023058  0.87637739  1
  V  V78  1  0.88043029  0.24939344  0.13021219  1
  V  V79  1  0.75013678  0.62457004  0.37397934  1
  V  V80  1  0.61960770  0.75129278  0.36648216  1
  V  V81  1  0.87528560  0.37551455  0.00429114  1
  V  V82  1  0.62646489  0.74247348  0.87261533  1
  V  V83  1  0.12624691  0.74734526  0.37493936  1
  V  V84  1  0.24997898  0.86885511  0.62141442  1
  Zn  Zn85  1  0.74479910  0.50878052  0.75168967  1
  Zn  Zn86  1  0.24596790  0.37053057  0.61941324  1
  Zn  Zn87  1  0.74960077  0.25169706  0.00109890  1
  Zn  Zn88  1  0.38234256  0.11965147  0.75368066  1
  Zn  Zn89  1  0.74565872  0.00152459  0.74812532  1
  Zn  Zn90  1  0.25535051  0.11726405  0.87796901  1
  Zn  Zn91  1  0.00108291  0.87355497  0.36878611  1
  Zn  Zn92  1  0.62216771  0.00031123  0.62508575  1
  Zn  Zn93  1  0.88404263  0.61996535  0.24730289  1
  Zn  Zn94  1  0.36295933  0.24891632  0.61483165  1
  Zn  Zn95  1  0.86021977  0.13935603  0.73989998  1
  Zn  Zn96  1  0.61904114  0.87279371  0.24515026  1
  Zn  Zn97  1  0.87386436  0.74921102  0.62653272  1
  Zn  Zn98  1  -0.00684095  0.13070560  0.61700432  1
  Zn  Zn99  1  0.86587077  0.63366168  0.75355761  1
  Zn  Zn100  1  0.01004357  0.74452659  0.24385948  1
  Zn  Zn101  1  0.36582433  0.36899019  0.49972394  1
  Zn  Zn102  1  0.24833860  0.49826173  0.25559734  1
  Zn  Zn103  1  0.62759439  0.62249082  -0.00542824  1
  Zn  Zn104  1  0.25192613  0.37638589  0.12977504  1
  Zn  Zn105  1  0.14222267  -0.00296821  0.12517432  1
  Zn  Zn106  1  0.62306977  0.25835127  0.87966456  1
  Zn  Zn107  1  0.18644975  0.19210404  0.18524397  1
  Zn  Zn108  1  0.17822672  0.18600724  0.68200954  1
  Zn  Zn109  1  0.19277517  0.69106430  0.18726625  1
  Zn  Zn110  1  0.18354944  0.68292031  0.68386846  1
  Zn  Zn111  1  0.69111629  0.18855205  0.18976488  1
  Zn  Zn112  1  0.68006889  0.18655904  0.68517056  1
  Zn  Zn113  1  0.69328901  0.68540100  0.18553555  1
  Zn  Zn114  1  0.68758656  0.68763146  0.68639108  1
  Zn  Zn115  1  0.30793345  0.31665062  0.31647108  1
  Zn  Zn116  1  0.29350335  0.29315246  0.77899357  1
  Zn  Zn117  1  0.31167345  0.80409636  0.31446198  1
  Zn  Zn118  1  0.29858132  0.79880003  0.79833267  1
  Zn  Zn119  1  0.81800689  0.31316505  0.31346650  1
  Zn  Zn120  1  0.80842465  0.31876860  0.81321493  1
  Zn  Zn121  1  0.80727141  0.81511293  0.31104902  1
  Zn  Zn122  1  0.80980144  0.81400514  0.81182304  1
  Zn  Zn123  1  0.18753105  0.43759641  0.43197420  1
  Zn  Zn124  1  0.18973383  0.43892280  0.93608460  1
  Zn  Zn125  1  0.18784869  0.93465924  0.43418194  1
  Zn  Zn126  1  0.18541601  0.93939898  0.93916932  1
  Zn  Zn127  1  0.69062105  0.43413046  0.43787108  1
  Zn  Zn128  1  0.69008563  0.43857198  0.93987569  1
  Zn  Zn129  1  0.68526201  0.93762876  0.43567684  1
  Zn  Zn130  1  0.68565960  0.93624907  0.93675072  1
  Zn  Zn131  1  0.30217992  0.08169497  0.07238422  1
  Zn  Zn132  1  0.31521845  0.05778803  0.56770768  1
  Zn  Zn133  1  0.31083411  0.56648683  0.06418713  1
  Zn  Zn134  1  0.29501880  0.53308704  0.54842771  1
  Zn  Zn135  1  0.81114539  0.06363376  0.06178938  1
  Zn  Zn136  1  0.81484272  0.06176424  0.56451690  1
  Zn  Zn137  1  0.81216266  0.56296537  0.06098523  1
  Zn  Zn138  1  0.81042924  0.56164029  0.56484825  1
  Zn  Zn139  1  0.44029242  0.44037511  0.18868415  1
  Zn  Zn140  1  0.43493831  0.43838444  0.68139866  1
  Zn  Zn141  1  0.31662274  0.93727679  0.18687523  1
  Zn  Zn142  1  0.43721553  0.93526357  0.68372994  1
  Zn  Zn143  1  0.94136677  0.43721165  0.19186858  1
  Zn  Zn144  1  0.93593464  0.43620583  0.68632281  1
  Zn  Zn145  1  0.94374460  0.93201617  0.18908606  1
  Zn  Zn146  1  0.93519019  0.93896965  0.68456823  1
  Zn  Zn147  1  0.06531439  0.06357153  0.31783987  1
  Zn  Zn148  1  0.06571500  0.06179246  0.81152569  1
  Zn  Zn149  1  0.05945419  0.56434740  0.31314047  1
  Zn  Zn150  1  0.05811577  0.56739549  0.81802987  1
  Zn  Zn151  1  0.55738323  0.06070485  0.31206086  1
  Zn  Zn152  1  0.56713124  0.06884395  0.80794848  1
  Zn  Zn153  1  0.56063973  0.56296854  0.30949553  1
  Zn  Zn154  1  0.56159030  0.56254490  0.80895236  1
  Zn  Zn155  1  0.43756367  0.19182313  0.43854962  1
  Zn  Zn156  1  0.43580543  0.18834882  0.93335809  1
  Zn  Zn157  1  0.43904090  0.68662059  0.43416153  1
  Zn  Zn158  1  0.43829034  0.68523386  0.93640034  1
  Zn  Zn159  1  0.93853482  0.18448399  0.43364704  1
  Zn  Zn160  1  0.93519252  0.18751244  0.93948403  1
  Zn  Zn161  1  0.94017295  0.68550928  0.43521643  1
  Zn  Zn162  1  0.93851504  0.68988470  0.94198147  1
  Zn  Zn163  1  0.06205009  0.31447744  0.06740571  1
  Zn  Zn164  1  0.05947997  0.31637282  0.56511046  1
  Zn  Zn165  1  0.06354427  0.81604650  0.06364113  1
  Zn  Zn166  1  0.06182993  0.81124967  0.56210748  1
  Zn  Zn167  1  0.56229180  0.31235516  0.06365928  1
  Zn  Zn168  1  0.56571392  0.31005450  0.56225366  1
  Zn  Zn169  1  0.56312400  0.81041941  0.06377692  1
  Zn  Zn170  1  0.56075729  0.80714041  0.56204095  1
  O  O171  1  0.11659162  0.12406402  0.12134466  1
  O  O172  1  0.11454344  0.10954805  0.62827731  1
  O  O173  1  0.13036625  0.61876346  0.11602119  1
  O  O174  1  0.11068618  0.62835164  0.61282116  1
  O  O175  1  0.62132417  0.12249620  0.12001931  1
  O  O176  1  0.61589002  0.12247933  0.60975936  1
  O  O177  1  0.61922330  0.61956506  0.12299211  1
  O  O178  1  0.61866200  0.61865284  0.61569118  1
  O  O179  1  0.38336836  0.38828944  0.37646429  1
  O  O180  1  0.37258806  0.38964985  0.88679877  1
  O  O181  1  0.37768902  0.88007329  0.38189556  1
  O  O182  1  0.43941660  0.87140702  0.95712950  1
  O  O183  1  0.86519642  0.38434236  0.39164609  1
  O  O184  1  0.88326200  0.38327107  0.88287116  1
  O  O185  1  0.87429404  0.88257731  0.38191689  1
  O  O186  1  0.87855891  0.88354913  0.88104091  1
  O  O187  1  0.25845662  0.01417217  0.38512162  1
  O  O188  1  0.24352213  -0.00392356  0.85739250  1
  O  O189  1  0.27179209  0.50035816  0.37199743  1
  O  O190  1  0.25872122  0.50838193  0.87168630  1
  O  O191  1  0.75928250  -0.00532386  0.36505855  1
  O  O192  1  0.75663031  0.00964694  0.87605808  1
  O  O193  1  0.75675867  0.50451877  0.37137043  1
  O  O194  1  0.76782833  0.49688631  0.87778928  1
  O  O195  1  0.23625481  0.49885275  0.12443074  1
  O  O196  1  0.24781536  0.50659278  0.64991533  1
  O  O197  1  0.25581680  0.99314505  0.11216290  1
  O  O198  1  0.24102371  0.98893205  0.62917099  1
  O  O199  1  0.74740896  0.49425987  0.13024555  1
  O  O200  1  0.73631890  0.49272050  0.62483057  1
  O  O201  1  0.74237694  0.99679468  0.13128352  1
  O  O202  1  0.74466590  0.98651145  0.62500136  1
  O  O203  1  0.01729906  0.37795498  0.25201747  1
  O  O204  1  0.00310148  0.36997587  0.75976756  1
  O  O205  1  0.01403462  0.86473295  0.25141978  1
  O  O206  1  0.00414664  0.87069468  0.75448769  1
  O  O207  1  0.50623104  0.36579712  0.25468152  1
  O  O208  1  0.51087132  0.36556153  0.74065524  1
  O  O209  1  0.49970480  0.88038214  0.26527234  1
  O  O210  1  0.50645500  0.86231192  0.73800638  1
  O  O211  1  0.49019634  0.13424678  0.24688642  1
  O  O212  1  0.50566595  0.13657925  0.73874017  1
  O  O213  1  0.49370412  0.62181066  0.23455955  1
  O  O214  1  0.49213734  0.63034029  0.74225889  1
  O  O215  1  0.98986168  0.11490193  0.24079222  1
  O  O216  1  1.00101147  0.14275500  0.75796522  1
  O  O217  1  0.99546859  0.63307939  0.25266728  1
  O  O218  1  0.99794451  0.63060385  0.74281049  1
  O  O219  1  0.37368752  0.26114022  0.00372899  1
  O  O220  1  0.37373670  0.25489830  0.50183356  1
  O  O221  1  0.36734640  0.74023189  0.01165208  1
  O  O222  1  0.36604735  0.75749027  0.49163528  1
  O  O223  1  0.87391095  0.25646724  0.01186331  1
  O  O224  1  0.88193466  0.26435197  0.49390167  1
  O  O225  1  0.86711379  0.75572373  0.00653286  1
  O  O226  1  0.86880307  0.76019990  0.49646786  1
  O  O227  1  0.12714718  0.26275002  0.49008320  1
  O  O228  1  0.12842343  0.24933708  0.99349917  1
  O  O229  1  0.13235335  0.74312666  0.49463262  1
  O  O230  1  0.13126553  0.74425944  0.99897628  1
  O  O231  1  0.62105333  0.23405979  0.49146140  1
  O  O232  1  0.62808587  0.24225111  0.99894249  1
  O  O233  1  0.62931459  0.74112191  0.48989660  1
  O  O234  1  0.63038917  0.75115276  0.98985899  1
  O  O235  1  0.49708667  0.24413348  0.13637302  1
  O  O236  1  0.50450814  0.24088897  0.63189670  1
  O  O237  1  0.48786875  0.73963712  0.11369656  1
  O  O238  1  0.50542947  0.73448416  0.63601387  1
  O  O239  1  0.99032555  0.23822711  0.12154606  1
  O  O240  1  1.00575961  0.24932996  0.64308614  1
  O  O241  1  0.98200764  0.75484442  0.11947797  1
  O  O242  1  0.99842699  0.74255927  0.63102551  1
  O  O243  1  0.02175373  0.23768243  0.37677230  1
  O  O244  1  0.00603724  0.25941806  0.87418609  1
  O  O245  1  0.01557207  0.75333691  0.37948755  1
  O  O246  1  0.00484627  0.75638573  0.87175508  1
  O  O247  1  0.50654490  0.25786783  0.36625858  1
  O  O248  1  0.50584317  0.24677437  0.85818317  1
  O  O249  1  0.50981405  0.75998917  0.38045541  1
  O  O250  1  0.50742985  0.74460685  0.86153772  1
  O  O251  1  0.25238993  0.12673819  0.49705794  1
  O  O252  1  0.24227093  0.13741888  0.99543367  1
  O  O253  1  0.23880060  0.63124277  0.51311006  1
  O  O254  1  0.24085201  0.63209131  0.99575504  1
  O  O255  1  0.73325258  0.11398523  0.50082369  1
  O  O256  1  0.74079317  0.12787727  0.99356396  1
  O  O257  1  0.73951773  0.62992867  0.49472802  1
  O  O258  1  0.74686476  0.63925247  1.00366365  1
  O  O259  1  0.26053185  0.37286345  0.00197221  1
  O  O260  1  0.25908910  0.41944133  0.51582831  1
  O  O261  1  0.24760744  0.86116566  -0.00674028  1
  O  O262  1  0.25572995  0.86523427  0.50432576  1
  O  O263  1  0.75729580  0.37446597  0.00966973  1
  O  O264  1  0.75957641  0.37611332  0.51235189  1
  O  O265  1  0.75381724  0.86806911  0.00453944  1
  O  O266  1  0.75495873  0.87193500  0.50454306  1
  O  O267  1  0.12577114  0.49441405  0.24513151  1
  O  O268  1  0.12918590  0.49440113  0.76529955  1
  O  O269  1  0.12294957  0.98498169  0.25177468  1
  O  O270  1  0.13063018  0.99226538  0.74053209  1
  O  O271  1  0.63201679  0.49391021  0.24484974  1
  O  O272  1  0.62377387  0.49208592  0.74083028  1
  O  O273  1  0.63230065  1.00374486  0.24155352  1
  O  O274  1  0.62254267  0.98863639  0.74654080  1
  O  O275  1  0.37441033  0.00970313  0.26267223  1
  O  O276  1  0.35867115  -0.00364990  0.74291204  1
  O  O277  1  0.37482189  0.51153962  0.25139585  1
  O  O278  1  0.36844878  0.50573799  0.75931315  1
  O  O279  1  0.86898713  0.00322226  0.25563825  1
  O  O280  1  0.87223868  -0.00336916  0.76496658  1
  O  O281  1  0.87087476  0.49625840  0.26167783  1
  O  O282  1  0.87894299  0.49829446  0.76754026  1
  O  O283  1  0.13309182  0.36160044  0.36505675  1
  O  O284  1  0.11355884  0.37048690  0.87364572  1
  O  O285  1  0.12646445  0.86628147  0.36482101  1
  O  O286  1  0.11769437  0.86995896  0.86982462  1
  O  O287  1  0.62067117  0.36736669  0.37073833  1
  O  O288  1  0.63575114  0.37695956  0.85920392  1
  O  O289  1  0.61608466  0.86796942  0.37435618  1
  O  O290  1  0.62779553  0.86625450  0.86119411  1
  O  O291  1  0.38415227  0.13374558  0.13159095  1
  O  O292  1  0.38593010  0.12536800  0.63080810  1
  O  O293  1  0.38319080  0.62652495  0.13357041  1
  O  O294  1  0.38279729  0.61190556  0.63734111  1
  O  O295  1  0.88199846  0.12993952  0.13116377  1
  O  O296  1  0.88344641  0.11041334  0.63514832  1
  O  O297  1  0.86945002  0.64079677  0.12441325  1
  O  O298  1  0.88659411  0.62876216  0.62370455  1
  O  O299  1  0.25903103  0.25139630  0.11468351  1
  O  O300  1  0.25682818  0.26144863  0.66504737  1
  O  O301  1  0.26557724  0.74570302  0.11636470  1
  O  O302  1  0.24300701  0.76061318  0.61640162  1
  O  O303  1  0.76238098  0.25552805  0.12625116  1
  O  O304  1  0.74589877  0.26406155  0.62903487  1
  O  O305  1  0.75570864  0.75762217  0.11538958  1
  O  O306  1  0.74957344  0.76105797  0.61622386  1
  O  O307  1  0.24592556  0.23710825  0.37738052  1
  O  O308  1  0.23500743  0.25545308  0.87545493  1
  O  O309  1  0.24093499  0.74935169  0.38941345  1
  O  O310  1  0.24480827  0.74563232  0.88282642  1
  O  O311  1  0.73640131  0.25157663  0.36821807  1
  O  O312  1  0.74833937  0.23990711  0.87669802  1
  O  O313  1  0.74134381  0.74570165  0.37927919  1
  O  O314  1  0.74140795  0.75618858  0.88467991  1
  O  O315  1  0.00382574  0.12157325  0.00872306  1
  O  O316  1  -0.00713636  0.10647006  0.49968183  1
  O  O317  1  0.01243892  0.61619999  -0.00435570  1
  O  O318  1  0.00467741  0.61781915  0.50757689  1
  O  O319  1  0.50987167  0.13583166  0.01151675  1
  O  O320  1  0.50152669  0.11590313  0.50444243  1
  O  O321  1  0.50105002  0.61359687  0.00895382  1
  O  O322  1  0.51058467  0.63304103  0.50818317  1
  O  O323  1  0.50511232  0.37328531  0.48651595  1
  O  O324  1  0.49185298  0.38763127  1.00623233  1
  O  O325  1  0.49146871  0.88093542  0.49725382  1
  O  O326  1  0.49846558  0.89202563  0.99722396  1
  O  O327  1  0.98262878  0.38494701  0.51282529  1
  O  O328  1  0.99667549  0.38362038  0.99549884  1
  O  O329  1  0.98853634  0.88092161  0.49894438  1
  O  O330  1  0.99531439  0.88162128  0.99364523  1
  O  O331  1  0.49203744  0.48831391  0.36246332  1
  O  O332  1  0.49120584  0.50848834  0.88539264  1
  O  O333  1  0.48841821  0.99432075  0.38323883  1
  O  O334  1  0.49040646  0.99486116  0.87053602  1
  O  O335  1  0.98632522  0.50383120  0.38739539  1
  O  O336  1  0.99378685  0.49232230  0.88690538  1
  O  O337  1  0.99094062  0.99565198  0.38156387  1
  O  O338  1  0.99293406  0.99712054  0.87955651  1
  O  O339  1  -0.00106825  0.00981665  0.11828584  1
  O  O340  1  0.00890008  -0.00685306  0.61554568  1
  O  O341  1  0.01016017  0.49505918  0.11465343  1
  O  O342  1  -0.00685125  0.50869406  0.61580912  1
  O  O343  1  0.51145316  0.01824630  0.13200195  1
  O  O344  1  0.49873306  0.00805268  0.61389838  1
  O  O345  1  0.50740226  0.50665809  0.11696462  1
  O  O346  1  0.51325313  0.51135432  0.62958785  1
  O  O347  1  0.23920898  0.37881403  0.24766873  1
  O  O348  1  0.23447013  0.39013698  0.76224560  1
  O  O349  1  0.24272228  0.87499351  0.25428964  1
  O  O350  1  0.24513795  0.88006523  0.74083232  1
  O  O351  1  0.74610046  0.38011053  0.24622410  1
  O  O352  1  0.74446402  0.38145825  0.73715521  1
  O  O353  1  0.74560219  0.88820024  0.24272343  1
  O  O354  1  0.73910118  0.87443273  0.73998553  1
  O  O355  1  0.26374092  0.13115402  0.24804481  1
  O  O356  1  0.24467180  0.10598804  0.74589001  1
  O  O357  1  0.26546366  0.62053130  0.24606144  1
  O  O358  1  0.25475130  0.62399901  0.75702810  1
  O  O359  1  0.76255483  0.11230978  0.24240327  1
  O  O360  1  0.74379667  0.12244387  0.76004288  1
  O  O361  1  0.75641369  0.61675633  0.25606160  1
  O  O362  1  0.75464279  0.62097606  0.74369436  1
  O  O363  1  0.36399472  0.12040211  0.37088931  1
  O  O364  1  0.36492241  0.13761552  0.86366240  1
  O  O365  1  0.38995986  0.61755138  0.35564185  1
  O  O366  1  0.37069718  0.61615396  0.86598915  1
  O  O367  1  0.87979526  0.11294765  0.36435543  1
  O  O368  1  0.86538958  0.11908580  0.87423894  1
  O  O369  1  0.86665026  0.61504537  0.37823075  1
  O  O370  1  0.88381359  0.61085586  0.87715732  1
  O  O371  1  0.12676669  0.38160337  0.13658785  1
  O  O372  1  0.12376449  0.37536635  0.64302030  1
  O  O373  1  0.12561499  0.87384091  0.14092830  1
  O  O374  1  0.13263462  0.88071077  0.62840325  1
  O  O375  1  0.63096141  0.37963816  0.13187918  1
  O  O376  1  0.63424844  0.38098267  0.62764505  1
  O  O377  1  0.62697831  0.88502982  0.12522390  1
  O  O378  1  0.63045034  0.87370649  0.63047502  1
  O  O379  1  0.12718835  0.26096261  0.25405369  1
  O  O380  1  0.11212367  0.26108133  0.76209889  1
  O  O381  1  0.13238531  0.75634866  0.25952044  1
  O  O382  1  0.12091132  0.75432380  0.75719091  1
  O  O383  1  0.61769493  0.25182045  0.25649388  1
  O  O384  1  0.61682885  0.26040546  0.74919559  1
  O  O385  1  0.63221287  0.75127129  0.26235227  1
  O  O386  1  0.61732503  0.75522826  0.75500263  1
  O  O387  1  0.38242305  0.24620844  0.24811248  1
  O  O388  1  0.39547377  0.25350170  0.74488427  1
  O  O389  1  0.37059786  0.73621632  0.23743776  1
  O  O390  1  0.38188090  0.73780943  0.75520593  1
  O  O391  1  0.87113643  0.23807591  0.24299955  1
  O  O392  1  0.89014339  0.25484111  0.75975205  1
  O  O393  1  0.86952534  0.75439521  0.23320441  1
  O  O394  1  0.88355009  0.75220433  0.74903494  1
  O  O395  1  0.38672589  0.51921713  0.47898140  1
  O  O396  1  0.38116915  0.49745252  0.99526430  1
  O  O397  1  0.38043436  0.99040852  0.49203223  1
  O  O398  1  0.43875425  1.01966762  0.91847522  1
  O  O399  1  0.87951440  0.49474921  0.49475474  1
  O  O400  1  0.88364524  0.49697732  0.99507232  1
  O  O401  1  0.87889310  0.99095436  0.49094766  1
  O  O402  1  0.87905562  0.99741255  0.99065502  1
  O  O403  1  0.11820144  0.00850341  0.00175565  1
  O  O404  1  0.11509158  -0.01115168  0.50686110  1
  O  O405  1  0.12001755  0.50644535  0.00720524  1
  O  O406  1  0.10973668  0.50736947  0.48886409  1
  O  O407  1  0.63022526  0.01093400  0.01212526  1
  O  O408  1  0.61251109  0.00883458  0.49535060  1
  O  O409  1  0.61802221  0.50042473  0.00455705  1
  O  O410  1  0.62928782  0.51101054  0.50426712  1
  O  O411  1  0.37582100  0.37281362  0.11565336  1
  O  O412  1  0.36924965  0.37370342  0.61991879  1
  O  O413  1  0.38168510  0.85720522  0.13171738  1
  O  O414  1  0.36357401  0.87973950  0.61083239  1
  O  O415  1  0.87397916  0.36760370  0.12518635  1
  O  O416  1  0.86134614  0.37900703  0.61692620  1
  O  O417  1  0.86874750  0.86954913  0.11843385  1
  O  O418  1  0.86461694  0.87526106  0.61394849  1
  O  O419  1  0.14129029  0.13408770  0.37322366  1
  O  O420  1  0.12641850  0.13573731  0.88104626  1
  O  O421  1  0.12174457  0.63248379  0.38934436  1
  O  O422  1  0.12957823  0.63192730  0.88659792  1
  O  O423  1  0.61722192  0.13038398  0.38519835  1
  O  O424  1  0.63141339  0.12424957  0.88556491  1
  O  O425  1  0.62679734  0.63045422  0.37929296  1
  O  O426  1  0.62321036  0.63740929  0.87366411  1
