# generated using pymatgen
data_V85Zn86O256
_symmetry_space_group_name_H-M   'P 1'
_cell_length_a   16.95429194
_cell_length_b   16.94429833
_cell_length_c   16.94241677
_cell_angle_alpha   89.98725860
_cell_angle_beta   89.93276358
_cell_angle_gamma   89.95182105
_symmetry_Int_Tables_number   1
_chemical_formula_structural   V85Zn86O256
_chemical_formula_sum   'V85 Zn86 O256'
_cell_volume   4867.18825217
_cell_formula_units_Z   1
loop_
 _symmetry_equiv_pos_site_id
 _symmetry_equiv_pos_as_xyz
  1  'x, y, z'
loop_
 _atom_site_type_symbol
 _atom_site_label
 _atom_site_symmetry_multiplicity
 _atom_site_fract_x
 _atom_site_fract_y
 _atom_site_fract_z
 _atom_site_occupancy
  V  V0  1  0.37852720  0.74728852  0.12418401  1
  V  V1  1  0.25153843  0.74733705  -0.00123585  1
  V  V2  1  -0.00167261  0.37400455  0.37467752  1
  V  V3  1  0.01405493  0.37013391  0.86994532  1
  V  V4  1  0.87158729  0.49828642  0.87021677  1
  V  V5  1  0.61766355  0.00688273  0.62191198  1
  V  V6  1  0.49761489  0.87452360  0.87334301  1
  V  V7  1  0.87708052  0.87885711  -0.00200199  1
  V  V8  1  0.39359676  0.24682625  0.62558310  1
  V  V9  1  0.62938411  0.12379787  -0.00812331  1
  V  V10  1  0.37544042  0.88200136  0.49432006  1
  V  V11  1  0.12818131  0.62392599  -0.00004121  1
  V  V12  1  0.11630660  0.00349772  0.11475145  1
  V  V13  1  0.25285283  0.61976800  0.86052998  1
  V  V14  1  0.74485839  0.87388193  0.12915730  1
  V  V15  1  0.50388468  0.87556560  0.36896693  1
  V  V16  1  0.49968748  -0.00064429  -0.00030322  1
  V  V17  1  0.37541903  0.87368573  -0.00158794  1
  V  V18  1  0.64046505  0.37692607  0.74649228  1
  V  V19  1  0.49450448  0.74438451  0.74924580  1
  V  V20  1  0.74492695  0.00432761  0.75026848  1
  V  V21  1  0.62421765  0.24810908  0.86929574  1
  V  V22  1  0.12015586  0.11921918  0.50113160  1
  V  V23  1  0.00114743  0.49879332  0.00126850  1
  V  V24  1  0.37818610  0.24840642  0.12954156  1
  V  V25  1  0.50255465  0.12547594  0.12619076  1
  V  V26  1  0.25375509  0.00631981  0.25440721  1
  V  V27  1  0.62103726  0.61075849  0.00289065  1
  V  V28  1  0.62604884  0.38000434  0.24314633  1
  V  V29  1  0.74945802  0.13299424  0.37307390  1
  V  V30  1  0.37421770  0.74725251  0.62696146  1
  V  V31  1  -0.00631363  0.75043485  0.74691197  1
  V  V32  1  0.74727651  -0.00162870  0.25009876  1
  V  V33  1  0.62159055  0.87532005  0.74695779  1
  V  V34  1  0.49911989  0.37447991  0.86739071  1
  V  V35  1  0.74946838  0.25812618  0.50007314  1
  V  V36  1  0.74566065  0.50902169  0.23823683  1
  V  V37  1  0.86896109  0.00164960  0.87175520  1
  V  V38  1  0.38619386  0.13306028  0.75202573  1
  V  V39  1  0.62244223  0.13237475  0.49716165  1
  V  V40  1  -0.00569060  0.24585226  0.23993504  1
  V  V41  1  0.24655337  0.25175807  0.50603917  1
  V  V42  1  0.25372948  0.37526763  0.12717739  1
  V  V43  1  0.74775977  0.74784986  -0.00283696  1
  V  V44  1  0.25391438  0.49998719  0.25451924  1
  V  V45  1  0.63588650  0.50215525  0.62753569  1
  V  V46  1  0.37200140  0.37988954  0.49833787  1
  V  V47  1  0.74599483  0.62739893  0.39560868  1
  V  V48  1  0.38238281  0.38452240  0.00172530  1
  V  V49  1  0.62563699  -0.00316807  0.12514720  1
  V  V50  1  0.49908440  0.50294765  0.49848387  1
  V  V51  1  0.62316851  0.74826864  0.87452013  1
  V  V52  1  -0.00124148  0.74894130  0.25035780  1
  V  V53  1  0.87568384  0.74800203  0.12467209  1
  V  V54  1  0.74666586  0.86995035  0.61764352  1
  V  V55  1  0.49942736  0.62349592  0.62261902  1
  V  V56  1  0.12487167  0.74939024  0.87431219  1
  V  V57  1  0.25031602  0.88023432  0.62585542  1
  V  V58  1  0.50364072  0.37761284  0.37632722  1
  V  V59  1  0.25023222  0.87345517  0.12446126  1
  V  V60  1  0.12840005  0.48877373  0.63807050  1
  V  V61  1  0.12607121  0.87587958  0.25007470  1
  V  V62  1  0.12694462  0.37444610  0.25202331  1
  V  V63  1  0.00189022  0.49887213  0.49867091  1
  V  V64  1  0.36750414  0.00601918  0.87291566  1
  V  V65  1  0.12642310  0.74855186  0.37823570  1
  V  V66  1  0.86910686  0.12865908  0.74729612  1
  V  V67  1  -0.00454047  0.11820055  0.61717707  1
  V  V68  1  0.86967503  0.25816486  0.62609872  1
  V  V69  1  0.50899756  0.25113358  0.25649667  1
  V  V70  1  0.63106251  0.75347290  0.38351200  1
  V  V71  1  -0.00101468  0.88091159  0.38098350  1
  V  V72  1  0.00253583  0.62629853  0.62498207  1
  V  V73  1  0.75089727  0.25071856  0.00624235  1
  V  V74  1  0.50434341  0.61109581  0.12376400  1
  V  V75  1  0.37438239  0.50189589  0.85677058  1
  V  V76  1  0.38026230  0.62302941  0.25361385  1
  V  V77  1  -0.00256277  0.88165017  0.87520875  1
  V  V78  1  0.24995771  0.23718372  -0.00177835  1
  V  V79  1  0.49646830  0.00632548  0.49485747  1
  V  V80  1  0.12477216  0.88135030  0.74910660  1
  V  V81  1  0.86994536  0.87226113  0.49942875  1
  V  V82  1  0.87696984  0.00418278  0.37843479  1
  V  V83  1  0.12757098  0.50114500  0.12578350  1
  V  V84  1  0.25694587  0.62180932  0.37735985  1
  Zn  Zn85  1  0.87134747  0.50293944  0.37560801  1
  Zn  Zn86  1  0.75669160  0.37195190  0.12858864  1
  Zn  Zn87  1  0.25433684  0.37907105  0.65058971  1
  Zn  Zn88  1  0.25599869  0.12260257  0.38303048  1
  Zn  Zn89  1  0.12477677  0.22931311  0.89122841  1
  Zn  Zn90  1  0.86460092  0.74485288  0.61913396  1
  Zn  Zn91  1  0.74314069  0.61676540  0.86721625  1
  Zn  Zn92  1  0.25278260  0.75065190  0.49968031  1
  Zn  Zn93  1  0.51121276  0.75368086  0.24623121  1
  Zn  Zn94  1  0.87334953  0.13025131  0.22915626  1
  Zn  Zn95  1  0.86571904  0.61742877  0.74615400  1
  Zn  Zn96  1  0.00323249  0.12898066  0.09310532  1
  Zn  Zn97  1  0.11786738  0.00036644  0.62203569  1
  Zn  Zn98  1  0.12692879  0.24633979  0.37388323  1
  Zn  Zn99  1  0.87373700  0.62409652  0.25337513  1
  Zn  Zn100  1  0.38537027  0.11764225  0.26203661  1
  Zn  Zn101  1  0.24330906  0.01713779  0.75328803  1
  Zn  Zn102  1  0.02293351  0.24910861  0.74397694  1
  Zn  Zn103  1  0.00161829  0.62457823  0.12573202  1
  Zn  Zn104  1  0.88169421  0.36627908  0.00615619  1
  Zn  Zn105  1  0.86936105  0.37839008  0.50293100  1
  Zn  Zn106  1  0.13011320  0.62326907  0.50189613  1
  Zn  Zn107  1  0.18144931  0.18638080  0.18213524  1
  Zn  Zn108  1  0.20821527  0.21588985  0.71863600  1
  Zn  Zn109  1  0.19016374  0.68677387  0.18944026  1
  Zn  Zn110  1  0.18319148  0.69102417  0.68510726  1
  Zn  Zn111  1  0.68476161  0.18471591  0.18730517  1
  Zn  Zn112  1  0.68465480  0.19187772  0.68323290  1
  Zn  Zn113  1  0.68196854  0.69063891  0.19053393  1
  Zn  Zn114  1  0.68405725  0.68439901  0.68756828  1
  Zn  Zn115  1  0.31573103  0.31051360  0.31885669  1
  Zn  Zn116  1  0.31203017  0.31319995  0.81678327  1
  Zn  Zn117  1  0.31493538  0.81166668  0.30998165  1
  Zn  Zn118  1  0.31037930  0.81333235  0.81273338  1
  Zn  Zn119  1  0.81438270  0.31765510  0.31091110  1
  Zn  Zn120  1  0.81286730  0.31413072  0.82132135  1
  Zn  Zn121  1  0.81068136  0.81147723  0.31405849  1
  Zn  Zn122  1  0.80647374  0.81205543  0.80803895  1
  Zn  Zn123  1  0.18557790  0.43741232  0.44085797  1
  Zn  Zn124  1  0.19545973  0.43404221  0.93821556  1
  Zn  Zn125  1  0.18762252  0.93787867  0.43784220  1
  Zn  Zn126  1  0.18791212  0.93734984  0.93654853  1
  Zn  Zn127  1  0.68128231  0.44286431  0.43499683  1
  Zn  Zn128  1  0.68752205  0.43121225  0.93632485  1
  Zn  Zn129  1  0.68520618  0.94079052  0.43545357  1
  Zn  Zn130  1  0.68748030  0.93302870  0.93755394  1
  Zn  Zn131  1  0.31406900  0.05852293  0.07107694  1
  Zn  Zn132  1  0.31142794  0.06843608  0.56793674  1
  Zn  Zn133  1  0.31407068  0.56324289  0.06223027  1
  Zn  Zn134  1  0.31033340  0.56144636  0.56820376  1
  Zn  Zn135  1  0.81433792  0.06473018  0.06032804  1
  Zn  Zn136  1  0.80812753  0.06277663  0.56059264  1
  Zn  Zn137  1  0.81271594  0.56321649  0.05660297  1
  Zn  Zn138  1  0.81823130  0.56082811  0.56539462  1
  Zn  Zn139  1  0.43732002  0.43792313  0.19090030  1
  Zn  Zn140  1  0.44254773  0.43235312  0.68459063  1
  Zn  Zn141  1  0.43651762  0.93657950  0.18583840  1
  Zn  Zn142  1  0.43541026  0.94096702  0.68663951  1
  Zn  Zn143  1  0.93244269  0.43536050  0.18693790  1
  Zn  Zn144  1  0.94557632  0.43434616  0.69046377  1
  Zn  Zn145  1  0.93370662  0.93926794  0.19091480  1
  Zn  Zn146  1  0.93284837  0.93791066  0.68598269  1
  Zn  Zn147  1  0.06777527  0.06403321  0.31104310  1
  Zn  Zn148  1  0.06386325  0.08015103  0.81083356  1
  Zn  Zn149  1  0.06574933  0.56273092  0.31335547  1
  Zn  Zn150  1  0.06049884  0.56311662  0.81437377  1
  Zn  Zn151  1  0.56597366  0.06232630  0.31518509  1
  Zn  Zn152  1  0.55662507  0.06330099  0.81089063  1
  Zn  Zn153  1  0.56691601  0.56706740  0.31635676  1
  Zn  Zn154  1  0.55957041  0.55932706  0.81207593  1
  Zn  Zn155  1  0.43411552  0.19024709  0.43576212  1
  Zn  Zn156  1  0.44066966  0.19087932  0.93905926  1
  Zn  Zn157  1  0.44139924  0.69346887  0.43974946  1
  Zn  Zn158  1  0.43827525  0.68010751  0.93714504  1
  Zn  Zn159  1  0.93520596  0.19126273  0.43480044  1
  Zn  Zn160  1  0.92956906  0.18626925  0.92875230  1
  Zn  Zn161  1  0.93461820  0.68729902  0.43845680  1
  Zn  Zn162  1  0.93777659  0.68578751  0.93556921  1
  Zn  Zn163  1  0.06674971  0.31619386  0.06302443  1
  Zn  Zn164  1  0.05861605  0.30779563  0.56310843  1
  Zn  Zn165  1  0.06335287  0.81526946  0.06129952  1
  Zn  Zn166  1  0.06052400  0.81511091  0.56091093  1
  Zn  Zn167  1  0.56321898  0.31516738  0.06037224  1
  Zn  Zn168  1  0.56860425  0.31963685  0.56099295  1
  Zn  Zn169  1  0.56148113  0.80670207  0.06105067  1
  Zn  Zn170  1  0.56115227  0.81471820  0.55907013  1
  O  O171  1  0.11741097  0.10914722  0.12354263  1
  O  O172  1  0.11002839  0.12370154  0.61456625  1
  O  O173  1  0.12618062  0.61970205  0.11924058  1
  O  O174  1  0.11644247  0.61741553  0.62321056  1
  O  O175  1  0.62027055  0.11672943  0.11469130  1
  O  O176  1  0.63018381  0.11524213  0.61299758  1
  O  O177  1  0.61965150  0.63003451  0.11114804  1
  O  O178  1  0.61298493  0.61128562  0.63049489  1
  O  O179  1  0.38814067  0.37413955  0.38724820  1
  O  O180  1  0.37932462  0.38292899  0.87996812  1
  O  O181  1  0.38301689  0.86648082  0.38823935  1
  O  O182  1  0.37840849  0.88335037  0.87890529  1
  O  O183  1  0.88769589  0.38057124  0.37690811  1
  O  O184  1  0.88588740  0.38442922  0.88359908  1
  O  O185  1  0.87954979  0.88155044  0.37987714  1
  O  O186  1  0.87837532  0.87890952  0.87833797  1
  O  O187  1  0.24555212  -0.00300757  0.35724747  1
  O  O188  1  0.26293280  -0.00187554  0.87423119  1
  O  O189  1  0.24350118  0.51404099  0.37145662  1
  O  O190  1  0.26318274  0.50528194  0.87698788  1
  O  O191  1  0.75585199  0.00728650  0.36714216  1
  O  O192  1  0.75571701  -0.01072745  0.86064916  1
  O  O193  1  0.74789489  0.51667082  0.37411068  1
  O  O194  1  0.76860005  0.49606950  0.88350055  1
  O  O195  1  0.24756721  0.49520823  0.13273618  1
  O  O196  1  0.23404928  0.49495981  0.62349248  1
  O  O197  1  0.23891642  0.99278476  0.13300419  1
  O  O198  1  0.24960701  0.98770852  0.62972332  1
  O  O199  1  0.75061719  0.50348413  0.13665681  1
  O  O200  1  0.73449242  0.50505985  0.61988674  1
  O  O201  1  0.74714130  0.99237739  0.13017213  1
  O  O202  1  0.73856505  0.99233947  0.63021693  1
  O  O203  1  0.00577984  0.36830413  0.25547109  1
  O  O204  1  0.00228806  0.36557093  0.76510724  1
  O  O205  1  0.00261113  0.86442649  0.25954118  1
  O  O206  1  0.00607078  0.87001815  0.75291957  1
  O  O207  1  0.50589361  0.37227511  0.25685927  1
  O  O208  1  0.50629947  0.37513397  0.76265380  1
  O  O209  1  0.49034362  0.87484790  0.26441308  1
  O  O210  1  0.50323650  0.86773193  0.75250778  1
  O  O211  1  0.50570983  0.13379715  0.24605576  1
  O  O212  1  0.48644167  0.11721392  0.74045083  1
  O  O213  1  0.49432601  0.62536729  0.24490997  1
  O  O214  1  0.50140414  0.63669065  0.74092285  1
  O  O215  1  1.00134524  0.14268473  0.25641884  1
  O  O216  1  0.97842001  0.12476569  0.73888020  1
  O  O217  1  0.99821339  0.63747407  0.25018355  1
  O  O218  1  0.99936543  0.63561756  0.74266918  1
  O  O219  1  0.37182076  0.25637244  0.01263824  1
  O  O220  1  0.37208403  0.25886213  0.51071057  1
  O  O221  1  0.37153714  0.75291242  0.00305229  1
  O  O222  1  0.37695099  0.76284645  0.51186902  1
  O  O223  1  0.85337392  0.24578299  -0.01144345  1
  O  O224  1  0.86693008  0.25283676  0.50846819  1
  O  O225  1  0.87020525  0.75686840  0.00533859  1
  O  O226  1  0.87767191  0.76656144  0.50133073  1
  O  O227  1  0.13149206  0.24226146  0.50040503  1
  O  O228  1  0.14523121  0.25336572  1.00663582  1
  O  O229  1  0.12595414  0.75022731  0.48800411  1
  O  O230  1  0.13037357  0.74573833  0.99352167  1
  O  O231  1  0.63372405  0.24133769  0.50712531  1
  O  O232  1  0.62915354  0.24129409  0.99331417  1
  O  O233  1  0.62108571  0.75203349  0.48506070  1
  O  O234  1  0.63013572  0.74405087  0.99211878  1
  O  O235  1  0.49579809  0.24660143  0.13278635  1
  O  O236  1  0.49157586  0.25641299  0.62001791  1
  O  O237  1  0.49489339  0.74072461  0.12760711  1
  O  O238  1  0.49495503  0.74436798  0.62956379  1
  O  O239  1  1.00839642  0.24787602  0.13621543  1
  O  O240  1  0.98907199  0.23978491  0.62985969  1
  O  O241  1  0.99299810  0.75257144  0.13307987  1
  O  O242  1  1.00203202  0.74248100  0.63066587  1
  O  O243  1  0.00235829  0.26118761  0.36722045  1
  O  O244  1  -0.00039094  0.26578427  0.88254187  1
  O  O245  1  0.00622132  0.75677825  0.36875553  1
  O  O246  1  0.00330739  0.75890886  0.86605983  1
  O  O247  1  0.49668754  0.26128253  0.36425921  1
  O  O248  1  0.51327689  0.25935822  0.87854840  1
  O  O249  1  0.51127303  0.75774451  0.37401204  1
  O  O250  1  0.50029214  0.75339891  0.86656235  1
  O  O251  1  0.23884099  0.13280078  0.50464854  1
  O  O252  1  0.25885703  0.13829531  1.01174800  1
  O  O253  1  0.25129987  0.62907850  0.49170324  1
  O  O254  1  0.24658881  0.62933054  0.99134214  1
  O  O255  1  0.74296146  0.13321978  0.49162762  1
  O  O256  1  0.73635667  0.13141209  1.00122572  1
  O  O257  1  0.75363974  0.62657690  0.49409548  1
  O  O258  1  0.73763818  0.63008936  0.99556240  1
  O  O259  1  0.26334061  0.36625168  0.00896619  1
  O  O260  1  0.26028042  0.37064234  0.49896106  1
  O  O261  1  0.25659579  0.86651290  0.00317357  1
  O  O262  1  0.25754891  0.87559493  0.50770144  1
  O  O263  1  0.74330413  0.35918631  0.00523734  1
  O  O264  1  0.74861174  0.36244194  0.48673162  1
  O  O265  1  0.75827382  0.86839591  0.00785740  1
  O  O266  1  0.75615395  0.88300731  0.50708383  1
  O  O267  1  0.13260624  0.49553519  0.24531555  1
  O  O268  1  0.11661001  0.50099871  0.73675911  1
  O  O269  1  0.13409430  0.99363209  0.24146243  1
  O  O270  1  0.12455610  0.99239789  0.75225798  1
  O  O271  1  0.63810338  0.49566421  0.25541072  1
  O  O272  1  0.62073679  0.48965443  0.74040018  1
  O  O273  1  0.63962953  1.00552283  0.24277222  1
  O  O274  1  0.62674598  0.99713515  0.74209717  1
  O  O275  1  0.35781156  0.00186238  0.23856673  1
  O  O276  1  0.37420433  0.00800941  0.75783348  1
  O  O277  1  0.36985682  0.51395695  0.24820108  1
  O  O278  1  0.37072120  0.49144225  0.75809522  1
  O  O279  1  0.86369786  0.00252032  0.25954482  1
  O  O280  1  0.86228098  0.00489928  0.75222029  1
  O  O281  1  0.85961623  0.50267020  0.25428998  1
  O  O282  1  0.88513021  0.49726376  0.76625568  1
  O  O283  1  0.11487397  0.37619095  0.36947069  1
  O  O284  1  0.11533923  0.37232242  0.88146694  1
  O  O285  1  0.11756723  0.86856239  0.37160086  1
  O  O286  1  0.11671888  0.87135645  0.86817131  1
  O  O287  1  0.61106805  0.37932734  0.36500134  1
  O  O288  1  0.61841376  0.37266565  0.86356410  1
  O  O289  1  0.61853795  0.86598408  0.37770949  1
  O  O290  1  0.61671093  0.86975520  0.86825353  1
  O  O291  1  0.38461651  0.13373864  0.13172975  1
  O  O292  1  0.38071647  0.14107548  0.62684083  1
  O  O293  1  0.38395651  0.62814912  0.13106062  1
  O  O294  1  0.38122162  0.63854611  0.62254332  1
  O  O295  1  0.89494044  0.11152553  0.11918248  1
  O  O296  1  0.87625889  0.13225172  0.62704582  1
  O  O297  1  0.87688894  0.63945658  0.12373957  1
  O  O298  1  0.88809943  0.62754935  0.62762640  1
  O  O299  1  0.26126115  0.25506052  0.12428749  1
  O  O300  1  0.25849972  0.25334342  0.61155492  1
  O  O301  1  0.25698943  0.75296317  0.11913422  1
  O  O302  1  0.25620781  0.76082891  0.62456255  1
  O  O303  1  0.74326952  0.24717733  0.11043998  1
  O  O304  1  0.75843789  0.24673019  0.61235899  1
  O  O305  1  0.75701500  0.75634077  0.12100963  1
  O  O306  1  0.74590660  0.76578788  0.62935137  1
  O  O307  1  0.24859543  0.25033251  0.39112523  1
  O  O308  1  0.25641188  0.24599553  0.89629993  1
  O  O309  1  0.24108106  0.74343245  0.37395175  1
  O  O310  1  0.24590190  0.74222896  0.87917044  1
  O  O311  1  0.76040780  0.23921465  0.38100013  1
  O  O312  1  0.73204021  0.25584061  0.88626673  1
  O  O313  1  0.74173869  0.74147129  0.37415395  1
  O  O314  1  0.74109844  0.75254505  0.88148888  1
  O  O315  1  0.00955883  0.11619258  -0.02623426  1
  O  O316  1  0.00802544  0.13240215  0.50457307  1
  O  O317  1  0.00943228  0.61615518  -0.00067542  1
  O  O318  1  0.00117243  0.61837508  0.50750751  1
  O  O319  1  0.50834470  0.11951209  0.00613687  1
  O  O320  1  0.51119119  0.11851023  0.48913337  1
  O  O321  1  0.51277180  0.62677169  0.00742910  1
  O  O322  1  0.49358494  0.61666677  0.51110805  1
  O  O323  1  0.49430756  0.38157490  0.49441575  1
  O  O324  1  0.49163626  0.36984401  0.98752437  1
  O  O325  1  0.49339425  0.88502434  0.49165055  1
  O  O326  1  0.49469914  0.87894514  0.99412612  1
  O  O327  1  1.00034840  0.38220577  0.49101786  1
  O  O328  1  1.00303578  0.38496829  0.99340878  1
  O  O329  1  0.99218015  0.87554028  0.48759716  1
  O  O330  1  0.98802691  0.86789139  0.98780023  1
  O  O331  1  0.50636164  0.49645624  0.38944255  1
  O  O332  1  0.48298000  0.49298587  0.87128447  1
  O  O333  1  0.50843177  0.99062384  0.38555653  1
  O  O334  1  0.49024587  0.99365824  0.88046722  1
  O  O335  1  1.00015011  0.49550895  0.38238119  1
  O  O336  1  0.99773931  0.48914847  0.88258785  1
  O  O337  1  0.99026604  0.98967294  0.36225165  1
  O  O338  1  0.98451873  0.98601907  0.86134728  1
  O  O339  1  0.01569630  -0.01110062  0.13039068  1
  O  O340  1  -0.00453848  0.01260272  0.62573819  1
  O  O341  1  0.00739922  0.50155581  0.11736664  1
  O  O342  1  0.00695206  0.50712531  0.61943998  1
  O  O343  1  0.50561522  0.00316032  0.11983924  1
  O  O344  1  0.51021221  -0.00690722  0.61170724  1
  O  O345  1  0.50046058  0.51155506  0.12878402  1
  O  O346  1  0.50248984  0.50855394  0.62060909  1
  O  O347  1  0.24918575  0.37972507  0.24850914  1
  O  O348  1  0.22774124  0.32807745  0.74716548  1
  O  O349  1  0.24663453  0.88141643  0.24446721  1
  O  O350  1  0.23800100  0.87379504  0.74319223  1
  O  O351  1  0.74227428  0.38772309  0.25287963  1
  O  O352  1  0.73888392  0.37947252  0.75571807  1
  O  O353  1  0.75768392  0.88390248  0.23837470  1
  O  O354  1  0.74164820  0.88451634  0.73923557  1
  O  O355  1  0.24558799  0.11165943  0.24793970  1
  O  O356  1  0.27615840  0.12497332  0.74036313  1
  O  O357  1  0.25925755  0.62107272  0.25759221  1
  O  O358  1  0.24564549  0.63162408  0.76174461  1
  O  O359  1  0.75390749  0.11968952  0.25556120  1
  O  O360  1  0.75332858  0.11204343  0.73990427  1
  O  O361  1  0.74859979  0.61503640  0.25275354  1
  O  O362  1  0.75468491  0.63365504  0.75609232  1
  O  O363  1  0.36878618  0.12664722  0.37228870  1
  O  O364  1  0.38515916  0.12037418  0.86316237  1
  O  O365  1  0.36714808  0.63613107  0.36727596  1
  O  O366  1  0.36958197  0.60973097  0.87563528  1
  O  O367  1  0.86662558  0.11666147  0.37531386  1
  O  O368  1  0.87297980  0.11111650  0.86144495  1
  O  O369  1  0.85928787  0.62842219  0.37316944  1
  O  O370  1  0.87816595  0.60933135  0.87345412  1
  O  O371  1  0.13420860  0.38251183  0.13270380  1
  O  O372  1  0.11821863  0.38707529  0.62398249  1
  O  O373  1  0.13164731  0.87716776  0.13142577  1
  O  O374  1  0.13035342  0.87773134  0.63119411  1
  O  O375  1  0.62609578  0.37453694  0.13906834  1
  O  O376  1  0.62180244  0.38548566  0.63927946  1
  O  O377  1  0.63755310  0.87897410  0.11612915  1
  O  O378  1  0.62845494  0.88458248  0.62626503  1
  O  O379  1  0.11749754  0.25721523  0.25193435  1
  O  O380  1  0.11531815  0.19057161  0.78289416  1
  O  O381  1  0.11844004  0.75419671  0.25817673  1
  O  O382  1  0.11460899  0.76102664  0.75402182  1
  O  O383  1  0.61550306  0.25917157  0.24691692  1
  O  O384  1  0.63098549  0.26410625  0.75470392  1
  O  O385  1  0.62430247  0.74826772  0.26812794  1
  O  O386  1  0.61222791  0.75582228  0.75320159  1
  O  O387  1  0.38687868  0.25412661  0.24049145  1
  O  O388  1  0.38073490  0.24235446  0.73932484  1
  O  O389  1  0.37637858  0.73790009  0.24211347  1
  O  O390  1  0.38459732  0.76040442  0.73933059  1
  O  O391  1  0.89011477  0.25158247  0.25028356  1
  O  O392  1  0.86148580  0.23955753  0.74387793  1
  O  O393  1  0.88217218  0.75168985  0.24125372  1
  O  O394  1  0.88729893  0.75588355  0.74474012  1
  O  O395  1  0.38486635  0.48885997  0.51264317  1
  O  O396  1  0.37207926  0.48746686  0.99656705  1
  O  O397  1  0.38437912  0.99313986  0.50954231  1
  O  O398  1  0.37993035  0.99543123  0.99450938  1
  O  O399  1  0.88848949  0.49648946  0.50051575  1
  O  O400  1  0.88920224  0.50301449  0.99168122  1
  O  O401  1  0.86912533  0.99215121  0.48625275  1
  O  O402  1  0.86338232  0.98695489  0.98567702  1
  O  O403  1  0.12745523  -0.01198778  0.01611205  1
  O  O404  1  0.12931270  0.01349241  0.50178725  1
  O  O405  1  0.12102282  0.50321926  0.00512062  1
  O  O406  1  0.11371586  0.50235329  0.50904985  1
  O  O407  1  0.62064622  0.00509809  0.00200713  1
  O  O408  1  0.61833688  0.00969955  0.50480249  1
  O  O409  1  0.62923659  0.51227241  -0.00450019  1
  O  O410  1  0.61167148  0.48878366  0.51865774  1
  O  O411  1  0.37552609  0.36816092  0.12039105  1
  O  O412  1  0.37303211  0.36446570  0.61993229  1
  O  O413  1  0.37106536  0.86822021  0.11722296  1
  O  O414  1  0.36843690  0.86943006  0.61814287  1
  O  O415  1  0.86960362  0.37639571  0.11745106  1
  O  O416  1  0.88258548  0.36216072  0.62578639  1
  O  O417  1  0.86825111  0.86802827  0.11667543  1
  O  O418  1  0.86446655  0.87737952  0.61542074  1
  O  O419  1  0.12940545  0.12609502  0.38739520  1
  O  O420  1  0.08000163  0.11693401  0.92458996  1
  O  O421  1  0.13481707  0.63473317  0.37535879  1
  O  O422  1  0.13275962  0.62887147  0.87967730  1
  O  O423  1  0.63911935  0.12108412  0.38448404  1
  O  O424  1  0.61575267  0.13196827  0.88238167  1
  O  O425  1  0.63767511  0.63556429  0.37918321  1
  O  O426  1  0.62045771  0.62840687  0.88578569  1
