# generated using pymatgen
data_V85Zn86O256
_symmetry_space_group_name_H-M   'P 1'
_cell_length_a   16.97256152
_cell_length_b   16.95753424
_cell_length_c   16.97916616
_cell_angle_alpha   89.92234980
_cell_angle_beta   89.99122997
_cell_angle_gamma   89.86446819
_symmetry_Int_Tables_number   1
_chemical_formula_structural   V85Zn86O256
_chemical_formula_sum   'V85 Zn86 O256'
_cell_volume   4886.80302412
_cell_formula_units_Z   1
loop_
 _symmetry_equiv_pos_site_id
 _symmetry_equiv_pos_as_xyz
  1  'x, y, z'
loop_
 _atom_site_type_symbol
 _atom_site_label
 _atom_site_symmetry_multiplicity
 _atom_site_fract_x
 _atom_site_fract_y
 _atom_site_fract_z
 _atom_site_occupancy
  V  V0  1  0.49925986  0.01032360  0.00083422  1
  V  V1  1  0.26178812  0.00156960  0.24979993  1
  V  V2  1  0.50050216  0.75077460  0.75168217  1
  V  V3  1  0.87556844  0.75218645  0.12509990  1
  V  V4  1  0.12581786  0.75058033  0.37359059  1
  V  V5  1  -0.00601394  0.37893650  0.37415987  1
  V  V6  1  0.12798964  0.37451893  0.24650991  1
  V  V7  1  0.61491269  0.36978018  0.76109885  1
  V  V8  1  0.00090874  0.37500256  0.87215430  1
  V  V9  1  0.75206105  0.88233698  0.62177719  1
  V  V10  1  -0.00086636  0.87592240  0.37512365  1
  V  V11  1  0.87553494  0.62015972  0.25671113  1
  V  V12  1  0.50159870  0.62625788  0.62454419  1
  V  V13  1  0.87306620  -0.00365198  0.37542212  1
  V  V14  1  0.74228984  0.24325823  0.00680471  1
  V  V15  1  0.37454637  0.00660655  0.87055133  1
  V  V16  1  0.25939945  0.12256241  0.37375911  1
  V  V17  1  0.24893397  0.87519818  0.62654279  1
  V  V18  1  0.25151827  0.62507501  0.37436260  1
  V  V19  1  0.62736569  0.74890513  0.37638401  1
  V  V20  1  0.74904964  0.87765074  0.12388885  1
  V  V21  1  0.86949850  0.12469210  0.74856088  1
  V  V22  1  0.35547243  0.37274275  0.50545714  1
  V  V23  1  0.37615548  0.62553890  0.75016214  1
  V  V24  1  0.87486967  0.75191568  0.61831214  1
  V  V25  1  0.12643454  0.61918768  0.50343064  1
  V  V26  1  -0.00651745  -0.00617754  0.49967781  1
  V  V27  1  0.37915516  0.62397917  0.24561508  1
  V  V28  1  0.62438904  0.87708094  0.25012885  1
  V  V29  1  0.37521755  0.75096746  0.62504571  1
  V  V30  1  0.24213665  0.12737861  0.88525717  1
  V  V31  1  0.74794523  0.74993591  0.00114863  1
  V  V32  1  0.37359337  0.87943312  0.49694987  1
  V  V33  1  0.87507075  0.87673530  -0.00106913  1
  V  V34  1  0.50225890  0.49947416  0.01882939  1
  V  V35  1  0.49996388  0.00370034  0.50913427  1
  V  V36  1  0.87409430  0.13236358  0.24503832  1
  V  V37  1  0.87553342  0.36960906  0.50271677  1
  V  V38  1  0.49554421  0.22791735  0.75110601  1
  V  V39  1  0.50240169  0.49154672  0.49652725  1
  V  V40  1  -0.00184850  0.50006517  -0.00219710  1
  V  V41  1  0.50061214  0.74586063  0.24629508  1
  V  V42  1  0.74948348  0.24863868  0.49947571  1
  V  V43  1  0.62330533  0.74977238  0.87681603  1
  V  V44  1  0.49644141  0.88245176  0.37586616  1
  V  V45  1  0.00291057  0.00725514  -0.00163500  1
  V  V46  1  0.49829086  0.13311510  0.14214086  1
  V  V47  1  0.61869752  0.62333910  0.01501965  1
  V  V48  1  0.12319664  0.24779222  0.37476923  1
  V  V49  1  0.62903597  0.49923223  0.62684674  1
  V  V50  1  -0.00251381  0.24882453  0.75099852  1
  V  V51  1  0.00064779  0.62526945  0.12410092  1
  V  V52  1  0.12928785  0.87815957  0.24326025  1
  V  V53  1  0.12738797  0.00690267  0.12257180  1
  V  V54  1  0.74966891  0.62220830  0.87525967  1
  V  V55  1  0.74755229  0.50054512  0.25539893  1
  V  V56  1  0.62134432  0.12559512  0.50667916  1
  V  V57  1  0.12299980  -0.00025217  0.62489965  1
  V  V58  1  0.25029375  0.49693061  0.24444376  1
  V  V59  1  0.00143943  0.75120007  0.24802591  1
  V  V60  1  0.25161194  0.01055780  0.74817896  1
  V  V61  1  -0.00828501  0.13055875  0.62344266  1
  V  V62  1  0.63057624  0.87878214  0.75097169  1
  V  V63  1  0.62804059  0.62612116  0.49888384  1
  V  V64  1  0.00191195  0.75184661  0.75083383  1
  V  V65  1  0.00332018  0.61979181  0.62704766  1
  V  V66  1  0.37259876  0.87820052  0.00306012  1
  V  V67  1  0.73755739  0.13205955  0.87341992  1
  V  V68  1  0.37408800  0.75380201  0.12599142  1
  V  V69  1  0.75535960  0.38186980  0.12259586  1
  V  V70  1  -0.00476212  0.49939877  0.50012846  1
  V  V71  1  0.25111797  0.62452160  0.87799776  1
  V  V72  1  0.86842896  0.00108640  0.87161353  1
  V  V73  1  -0.00306507  0.13289507  0.12313269  1
  V  V74  1  0.37186047  0.36814688  -0.00257232  1
  V  V75  1  0.12173077  0.12713253  0.49617031  1
  V  V76  1  0.74968316  0.00207802  0.24928184  1
  V  V77  1  0.75316755  0.37047916  0.62739557  1
  V  V78  1  0.25030081  0.75346623  0.00309810  1
  V  V79  1  0.24689362  0.49301570  0.74185437  1
  V  V80  1  0.61863805  0.37131926  0.24661828  1
  V  V81  1  0.62382403  0.00815329  0.12009972  1
  V  V82  1  0.38562752  0.49778227  0.87595422  1
  V  V83  1  0.37360057  0.25130309  0.14521393  1
  V  V84  1  0.12622013  0.49819998  0.12362838  1
  Zn  Zn85  1  0.74938346  0.12680544  0.37420482  1
  Zn  Zn86  1  0.75756202  0.75382183  0.49704111  1
  Zn  Zn87  1  0.24500487  0.24851040  0.01504981  1
  Zn  Zn88  1  0.49552391  0.36602087  0.36986618  1
  Zn  Zn89  1  0.75178581  0.49523767  0.75510887  1
  Zn  Zn90  1  -0.00700690  0.25629874  0.24243245  1
  Zn  Zn91  1  0.88067052  0.36629800  0.00635574  1
  Zn  Zn92  1  0.12619516  0.87581867  0.75314593  1
  Zn  Zn93  1  0.38351682  0.25924152  0.62609071  1
  Zn  Zn94  1  0.87342488  0.62276708  0.75006508  1
  Zn  Zn95  1  0.12617292  0.62636752  0.00096511  1
  Zn  Zn96  1  0.37852734  0.49841091  0.37387222  1
  Zn  Zn97  1  0.12423047  0.75296617  0.87681962  1
  Zn  Zn98  1  0.61689808  0.24567056  0.37067063  1
  Zn  Zn99  1  0.75775907  0.61812513  0.38010461  1
  Zn  Zn100  1  0.62425777  0.00708844  0.63453759  1
  Zn  Zn101  1  0.87353684  0.49877303  0.87396014  1
  Zn  Zn102  1  0.12685483  0.37805851  0.73731945  1
  Zn  Zn103  1  0.00119165  0.87663782  0.87403405  1
  Zn  Zn104  1  0.11985048  0.24425468  0.88366890  1
  Zn  Zn105  1  0.24985614  0.75003928  0.50136045  1
  Zn  Zn106  1  0.50107325  0.87694417  0.87593753  1
  Zn  Zn107  1  0.18718547  0.18485282  0.19120071  1
  Zn  Zn108  1  0.17579774  0.21271164  0.67467209  1
  Zn  Zn109  1  0.18903677  0.68634245  0.18526203  1
  Zn  Zn110  1  0.18853347  0.68611763  0.68937405  1
  Zn  Zn111  1  0.68860901  0.19084501  0.18493963  1
  Zn  Zn112  1  0.68495713  0.19248181  0.68921926  1
  Zn  Zn113  1  0.69082354  0.68794017  0.19038964  1
  Zn  Zn114  1  0.68969803  0.69208873  0.68877183  1
  Zn  Zn115  1  0.31046837  0.31233380  0.32652477  1
  Zn  Zn116  1  0.32105310  0.30985187  0.81389244  1
  Zn  Zn117  1  0.31158982  0.81448151  0.31235464  1
  Zn  Zn118  1  0.31298289  0.81753043  0.81427328  1
  Zn  Zn119  1  0.80740766  0.31507186  0.31464658  1
  Zn  Zn120  1  0.81289854  0.31003541  0.81626649  1
  Zn  Zn121  1  0.81304783  0.81281768  0.31064681  1
  Zn  Zn122  1  0.81383837  0.81013690  0.80979260  1
  Zn  Zn123  1  0.18212057  0.44075844  0.43256569  1
  Zn  Zn124  1  0.18677442  0.43234387  0.93400550  1
  Zn  Zn125  1  0.18612298  0.94095983  0.43502231  1
  Zn  Zn126  1  0.18626283  0.93724651  0.93553241  1
  Zn  Zn127  1  0.68751084  0.43455359  0.43264856  1
  Zn  Zn128  1  0.68238132  0.43838428  0.94318381  1
  Zn  Zn129  1  0.68541692  0.93927824  0.44023583  1
  Zn  Zn130  1  0.68709812  0.94043972  0.93636856  1
  Zn  Zn131  1  0.31590251  0.06725925  0.06793830  1
  Zn  Zn132  1  0.30783938  0.06011892  0.55535417  1
  Zn  Zn133  1  0.31699802  0.56300066  0.06274067  1
  Zn  Zn134  1  0.31606045  0.55918258  0.56182944  1
  Zn  Zn135  1  0.81374494  0.06561070  0.05900759  1
  Zn  Zn136  1  0.81039945  0.06280435  0.56188048  1
  Zn  Zn137  1  0.81229043  0.56343503  0.06454902  1
  Zn  Zn138  1  0.81594406  0.56132014  0.56284817  1
  Zn  Zn139  1  0.43281425  0.43322037  0.18461653  1
  Zn  Zn140  1  0.43604095  0.43795507  0.68527802  1
  Zn  Zn141  1  0.44098322  0.93649667  0.18511188  1
  Zn  Zn142  1  0.43730838  0.93635818  0.68914621  1
  Zn  Zn143  1  0.93625773  0.43914508  0.18659358  1
  Zn  Zn144  1  0.93408776  0.43867696  0.68916078  1
  Zn  Zn145  1  0.93927072  0.94175474  0.18666595  1
  Zn  Zn146  1  0.93446368  0.93809215  0.68783271  1
  Zn  Zn147  1  0.05982756  0.06226695  0.30762355  1
  Zn  Zn148  1  0.06226195  0.06302457  0.81085797  1
  Zn  Zn149  1  0.06261335  0.56158055  0.31338105  1
  Zn  Zn150  1  0.06742440  0.56338372  0.81346746  1
  Zn  Zn151  1  0.56382560  0.06542568  0.31851163  1
  Zn  Zn152  1  0.55826854  0.06145544  0.81233030  1
  Zn  Zn153  1  0.56641112  0.55718218  0.31099818  1
  Zn  Zn154  1  0.56653692  0.56266927  0.81476726  1
  Zn  Zn155  1  0.44030909  0.19323619  0.44026368  1
  Zn  Zn156  1  0.44201381  0.18880339  0.93249107  1
  Zn  Zn157  1  0.43955770  0.68894525  0.43676329  1
  Zn  Zn158  1  0.43958108  0.68497198  0.93939900  1
  Zn  Zn159  1  0.93600542  0.18806738  0.43224481  1
  Zn  Zn160  1  0.92679515  0.19060360  0.93781604  1
  Zn  Zn161  1  0.94174857  0.68940399  0.43784760  1
  Zn  Zn162  1  0.93605946  0.68726621  0.93716225  1
  Zn  Zn163  1  0.06563069  0.31281802  0.05941415  1
  Zn  Zn164  1  0.06870922  0.31545334  0.56435446  1
  Zn  Zn165  1  0.06343048  0.81790129  0.06118762  1
  Zn  Zn166  1  0.06415306  0.80969678  0.56284627  1
  Zn  Zn167  1  0.56417333  0.31568720  0.06263304  1
  Zn  Zn168  1  0.56437110  0.30737412  0.56963628  1
  Zn  Zn169  1  0.56100656  0.81631452  0.06179235  1
  Zn  Zn170  1  0.56365218  0.81568214  0.56456031  1
  O  O171  1  0.11316472  0.11518970  0.13245143  1
  O  O172  1  0.11247426  0.12026001  0.61356066  1
  O  O173  1  0.11859113  0.61738159  0.12439145  1
  O  O174  1  0.11549659  0.63218881  0.61368549  1
  O  O175  1  0.61320276  0.11694877  0.12892151  1
  O  O176  1  0.63486003  0.12231643  0.61224733  1
  O  O177  1  0.62864748  0.63054440  0.11399499  1
  O  O178  1  0.62324872  0.61945605  0.61779646  1
  O  O179  1  0.37746055  0.38054558  0.38913786  1
  O  O180  1  0.37658714  0.38431211  0.88909397  1
  O  O181  1  0.38518940  0.86641803  0.38512691  1
  O  O182  1  0.37717462  0.88593035  0.88602216  1
  O  O183  1  0.88685628  0.37096327  0.38412959  1
  O  O184  1  0.88821241  0.37883794  0.87522256  1
  O  O185  1  0.88236893  0.88728078  0.36622510  1
  O  O186  1  0.87334662  0.88420621  0.87955756  1
  O  O187  1  0.24463697  0.01038346  0.36177877  1
  O  O188  1  0.25564489  0.00694727  0.87001347  1
  O  O189  1  0.24858178  0.51248320  0.36363233  1
  O  O190  1  0.26118825  0.51054053  0.87431394  1
  O  O191  1  0.75797973  -0.00229578  0.36925974  1
  O  O192  1  0.76097435  0.01458855  0.88615077  1
  O  O193  1  0.75171971  0.50033373  0.36231914  1
  O  O194  1  0.74919947  0.51092711  0.87961752  1
  O  O195  1  0.24564089  0.50711068  0.13790872  1
  O  O196  1  0.25638248  0.50598394  0.64324896  1
  O  O197  1  0.24111523  1.01262185  0.13991770  1
  O  O198  1  0.24387804  0.99515792  0.63072369  1
  O  O199  1  0.75251114  0.48855578  0.13250586  1
  O  O200  1  0.74203266  0.49219008  0.62340633  1
  O  O201  1  0.74124389  0.99835223  0.12665934  1
  O  O202  1  0.74953042  0.98548183  0.62394645  1
  O  O203  1  0.00677395  0.37763966  0.25804490  1
  O  O204  1  -0.00042132  0.36543782  0.75198583  1
  O  O205  1  0.00904380  0.87136691  0.25382543  1
  O  O206  1  0.00025773  0.86399320  0.74876300  1
  O  O207  1  0.51581102  0.38289606  0.24562563  1
  O  O208  1  0.51516758  0.38462516  0.74872491  1
  O  O209  1  0.50357870  0.86809112  0.25787229  1
  O  O210  1  0.50883897  0.86713068  0.75176089  1
  O  O211  1  0.50065452  0.12251960  0.24078351  1
  O  O212  1  0.50215290  0.12743146  0.74063716  1
  O  O213  1  0.49138308  0.63541268  0.26058619  1
  O  O214  1  0.49674486  0.62995639  0.74454870  1
  O  O215  1  0.99061679  0.12697024  0.24056060  1
  O  O216  1  0.98992700  0.12730627  0.74238938  1
  O  O217  1  0.99481555  0.62982984  0.24549901  1
  O  O218  1  1.00294003  0.63085140  0.74049416  1
  O  O219  1  0.37541935  0.26254240  -0.00368893  1
  O  O220  1  0.37847553  0.27109053  0.50190216  1
  O  O221  1  0.37269346  0.75655019  0.00765785  1
  O  O222  1  0.37506677  0.75963744  0.50605513  1
  O  O223  1  0.85321231  0.25611542  -0.00638425  1
  O  O224  1  0.86715120  0.26002782  0.49629160  1
  O  O225  1  0.86920011  0.75611707  0.00633669  1
  O  O226  1  0.87790423  0.74869335  0.51229657  1
  O  O227  1  0.11464473  0.23706276  0.48697974  1
  O  O228  1  0.13872617  0.26656064  0.99149292  1
  O  O229  1  0.12629248  0.73816220  0.49208317  1
  O  O230  1  0.13835798  0.75074048  1.00243913  1
  O  O231  1  0.63317095  0.24242401  0.50106564  1
  O  O232  1  0.64236376  0.26124544  0.99887721  1
  O  O233  1  0.62092545  0.74095841  0.49195146  1
  O  O234  1  0.62709288  0.74477236  0.99720452  1
  O  O235  1  0.49483365  0.23848055  0.12324098  1
  O  O236  1  0.49939198  0.25249253  0.64057411  1
  O  O237  1  0.49240223  0.75641057  0.13908545  1
  O  O238  1  0.49570677  0.74543928  0.63045882  1
  O  O239  1  1.00426641  0.23800566  0.12351125  1
  O  O240  1  0.99890885  0.23551288  0.63203884  1
  O  O241  1  0.99611799  0.74651645  0.12898857  1
  O  O242  1  0.99429025  0.74271862  0.62996111  1
  O  O243  1  0.00705752  0.25994656  0.37015896  1
  O  O244  1  -0.00392020  0.25858828  0.87127390  1
  O  O245  1  0.00680097  0.75575194  0.36755350  1
  O  O246  1  -0.00079861  0.74976551  0.86375692  1
  O  O247  1  0.50447302  0.25372730  0.37462875  1
  O  O248  1  0.50243609  0.23975374  0.85361038  1
  O  O249  1  0.50893952  0.75834703  0.36713400  1
  O  O250  1  0.50526098  0.75135008  0.87022562  1
  O  O251  1  0.23042661  0.10976066  0.48123963  1
  O  O252  1  0.25573978  0.12625356  0.98856160  1
  O  O253  1  0.24424026  0.62219845  0.49113390  1
  O  O254  1  0.25386281  0.63418413  0.99406082  1
  O  O255  1  0.74532734  0.13386846  0.49921283  1
  O  O256  1  0.74973202  0.13525174  0.99146109  1
  O  O257  1  0.74030731  0.62690833  0.49860146  1
  O  O258  1  0.74131304  0.63003228  0.99632750  1
  O  O259  1  0.26948866  0.38111947  0.00137399  1
  O  O260  1  0.25632273  0.38185339  0.49488562  1
  O  O261  1  0.26209374  0.86608306  -0.00496278  1
  O  O262  1  0.25794588  0.87641779  0.50330993  1
  O  O263  1  0.75006389  0.37556696  0.01419870  1
  O  O264  1  0.75656133  0.37027795  0.50526717  1
  O  O265  1  0.75410378  0.87053546  0.00536810  1
  O  O266  1  0.74088448  0.87042381  0.51656080  1
  O  O267  1  0.13139784  0.49433006  0.24582602  1
  O  O268  1  0.14205245  0.49922807  0.75302412  1
  O  O269  1  0.12802750  0.99359942  0.24203552  1
  O  O270  1  0.13128330  0.99861188  0.74139767  1
  O  O271  1  0.63743860  0.49108854  0.24921501  1
  O  O272  1  0.62878098  0.49454257  0.73974273  1
  O  O273  1  0.62890403  0.99651944  0.24167238  1
  O  O274  1  0.61906371  0.98380811  0.75038505  1
  O  O275  1  0.36037497  -0.00685013  0.24467263  1
  O  O276  1  0.36636255  -0.00712488  0.76043953  1
  O  O277  1  0.36824076  0.50667165  0.25018874  1
  O  O278  1  0.36946817  0.50575388  0.75844579  1
  O  O279  1  0.86984376  0.00778438  0.25634561  1
  O  O280  1  0.87912407  0.00968352  0.76172547  1
  O  O281  1  0.86809646  0.51330441  0.24452498  1
  O  O282  1  0.86856938  0.50573389  0.75385638  1
  O  O283  1  0.11602293  0.36713816  0.36847344  1
  O  O284  1  0.11042064  0.37661928  0.86386974  1
  O  O285  1  0.11946879  0.87112624  0.36573575  1
  O  O286  1  0.11985700  0.87089987  0.87155304  1
  O  O287  1  0.62468292  0.37466484  0.35863124  1
  O  O288  1  0.63182888  0.38166501  0.85846038  1
  O  O289  1  0.61708595  0.86758499  0.37115739  1
  O  O290  1  0.62568019  0.86876590  0.86897440  1
  O  O291  1  0.38966133  0.13699477  0.12586459  1
  O  O292  1  0.33206440  0.14576760  0.62629364  1
  O  O293  1  0.37356906  0.63588848  0.13842054  1
  O  O294  1  0.38211209  0.63051067  0.62943270  1
  O  O295  1  0.88383558  0.11718243  0.13493616  1
  O  O296  1  0.88123173  0.11551006  0.63557200  1
  O  O297  1  0.88059944  0.63289449  0.13317463  1
  O  O298  1  0.88635735  0.63238912  0.62472709  1
  O  O299  1  0.26975344  0.23632181  0.12819125  1
  O  O300  1  0.27303652  0.20787656  0.61338017  1
  O  O301  1  0.26189821  0.74589475  0.11574304  1
  O  O302  1  0.25688096  0.75531460  0.62384585  1
  O  O303  1  0.74978654  0.25753884  0.11328327  1
  O  O304  1  0.74538391  0.26199585  0.61383440  1
  O  O305  1  0.75497322  0.75806496  0.12107940  1
  O  O306  1  0.75983046  0.75459195  0.62202310  1
  O  O307  1  0.23500895  0.23363082  0.36792268  1
  O  O308  1  0.25381550  0.23034602  0.86778082  1
  O  O309  1  0.24535392  0.73938096  0.37453600  1
  O  O310  1  0.25539966  0.74138073  0.88526793  1
  O  O311  1  0.74493962  0.25100464  0.38928608  1
  O  O312  1  0.74797151  0.23739120  0.88179199  1
  O  O313  1  0.73751634  0.75209040  0.37645179  1
  O  O314  1  0.74433483  0.74319149  0.88273835  1
  O  O315  1  -0.01044443  0.11477078  0.00728137  1
  O  O316  1  0.00129956  0.11713806  0.50468098  1
  O  O317  1  0.00262313  0.61784516  0.00499668  1
  O  O318  1  0.00629158  0.61786391  0.50497819  1
  O  O319  1  0.49455699  0.11322481  0.00688176  1
  O  O320  1  0.50712477  0.11323771  0.49553640  1
  O  O321  1  0.50571081  0.61313589  -0.00050805  1
  O  O322  1  0.50925221  0.61730275  0.50353567  1
  O  O323  1  0.50680233  0.38774534  0.50311771  1
  O  O324  1  0.49190483  0.39088603  1.00686868  1
  O  O325  1  0.49419738  0.88075428  0.49395624  1
  O  O326  1  0.48917793  0.88631525  1.00070056  1
  O  O327  1  0.99642998  0.37930744  0.49768202  1
  O  O328  1  0.99967677  0.38347945  0.99146490  1
  O  O329  1  1.00612510  0.88673153  0.49379199  1
  O  O330  1  0.99217140  0.88721493  0.99985542  1
  O  O331  1  0.50059592  0.49704972  0.38503385  1
  O  O332  1  0.48794487  0.50693356  0.87960084  1
  O  O333  1  0.50479844  0.98681546  0.38295205  1
  O  O334  1  0.49142795  1.00006286  0.88441394  1
  O  O335  1  1.00678288  0.48863680  0.38516180  1
  O  O336  1  1.00083688  0.49607641  0.88261708  1
  O  O337  1  0.99287852  0.99616686  0.38054489  1
  O  O338  1  0.99019771  1.00251235  0.88340046  1
  O  O339  1  0.00671849  0.00890773  0.11754751  1
  O  O340  1  0.00126756  0.00649934  0.61697719  1
  O  O341  1  0.00595680  0.50450757  0.11728028  1
  O  O342  1  -0.00254916  0.51001690  0.61600101  1
  O  O343  1  0.50434655  0.01106942  0.12158381  1
  O  O344  1  0.50359079  -0.00765772  0.61313361  1
  O  O345  1  0.49323170  0.50540606  0.11695043  1
  O  O346  1  0.51162468  0.50661136  0.61729883  1
  O  O347  1  0.23909572  0.38654592  0.26239648  1
  O  O348  1  0.25523855  0.39168937  0.76195284  1
  O  O349  1  0.24022275  0.88896688  0.25801329  1
  O  O350  1  0.24888942  0.88438447  0.74314853  1
  O  O351  1  0.74771836  0.38289075  0.24200363  1
  O  O352  1  0.74291799  0.37108409  0.74085272  1
  O  O353  1  0.74407247  0.88136193  0.24312874  1
  O  O354  1  0.74010051  0.86588211  0.73873090  1
  O  O355  1  0.24677655  0.11304171  0.26283368  1
  O  O356  1  0.24478571  0.11106425  0.76024814  1
  O  O357  1  0.25782118  0.61939159  0.25650340  1
  O  O358  1  0.25625997  0.61847071  0.75978163  1
  O  O359  1  0.75648416  0.11939822  0.24948880  1
  O  O360  1  0.75715956  0.13452885  0.76129993  1
  O  O361  1  0.75784549  0.61856579  0.25176717  1
  O  O362  1  0.74649480  0.62501488  0.76427924  1
  O  O363  1  0.35633312  0.13008706  0.38719058  1
  O  O364  1  0.36604126  0.11068436  0.88016261  1
  O  O365  1  0.36720770  0.62615580  0.36590644  1
  O  O366  1  0.36885563  0.61919317  0.87085890  1
  O  O367  1  0.87407307  0.11308299  0.36523010  1
  O  O368  1  0.86654693  0.11800685  0.86655643  1
  O  O369  1  0.87499633  0.63511427  0.36170183  1
  O  O370  1  0.86098089  0.62477094  0.87639968  1
  O  O371  1  0.11912573  0.38096100  0.14029701  1
  O  O372  1  0.14734564  0.32352570  0.64091513  1
  O  O373  1  0.12133296  0.88693081  0.13630132  1
  O  O374  1  0.13173308  0.88199151  0.62313472  1
  O  O375  1  0.63942205  0.37221935  0.13753371  1
  O  O376  1  0.63500274  0.38493606  0.63052706  1
  O  O377  1  0.62812492  0.88493928  0.13108585  1
  O  O378  1  0.63641030  0.87219549  0.63409463  1
  O  O379  1  0.12228319  0.25923952  0.25647378  1
  O  O380  1  0.10322140  0.23525409  0.76487414  1
  O  O381  1  0.12266505  0.75805542  0.25179755  1
  O  O382  1  0.11406536  0.75098640  0.75011294  1
  O  O383  1  0.63453245  0.26617184  0.25165048  1
  O  O384  1  0.61315545  0.26368958  0.74498218  1
  O  O385  1  0.61865110  0.75411215  0.25674061  1
  O  O386  1  0.61903382  0.75623067  0.75687609  1
  O  O387  1  0.37427170  0.26086341  0.24286378  1
  O  O388  1  0.39170851  0.25633037  0.74568100  1
  O  O389  1  0.38042924  0.74579095  0.24490228  1
  O  O390  1  0.38001411  0.74606960  0.74559835  1
  O  O391  1  0.87343598  0.23650869  0.25833122  1
  O  O392  1  0.88535407  0.23658700  0.75643051  1
  O  O393  1  0.88124311  0.74455311  0.24340793  1
  O  O394  1  0.88497533  0.74502768  0.73954140  1
  O  O395  1  0.38521503  0.49202628  0.49814123  1
  O  O396  1  0.38557256  0.49537311  0.99716595  1
  O  O397  1  0.38290409  0.98800870  0.50443842  1
  O  O398  1  0.37926562  0.99422698  0.99782389  1
  O  O399  1  0.88672381  0.48967775  0.49998106  1
  O  O400  1  0.88950706  0.49833463  1.00184992  1
  O  O401  1  0.88361072  1.00606007  0.48894782  1
  O  O402  1  0.88239561  0.99610596  0.99280230  1
  O  O403  1  0.11560970  -0.00694404  0.01151596  1
  O  O404  1  0.11193723  0.00800900  0.50201656  1
  O  O405  1  0.11646877  0.49872695  0.00562441  1
  O  O406  1  0.11470631  0.51150356  0.49647477  1
  O  O407  1  0.61397631  -0.00712505  0.01203081  1
  O  O408  1  0.61698727  0.00698534  0.50452254  1
  O  O409  1  0.60875569  0.50678003  0.00007138  1
  O  O410  1  0.62281228  0.50771547  0.50600273  1
  O  O411  1  0.38157773  0.35703125  0.11469472  1
  O  O412  1  0.37324748  0.38148637  0.60946661  1
  O  O413  1  0.37812303  0.86526060  0.11655767  1
  O  O414  1  0.36935065  0.87009722  0.61646342  1
  O  O415  1  0.86119001  0.37357145  0.12815032  1
  O  O416  1  0.86489799  0.37982180  0.61423811  1
  O  O417  1  0.86926993  0.87294709  0.12055680  1
  O  O418  1  0.86044263  0.86758073  0.63170482  1
  O  O419  1  0.11977948  0.13183279  0.37846810  1
  O  O420  1  0.13874594  0.11881957  0.87871552  1
  O  O421  1  0.13218538  0.62960403  0.38064345  1
  O  O422  1  0.13919408  0.62944768  0.87952060  1
  O  O423  1  0.63100461  0.12440068  0.38961532  1
  O  O424  1  0.64024561  0.11638616  0.87031939  1
  O  O425  1  0.62610038  0.63346759  0.38228900  1
  O  O426  1  0.63170925  0.63066491  0.88570629  1
