# generated using pymatgen
data_V85Zn86O256
_symmetry_space_group_name_H-M   'P 1'
_cell_length_a   16.97297120
_cell_length_b   16.96113276
_cell_length_c   16.98311751
_cell_angle_alpha   90.14557203
_cell_angle_beta   90.03101069
_cell_angle_gamma   89.94725539
_symmetry_Int_Tables_number   1
_chemical_formula_structural   V85Zn86O256
_chemical_formula_sum   'V85 Zn86 O256'
_cell_volume   4889.09519547
_cell_formula_units_Z   1
loop_
 _symmetry_equiv_pos_site_id
 _symmetry_equiv_pos_as_xyz
  1  'x, y, z'
loop_
 _atom_site_type_symbol
 _atom_site_label
 _atom_site_symmetry_multiplicity
 _atom_site_fract_x
 _atom_site_fract_y
 _atom_site_fract_z
 _atom_site_occupancy
  V  V0  1  -0.00267360  0.13032914  0.62281320  1
  V  V1  1  0.39208316  0.24615492  0.12944222  1
  V  V2  1  0.12192343  0.24792105  0.37321407  1
  V  V3  1  0.50107550  0.62460196  0.62456316  1
  V  V4  1  0.24863324  0.74756790  -0.00081613  1
  V  V5  1  0.75070953  0.12897765  0.87625000  1
  V  V6  1  0.00862265  0.75232443  0.25183454  1
  V  V7  1  0.49316555  -0.00832183  0.50411806  1
  V  V8  1  0.37399927  0.01478053  0.87491761  1
  V  V9  1  0.87654758  0.00281806  0.87580090  1
  V  V10  1  0.49719230  0.63272457  0.12830228  1
  V  V11  1  0.38266747  0.38111152  -0.00161000  1
  V  V12  1  0.25367139  0.61873658  0.87498579  1
  V  V13  1  0.87573708  0.62519413  0.74956390  1
  V  V14  1  0.00452199  0.38371975  0.87113653  1
  V  V15  1  0.25475038  0.87302847  0.62697848  1
  V  V16  1  0.11721527  0.01243507  0.12644652  1
  V  V17  1  0.62429656  0.50017955  0.12384296  1
  V  V18  1  0.50100136  0.87123682  0.36396835  1
  V  V19  1  0.62660802  0.62345089  0.49841766  1
  V  V20  1  0.12485678  0.13306743  -0.01219389  1
  V  V21  1  0.24006007  0.87638718  0.12198456  1
  V  V22  1  0.74923847  0.87499309  0.62703867  1
  V  V23  1  0.12664657  0.74972848  0.87507168  1
  V  V24  1  0.62764519  0.49787885  0.62142677  1
  V  V25  1  0.87187760  0.13248728  0.23792690  1
  V  V26  1  0.12464433  0.50028402  0.11724370  1
  V  V27  1  0.61788530  0.25955547  0.87166985  1
  V  V28  1  0.00335580  -0.00018195  0.50004833  1
  V  V29  1  0.12287156  0.49711676  0.61939062  1
  V  V30  1  0.75742809  0.25139534  0.00767129  1
  V  V31  1  0.48553812  0.49534261  0.49476526  1
  V  V32  1  0.87471174  0.75122975  0.12584727  1
  V  V33  1  0.74528169  0.87920216  0.14241720  1
  V  V34  1  0.25256707  0.01564764  0.75549688  1
  V  V35  1  0.74990385  0.00102713  0.74995257  1
  V  V36  1  0.87292595  0.87718706  0.00042020  1
  V  V37  1  0.74929500  0.62498117  0.37469337  1
  V  V38  1  0.37399371  0.87376483  -0.00133800  1
  V  V39  1  0.87917658  0.49849541  0.37869597  1
  V  V40  1  0.25237335  0.37608572  0.61719044  1
  V  V41  1  0.25450585  0.50519280  0.26126287  1
  V  V42  1  0.62065853  0.25261436  0.37006701  1
  V  V43  1  0.62221929  0.00036755  0.62627250  1
  V  V44  1  0.50748665  0.74909157  0.75618350  1
  V  V45  1  0.87566265  0.13348768  0.74677568  1
  V  V46  1  0.00133935  0.87291275  0.37117031  1
  V  V47  1  0.12850519  0.87515797  0.75240565  1
  V  V48  1  0.00044573  0.62150490  0.61517837  1
  V  V49  1  0.37975766  0.24703607  0.63431261  1
  V  V50  1  0.74868020  0.24638387  0.50193617  1
  V  V51  1  0.87408407  0.87573197  0.50147675  1
  V  V52  1  0.48723394  0.37488213  0.37167715  1
  V  V53  1  0.37420665  -0.00350341  0.37825440  1
  V  V54  1  0.88019894  0.38133610  0.00586406  1
  V  V55  1  0.61982409  0.12368245  0.00354257  1
  V  V56  1  0.50551075  0.87120933  0.87843810  1
  V  V57  1  0.37442278  0.75385288  0.62424161  1
  V  V58  1  0.74764251  0.49630157  0.24958648  1
  V  V59  1  -0.00056166  0.37471352  0.37606563  1
  V  V60  1  0.24896414  0.12385215  0.37367114  1
  V  V61  1  0.87676483  0.62321494  0.24950527  1
  V  V62  1  0.62494141  0.63385445  -0.00259518  1
  V  V63  1  0.00172518  0.75072695  0.74899452  1
  V  V64  1  0.62169149  0.75331204  0.36099460  1
  V  V65  1  0.75508889  0.36875522  0.62711697  1
  V  V66  1  0.38565979  0.12691102  0.24706357  1
  V  V67  1  0.12433351  0.37544529  0.24978635  1
  V  V68  1  0.37696499  0.61873687  0.75381379  1
  V  V69  1  0.75063896  0.49781125  0.75189085  1
  V  V70  1  0.00109347  0.62049542  0.11834664  1
  V  V71  1  0.00062502  0.87709505  0.87666882  1
  V  V72  1  0.37595537  0.62751219  0.26284720  1
  V  V73  1  0.62157646  0.00199198  0.13915540  1
  V  V74  1  0.87702889  0.37062570  0.50127649  1
  V  V75  1  0.74825726  0.74910514  0.50044213  1
  V  V76  1  0.14003756  0.63187582  0.49439924  1
  V  V77  1  0.00618444  0.25419988  0.74835973  1
  V  V78  1  0.25153267  0.37095553  0.12430932  1
  V  V79  1  0.87577810  0.74992234  0.62394056  1
  V  V80  1  0.25811537  0.25328660  0.49548465  1
  V  V81  1  0.24808011  0.49537254  0.74688914  1
  V  V82  1  0.86562222  0.00441445  0.36968257  1
  V  V83  1  0.24612995  -0.00089569  0.24722412  1
  V  V84  1  0.74640935  0.63337122  0.87494935  1
  Zn  Zn85  1  0.87980737  0.50527492  0.88021496  1
  Zn  Zn86  1  0.12504826  0.12401547  0.49998644  1
  Zn  Zn87  1  0.75421858  0.36926642  0.12863403  1
  Zn  Zn88  1  0.12810846  -0.00049688  0.62560627  1
  Zn  Zn89  1  0.13033070  0.25357997  0.86604672  1
  Zn  Zn90  1  0.37606560  0.75189044  0.12854236  1
  Zn  Zn91  1  0.49330012  0.12580696  0.63565274  1
  Zn  Zn92  1  0.47905522  0.39098231  0.85040485  1
  Zn  Zn93  1  -0.00517426  0.01109239  0.00689933  1
  Zn  Zn94  1  0.61886886  0.12549391  0.50240681  1
  Zn  Zn95  1  0.61824367  0.36827212  0.24436068  1
  Zn  Zn96  1  0.62845794  0.87162361  0.75840479  1
  Zn  Zn97  1  0.12012697  0.61885049  -0.00596290  1
  Zn  Zn98  1  0.74528848  0.75584365  -0.00339250  1
  Zn  Zn99  1  0.74091594  0.11906334  0.37240630  1
  Zn  Zn100  1  0.14060419  0.74781736  0.37538737  1
  Zn  Zn101  1  0.31989524  0.81697917  0.46247486  1
  Zn  Zn102  1  0.49801581  0.00407480  0.00473584  1
  Zn  Zn103  1  0.25825289  0.24195895  -0.01087047  1
  Zn  Zn104  1  0.61376906  0.36856178  0.74285229  1
  Zn  Zn105  1  0.49851424  0.50401216  -0.00707122  1
  Zn  Zn106  1  -0.00275180  0.24089752  0.23055376  1
  Zn  Zn107  1  0.19012417  0.18777867  0.18650901  1
  Zn  Zn108  1  0.18557402  0.18939805  0.68047464  1
  Zn  Zn109  1  0.18867023  0.68573405  0.18649025  1
  Zn  Zn110  1  0.18813031  0.68616040  0.68537045  1
  Zn  Zn111  1  0.69114738  0.17996844  0.19151484  1
  Zn  Zn112  1  0.68394347  0.18639684  0.68862827  1
  Zn  Zn113  1  0.69042574  0.68646803  0.18339685  1
  Zn  Zn114  1  0.68760076  0.68545602  0.68692787  1
  Zn  Zn115  1  0.31045279  0.31131121  0.30829637  1
  Zn  Zn116  1  0.30999441  0.31100696  0.81000965  1
  Zn  Zn117  1  0.31470597  0.81608764  0.30074954  1
  Zn  Zn118  1  0.31575857  0.81221534  0.81161272  1
  Zn  Zn119  1  0.80916974  0.30873307  0.31398817  1
  Zn  Zn120  1  0.81633100  0.31462848  0.81894175  1
  Zn  Zn121  1  0.81633165  0.81006699  0.31555792  1
  Zn  Zn122  1  0.81503050  0.81330050  0.81163958  1
  Zn  Zn123  1  0.18407834  0.43993772  0.44090735  1
  Zn  Zn124  1  0.19577370  0.43027294  0.93526895  1
  Zn  Zn125  1  0.19244180  0.92296687  0.42796940  1
  Zn  Zn126  1  0.18674454  0.94399773  0.93963809  1
  Zn  Zn127  1  0.68644694  0.43377491  0.43767762  1
  Zn  Zn128  1  0.69137613  0.44114584  0.94003508  1
  Zn  Zn129  1  0.68146803  0.93286018  0.44007519  1
  Zn  Zn130  1  0.68811964  0.94228809  0.94219852  1
  Zn  Zn131  1  0.30887993  0.06568061  0.06072992  1
  Zn  Zn132  1  0.31086749  0.06380013  0.56292095  1
  Zn  Zn133  1  0.31078174  0.56129109  0.06750850  1
  Zn  Zn134  1  0.31223854  0.56809900  0.56365042  1
  Zn  Zn135  1  0.80532522  0.05967541  0.06428006  1
  Zn  Zn136  1  0.81282810  0.06277829  0.56171407  1
  Zn  Zn137  1  0.81097857  0.56308897  0.06163028  1
  Zn  Zn138  1  0.81329291  0.55956057  0.56226640  1
  Zn  Zn139  1  0.43809945  0.44168723  0.18752464  1
  Zn  Zn140  1  0.43395953  0.43456105  0.67643551  1
  Zn  Zn141  1  0.43487777  0.94114303  0.18581232  1
  Zn  Zn142  1  0.43771975  0.93876647  0.69526287  1
  Zn  Zn143  1  0.94096870  0.43354274  0.18871629  1
  Zn  Zn144  1  0.93766029  0.43878141  0.68721599  1
  Zn  Zn145  1  0.93483009  0.93875898  0.19037060  1
  Zn  Zn146  1  0.93818823  0.94074859  0.68840942  1
  Zn  Zn147  1  0.05596785  0.06213963  0.31068078  1
  Zn  Zn148  1  0.06229697  0.06281349  0.81198770  1
  Zn  Zn149  1  0.06454210  0.56292393  0.31089565  1
  Zn  Zn150  1  0.06650898  0.56338092  0.80564820  1
  Zn  Zn151  1  0.56080538  0.06088272  0.31982436  1
  Zn  Zn152  1  0.56040083  0.06412754  0.81206389  1
  Zn  Zn153  1  0.56005887  0.56212693  0.31282801  1
  Zn  Zn154  1  0.56532823  0.55851137  0.81364241  1
  Zn  Zn155  1  0.43971663  0.18099053  0.44096811  1
  Zn  Zn156  1  0.44034345  0.19568829  0.93962956  1
  Zn  Zn157  1  0.44450269  0.68556449  0.43745414  1
  Zn  Zn158  1  0.43787347  0.68663417  0.93983518  1
  Zn  Zn159  1  0.93648750  0.18776629  0.43416761  1
  Zn  Zn160  1  0.94445507  0.19602874  0.94233406  1
  Zn  Zn161  1  0.93851686  0.68805323  0.43631027  1
  Zn  Zn162  1  0.93454475  0.69045192  0.93703052  1
  Zn  Zn163  1  0.06217801  0.31297102  0.05994754  1
  Zn  Zn164  1  0.06468043  0.31205838  0.56063856  1
  Zn  Zn165  1  0.06101824  0.81170598  0.06128512  1
  Zn  Zn166  1  0.06607767  0.81338351  0.56290529  1
  Zn  Zn167  1  0.56812247  0.31148968  0.05966608  1
  Zn  Zn168  1  0.56209555  0.31512289  0.55925285  1
  Zn  Zn169  1  0.56164912  0.81588868  0.06870886  1
  Zn  Zn170  1  0.56144680  0.81293662  0.56163100  1
  O  O171  1  0.12428617  0.11543661  0.12128426  1
  O  O172  1  0.11272474  0.11898829  0.62068302  1
  O  O173  1  0.11827372  0.61761807  0.12188582  1
  O  O174  1  0.11950829  0.62192271  0.61402329  1
  O  O175  1  0.63570846  0.10990247  0.11726900  1
  O  O176  1  0.62527640  0.11031746  0.62510639  1
  O  O177  1  0.61910980  0.61945059  0.11969923  1
  O  O178  1  0.62043740  0.61842144  0.61875399  1
  O  O179  1  0.38858685  0.36660074  0.37229387  1
  O  O180  1  0.37517238  0.36506018  0.89563330  1
  O  O181  1  0.38279046  0.87941438  0.37829856  1
  O  O182  1  0.38132087  0.87934203  0.88521941  1
  O  O183  1  0.88035909  0.38018904  0.37972211  1
  O  O184  1  0.88382685  0.38119819  0.88343496  1
  O  O185  1  0.88007146  0.88445678  0.38125690  1
  O  O186  1  0.87942626  0.88102991  0.88204184  1
  O  O187  1  0.25289621  0.00169253  0.36527057  1
  O  O188  1  0.26218499  -0.00278696  0.86673182  1
  O  O189  1  0.24502120  0.49428932  0.35955377  1
  O  O190  1  0.24328737  0.50929404  0.86268499  1
  O  O191  1  0.76265441  -0.00311250  0.38602650  1
  O  O192  1  0.75464167  0.01153960  0.87106008  1
  O  O193  1  0.75593022  0.50359202  0.36710212  1
  O  O194  1  0.75137630  0.50965971  0.86429329  1
  O  O195  1  0.24294732  0.49138376  0.13451646  1
  O  O196  1  0.24494083  0.49454827  0.62594992  1
  O  O197  1  0.24003939  0.99683378  0.12901274  1
  O  O198  1  0.25404171  0.99508848  0.64269460  1
  O  O199  1  0.74223551  0.50253747  0.13565556  1
  O  O200  1  0.74747016  0.49146931  0.63142652  1
  O  O201  1  0.73985415  0.98558162  0.12451582  1
  O  O202  1  0.74358246  0.99497505  0.62934942  1
  O  O203  1  0.00554928  0.37157614  0.26241362  1
  O  O204  1  -0.01071809  0.36547487  0.75960945  1
  O  O205  1  -0.01094635  0.86208044  0.25747349  1
  O  O206  1  0.00627077  0.87117560  0.75533058  1
  O  O207  1  0.50297657  0.38614902  0.26735034  1
  O  O208  1  0.50190971  0.37821692  0.74300794  1
  O  O209  1  0.49180584  0.87909214  0.26445516  1
  O  O210  1  0.50069790  0.86569566  0.76166929  1
  O  O211  1  0.48418105  0.11893879  0.25510279  1
  O  O212  1  0.49680729  0.12288409  0.74657060  1
  O  O213  1  0.48363654  0.61451809  0.24318017  1
  O  O214  1  0.49554389  0.62888305  0.74608452  1
  O  O215  1  0.97953712  0.12621741  0.25784007  1
  O  O216  1  0.99364950  0.13113123  0.74330305  1
  O  O217  1  0.99514281  0.63172854  0.24185217  1
  O  O218  1  0.99581899  0.63219427  0.74034304  1
  O  O219  1  0.37487199  0.25681803  0.01607260  1
  O  O220  1  0.36024797  0.24632335  0.49903125  1
  O  O221  1  0.36709691  0.75890579  0.00230108  1
  O  O222  1  0.38262690  0.74244155  0.51780111  1
  O  O223  1  0.86543358  0.26331954  -0.00711717  1
  O  O224  1  0.86312443  0.26140721  0.48931045  1
  O  O225  1  0.87358907  0.76134605  0.00747558  1
  O  O226  1  0.86858469  0.75508237  0.50452943  1
  O  O227  1  0.13282561  0.24834785  0.48680102  1
  O  O228  1  0.12587928  0.23952381  0.99743242  1
  O  O229  1  0.12084966  0.73638239  0.49829673  1
  O  O230  1  0.13113734  0.74716291  0.99236449  1
  O  O231  1  0.63299590  0.24915331  0.49334588  1
  O  O232  1  0.63506283  0.24384364  0.99077659  1
  O  O233  1  0.63099285  0.74195283  0.49644112  1
  O  O234  1  0.62650336  0.73801614  1.00790987  1
  O  O235  1  0.49068754  0.25298395  0.12729967  1
  O  O236  1  0.48168737  0.25275102  0.61152837  1
  O  O237  1  0.49919927  0.73771105  0.12649265  1
  O  O238  1  0.49464751  0.74534680  0.63465786  1
  O  O239  1  0.99125115  0.26224850  0.12365591  1
  O  O240  1  1.00332870  0.23966348  0.62969900  1
  O  O241  1  0.99659186  0.74359840  0.13331328  1
  O  O242  1  0.99500773  0.74325983  0.62957972  1
  O  O243  1  0.00921703  0.25718824  0.37388670  1
  O  O244  1  0.00425967  0.26146383  0.86457175  1
  O  O245  1  -0.00381204  0.75724748  0.36655574  1
  O  O246  1  0.00543822  0.75594328  0.86912935  1
  O  O247  1  0.51077767  0.26262677  0.38694390  1
  O  O248  1  0.51640873  0.25757197  0.88075831  1
  O  O249  1  0.51023345  0.75899684  0.38166148  1
  O  O250  1  0.49327516  0.75797726  0.86696619  1
  O  O251  1  0.24521832  0.13213840  0.49107637  1
  O  O252  1  0.23232749  0.12780001  1.00521469  1
  O  O253  1  0.23979216  0.62993602  0.50138179  1
  O  O254  1  0.25171077  0.62781579  0.98966740  1
  O  O255  1  0.74904235  0.13636740  0.49918605  1
  O  O256  1  0.74573433  0.13142995  0.99258113  1
  O  O257  1  0.74720708  0.62923396  0.49413848  1
  O  O258  1  0.74422776  0.62915581  0.99228783  1
  O  O259  1  0.26363405  0.37616772  0.01293371  1
  O  O260  1  0.24397411  0.36559953  0.50467074  1
  O  O261  1  0.25622453  0.87058265  0.00330657  1
  O  O262  1  0.25020555  0.88962601  0.52369924  1
  O  O263  1  0.76144137  0.36820581  0.00060444  1
  O  O264  1  0.75649430  0.36737101  0.50751423  1
  O  O265  1  0.76164751  0.87475361  0.00162076  1
  O  O266  1  0.75468070  0.86845109  0.50768738  1
  O  O267  1  0.13568580  0.49657969  0.24217805  1
  O  O268  1  0.13927449  0.51110106  0.73200632  1
  O  O269  1  0.13417230  1.00792513  0.23797441  1
  O  O270  1  0.13958361  0.99465621  0.75445623  1
  O  O271  1  0.63424642  0.50310340  0.24274291  1
  O  O272  1  0.63885745  0.49912790  0.74107623  1
  O  O273  1  0.62329619  1.00888619  0.23807002  1
  O  O274  1  0.63286857  0.99654532  0.74364904  1
  O  O275  1  0.36474458  0.00780148  0.25350024  1
  O  O276  1  0.36450359  -0.00084358  0.76480738  1
  O  O277  1  0.36119805  0.50862530  0.24597872  1
  O  O278  1  0.36531356  0.51290171  0.73774939  1
  O  O279  1  0.87611446  0.00562689  0.26591071  1
  O  O280  1  0.87019681  0.01064134  0.75626112  1
  O  O281  1  0.86704513  0.50216366  0.25809366  1
  O  O282  1  0.86336950  0.50757716  0.74761879  1
  O  O283  1  0.11686838  0.36958749  0.37180910  1
  O  O284  1  0.10641354  0.37891121  0.88218619  1
  O  O285  1  0.10177078  0.87836236  0.37514959  1
  O  O286  1  0.12092967  0.87053557  0.87259373  1
  O  O287  1  0.61844803  0.36417593  0.37356008  1
  O  O288  1  0.63261610  0.36248584  0.87709779  1
  O  O289  1  0.61572896  0.86464434  0.37807585  1
  O  O290  1  0.61002186  0.88288010  0.87952089  1
  O  O291  1  0.37128832  0.13861923  0.12931176  1
  O  O292  1  0.36948865  0.14336026  0.62194433  1
  O  O293  1  0.38388453  0.62600609  0.12935275  1
  O  O294  1  0.38099910  0.63322828  0.63489704  1
  O  O295  1  0.86875524  0.11627346  0.13925042  1
  O  O296  1  0.88434241  0.11928293  0.63594322  1
  O  O297  1  0.88184850  0.62888504  0.12919969  1
  O  O298  1  0.88136935  0.62898171  0.62825756  1
  O  O299  1  0.25322008  0.26333856  0.12496386  1
  O  O300  1  0.25343318  0.25755049  0.61536839  1
  O  O301  1  0.24737300  0.76028970  0.11858277  1
  O  O302  1  0.26157744  0.75932499  0.63430596  1
  O  O303  1  0.74038425  0.25078590  0.11172611  1
  O  O304  1  0.74452300  0.25949135  0.61775339  1
  O  O305  1  0.75508190  0.76374495  0.12363964  1
  O  O306  1  0.75598555  0.75377786  0.62096037  1
  O  O307  1  0.24215438  0.24623929  0.37775534  1
  O  O308  1  0.23856725  0.27259686  0.88233048  1
  O  O309  1  0.23888427  0.80377553  0.38386593  1
  O  O310  1  0.24614157  0.74038078  0.87784405  1
  O  O311  1  0.73535363  0.25276939  0.38608584  1
  O  O312  1  0.74582600  0.24176014  0.88384417  1
  O  O313  1  0.74366095  0.74503986  0.38077462  1
  O  O314  1  0.75330051  0.73804764  0.87362951  1
  O  O315  1  0.01508366  0.12502409  -0.00270720  1
  O  O316  1  -0.00270756  0.11834982  0.50685445  1
  O  O317  1  -0.00072023  0.63007399  0.01381025  1
  O  O318  1  0.00044174  0.62678907  0.51271069  1
  O  O319  1  0.51601940  0.12662625  -0.00286493  1
  O  O320  1  0.50006696  0.10909835  0.50894271  1
  O  O321  1  0.50732967  0.62419822  0.00854214  1
  O  O322  1  0.50687913  0.61235875  0.50316755  1
  O  O323  1  0.50187312  0.38963085  0.49138559  1
  O  O324  1  0.48703238  0.37583488  1.00769721  1
  O  O325  1  0.50024980  0.88542501  0.49416823  1
  O  O326  1  0.48942871  0.87352155  0.99573489  1
  O  O327  1  0.99017539  0.36833951  0.48831125  1
  O  O328  1  0.98699953  0.37249026  0.98521228  1
  O  O329  1  0.99309575  0.88088886  0.49534372  1
  O  O330  1  0.98703323  0.87733331  0.99641001  1
  O  O331  1  0.50357603  0.49062331  0.38703432  1
  O  O332  1  0.50595322  0.49535496  0.88151162  1
  O  O333  1  0.49495315  0.99121759  0.38423374  1
  O  O334  1  0.48550081  0.99101242  0.87782394  1
  O  O335  1  0.98856126  0.49000465  0.36758778  1
  O  O336  1  0.99804805  0.48909562  0.86106270  1
  O  O337  1  0.98787886  0.99371136  0.38203460  1
  O  O338  1  0.99341185  0.99343698  0.87585539  1
  O  O339  1  0.01512077  -0.00722608  0.12742836  1
  O  O340  1  0.00110964  0.00797435  0.61677388  1
  O  O341  1  0.01150705  0.51001505  0.13472008  1
  O  O342  1  0.01049779  0.51015292  0.63305253  1
  O  O343  1  0.51693732  -0.01015853  0.12132589  1
  O  O344  1  0.50625933  -0.00583001  0.62099844  1
  O  O345  1  0.51127651  0.50959262  0.12363922  1
  O  O346  1  0.50588911  0.50392858  0.61064326  1
  O  O347  1  0.24652403  0.38522971  0.24317046  1
  O  O348  1  0.25551137  0.38958833  0.73732122  1
  O  O349  1  0.25658837  0.88998853  0.23293165  1
  O  O350  1  0.24629834  0.88062200  0.74538320  1
  O  O351  1  0.74801853  0.38568920  0.24906217  1
  O  O352  1  0.75507540  0.38170985  0.74196832  1
  O  O353  1  0.75496336  0.87401193  0.24055091  1
  O  O354  1  0.75002736  0.88169333  0.74584001  1
  O  O355  1  0.25717079  0.11616740  0.25372198  1
  O  O356  1  0.24484019  0.11378185  0.74874175  1
  O  O357  1  0.25797557  0.61310685  0.24687952  1
  O  O358  1  0.25833642  0.61975911  0.75558804  1
  O  O359  1  0.76505449  0.12547732  0.25946783  1
  O  O360  1  0.75772776  0.12280281  0.75725972  1
  O  O361  1  0.75691813  0.61639302  0.25487589  1
  O  O362  1  0.75435044  0.61865157  0.75526534  1
  O  O363  1  0.36814620  0.11915531  0.36670579  1
  O  O364  1  0.37850643  0.11280280  0.88653691  1
  O  O365  1  0.37916796  0.62752931  0.36216117  1
  O  O366  1  0.36544831  0.62972794  0.86482863  1
  O  O367  1  0.87098019  0.11037174  0.37770878  1
  O  O368  1  0.86766127  0.12321253  0.86957134  1
  O  O369  1  0.87086612  0.61618453  0.37138764  1
  O  O370  1  0.86752633  0.62391885  0.86880927  1
  O  O371  1  0.13272637  0.38207807  0.12914264  1
  O  O372  1  0.13408122  0.38621178  0.61708181  1
  O  O373  1  0.13534421  0.88799014  0.11380130  1
  O  O374  1  0.13382277  0.87750936  0.63428632  1
  O  O375  1  0.62800500  0.38636121  0.12664053  1
  O  O376  1  0.63834788  0.37962173  0.62354583  1
  O  O377  1  0.63789617  0.88345892  0.12364397  1
  O  O378  1  0.63138607  0.88375191  0.62802676  1
  O  O379  1  0.12703374  0.25584219  0.26056486  1
  O  O380  1  0.11099054  0.24663707  0.74777866  1
  O  O381  1  0.11308788  0.74109311  0.25630019  1
  O  O382  1  0.12088686  0.75450007  0.75555961  1
  O  O383  1  0.62944371  0.24875646  0.26597778  1
  O  O384  1  0.63406346  0.25176156  0.76794876  1
  O  O385  1  0.62887958  0.74283414  0.26231653  1
  O  O386  1  0.61207224  0.75020602  0.74615928  1
  O  O387  1  0.37023288  0.24227085  0.23683093  1
  O  O388  1  0.37192898  0.25702130  0.73305339  1
  O  O389  1  0.36454900  0.73187959  0.24450057  1
  O  O390  1  0.38540794  0.73953854  0.74422273  1
  O  O391  1  0.87434442  0.23720980  0.25530621  1
  O  O392  1  0.88295222  0.23832051  0.75576551  1
  O  O393  1  0.88235045  0.74190097  0.24495697  1
  O  O394  1  0.88161697  0.74516162  0.74311934  1
  O  O395  1  0.38717462  0.50536626  0.50231752  1
  O  O396  1  0.37659287  0.48407303  1.01077905  1
  O  O397  1  0.38147034  1.00440071  0.49237502  1
  O  O398  1  0.37288138  0.99304028  0.99112214  1
  O  O399  1  0.86611180  0.48778146  0.48626544  1
  O  O400  1  0.86796317  0.48684965  0.99667726  1
  O  O401  1  0.88411721  0.99518782  0.49427302  1
  O  O402  1  0.87517489  0.99374113  0.99539911  1
  O  O403  1  0.12365266  0.01168827  0.01072590  1
  O  O404  1  0.11054133  -0.00111842  0.49667380  1
  O  O405  1  0.13389184  0.49900649  0.01374660  1
  O  O406  1  0.12878914  0.51500396  0.51042674  1
  O  O407  1  0.62362873  0.01046158  0.00697301  1
  O  O408  1  0.61600493  -0.00043252  0.51083648  1
  O  O409  1  0.63008633  0.51131124  0.01210937  1
  O  O410  1  0.62432522  0.50609828  0.50431458  1
  O  O411  1  0.37167143  0.36409406  0.12402316  1
  O  O412  1  0.35969112  0.36555657  0.61789272  1
  O  O413  1  0.36531553  0.87768535  0.11300621  1
  O  O414  1  0.36898083  0.86431091  0.63678550  1
  O  O415  1  0.87438616  0.38180395  0.11056075  1
  O  O416  1  0.86708406  0.38165907  0.61271438  1
  O  O417  1  0.86389443  0.87493310  0.11963911  1
  O  O418  1  0.87013669  0.87016678  0.62180170  1
  O  O419  1  0.12888093  0.13313003  0.37243952  1
  O  O420  1  0.12536448  0.12612605  0.88460922  1
  O  O421  1  0.11952174  0.62519765  0.39060806  1
  O  O422  1  0.13467404  0.63013534  0.87424730  1
  O  O423  1  0.62240492  0.13809636  0.38043463  1
  O  O424  1  0.63506098  0.13228070  0.88224620  1
  O  O425  1  0.62939379  0.63152020  0.37932014  1
  O  O426  1  0.63513327  0.62080918  0.88575677  1
