# generated using pymatgen
data_V85Zn86O256
_symmetry_space_group_name_H-M   'P 1'
_cell_length_a   16.98889935
_cell_length_b   16.99694672
_cell_length_c   16.97950688
_cell_angle_alpha   90.03195484
_cell_angle_beta   89.90545227
_cell_angle_gamma   90.27383019
_symmetry_Int_Tables_number   1
_chemical_formula_structural   V85Zn86O256
_chemical_formula_sum   'V85 Zn86 O256'
_cell_volume   4902.92909987
_cell_formula_units_Z   1
loop_
 _symmetry_equiv_pos_site_id
 _symmetry_equiv_pos_as_xyz
  1  'x, y, z'
loop_
 _atom_site_type_symbol
 _atom_site_label
 _atom_site_symmetry_multiplicity
 _atom_site_fract_x
 _atom_site_fract_y
 _atom_site_fract_z
 _atom_site_occupancy
  V  V0  1  0.50143364  -0.00597732  0.49756568  1
  V  V1  1  0.37309241  0.00070712  0.87392713  1
  V  V2  1  0.74825288  0.74035781  0.50163001  1
  V  V3  1  0.38112604  0.24852684  0.12460470  1
  V  V4  1  0.12141862  0.74739363  0.86758731  1
  V  V5  1  -0.00198002  -0.00019812  -0.00149253  1
  V  V6  1  0.63148325  0.51216943  0.62635227  1
  V  V7  1  0.87516387  0.25085564  0.61963669  1
  V  V8  1  0.88475999  0.75512429  0.62825711  1
  V  V9  1  0.61236239  0.51155246  0.12468221  1
  V  V10  1  0.75072342  0.37998438  0.63297426  1
  V  V11  1  0.36950064  0.25378719  0.61265818  1
  V  V12  1  0.74620779  0.87049496  0.12489069  1
  V  V13  1  0.12457345  0.12557990  -0.00071375  1
  V  V14  1  0.12356143  -0.00111086  0.12368889  1
  V  V15  1  0.74897350  0.38441788  0.13472203  1
  V  V16  1  0.88029020  0.74676192  0.12983005  1
  V  V17  1  0.62731817  0.13222188  0.49214577  1
  V  V18  1  0.73769509  0.74355529  -0.00268892  1
  V  V19  1  0.00864566  0.25361276  0.24944501  1
  V  V20  1  0.25015814  0.12538548  0.87469694  1
  V  V21  1  0.24133569  0.88730629  0.62146085  1
  V  V22  1  0.26131772  0.61892983  0.86662463  1
  V  V23  1  0.88560484  0.62841840  0.75061426  1
  V  V24  1  0.12426978  0.62420800  -0.00180206  1
  V  V25  1  0.24566778  0.12546799  0.38365533  1
  V  V26  1  0.12442021  0.49670066  0.13183522  1
  V  V27  1  0.50180206  0.24875900  0.75296604  1
  V  V28  1  -0.00057549  0.12360346  0.12486183  1
  V  V29  1  0.87532954  -0.00510525  0.38010217  1
  V  V30  1  0.62194790  -0.00198844  0.12679139  1
  V  V31  1  0.62508219  0.24847440  0.87748366  1
  V  V32  1  0.50691313  0.25635029  0.25488848  1
  V  V33  1  0.51102172  0.87246721  0.86338323  1
  V  V34  1  0.37468654  0.74991058  0.12530833  1
  V  V35  1  0.37074041  0.75162110  0.63703174  1
  V  V36  1  0.49598629  0.75324323  0.26067281  1
  V  V37  1  0.24905930  -0.00036468  0.24839802  1
  V  V38  1  0.13054639  0.50784052  0.62089417  1
  V  V39  1  0.50016986  0.12678394  0.62480547  1
  V  V40  1  0.37834403  0.49196208  0.38098402  1
  V  V41  1  0.12281763  0.88152294  0.74774515  1
  V  V42  1  0.13625055  0.37992029  0.74710887  1
  V  V43  1  0.87580423  0.12322529  0.25051407  1
  V  V44  1  0.25008246  0.74957604  -0.00241162  1
  V  V45  1  0.37775253  -0.00344817  0.37355910  1
  V  V46  1  -0.00749559  0.87602996  0.37790604  1
  V  V47  1  0.24210807  0.75018849  0.49741600  1
  V  V48  1  0.11487642  0.86944069  0.24711961  1
  V  V49  1  0.24779216  0.87379429  0.12330884  1
  V  V50  1  0.74946111  0.12400574  0.87596284  1
  V  V51  1  0.87271007  0.87318716  -0.00173587  1
  V  V52  1  0.12694114  0.25230797  0.87403180  1
  V  V53  1  0.62440792  -0.00186592  0.62782975  1
  V  V54  1  0.61939264  0.73949188  0.38459912  1
  V  V55  1  0.87307499  -0.00050278  0.87439009  1
  V  V56  1  0.87550146  0.12522067  0.74958167  1
  V  V57  1  0.37497873  0.62410279  0.25007148  1
  V  V58  1  0.37896828  0.12553294  0.24548335  1
  V  V59  1  0.37415671  0.12547460  0.75227675  1
  V  V60  1  0.37427487  0.87487003  -0.00165427  1
  V  V61  1  0.00185527  0.37568560  0.87386064  1
  V  V62  1  0.49899685  0.00142470  0.00396431  1
  V  V63  1  0.74382735  -0.00637644  0.74786258  1
  V  V64  1  0.12564462  0.25571680  0.38543651  1
  V  V65  1  0.37627787  0.87306625  0.49611416  1
  V  V66  1  0.24568349  0.62571960  0.37558072  1
  V  V67  1  -0.00274428  0.62840572  0.13430316  1
  V  V68  1  0.74807582  -0.00350470  0.25221143  1
  V  V69  1  0.11663156  0.74880263  0.37118242  1
  V  V70  1  0.00101116  0.49995599  -0.00059739  1
  V  V71  1  0.00554268  0.11332674  0.61745542  1
  V  V72  1  0.37889358  0.38906306  -0.00018103  1
  V  V73  1  0.00309476  0.25062993  0.74744363  1
  V  V74  1  -0.00256224  0.50639945  0.50404191  1
  V  V75  1  0.49876091  0.38647084  0.88149015  1
  V  V76  1  -0.00142632  0.86807095  0.87038128  1
  V  V77  1  0.74051144  0.62345315  0.87481937  1
  V  V78  1  0.62167124  0.12354218  0.00726597  1
  V  V79  1  0.87245862  0.50190933  0.86851195  1
  V  V80  1  0.87180282  0.37344675  -0.00054511  1
  V  V81  1  0.24653844  0.37536678  0.13047873  1
  V  V82  1  0.61882142  0.87416202  0.26371320  1
  V  V83  1  0.87378388  0.50658832  0.36072629  1
  V  V84  1  0.25164316  0.25130761  0.00008468  1
  Zn  Zn85  1  0.51237958  0.50313488  0.50362570  1
  Zn  Zn86  1  0.24638182  0.49469591  0.25232114  1
  Zn  Zn87  1  0.28067209  0.50463865  0.74556374  1
  Zn  Zn88  1  0.63772885  0.38722867  0.26404205  1
  Zn  Zn89  1  0.87380294  0.25068506  0.12708123  1
  Zn  Zn90  1  0.11882520  0.08928533  0.50074057  1
  Zn  Zn91  1  0.49921010  0.62784592  0.10461452  1
  Zn  Zn92  1  0.63554525  0.38585024  0.76032296  1
  Zn  Zn93  1  0.45632934  0.59630806  0.65061256  1
  Zn  Zn94  1  0.24502989  0.00515776  0.74559664  1
  Zn  Zn95  1  0.01194779  0.63685193  0.62565714  1
  Zn  Zn96  1  0.74682918  0.13173529  0.37005580  1
  Zn  Zn97  1  0.74948597  0.24874652  0.00421873  1
  Zn  Zn98  1  0.00389102  0.37876236  0.37344901  1
  Zn  Zn99  1  0.51585771  0.36336519  0.39425301  1
  Zn  Zn100  1  0.74211033  0.25891127  0.49148844  1
  Zn  Zn101  1  0.53072651  0.74828450  0.75160942  1
  Zn  Zn102  1  0.74945755  0.61443108  0.36244004  1
  Zn  Zn103  1  0.25475011  0.37289684  0.60041290  1
  Zn  Zn104  1  0.72163104  0.85157443  0.64096024  1
  Zn  Zn105  1  0.87747830  0.37496411  0.49660876  1
  Zn  Zn106  1  0.86637827  0.87963419  0.50729176  1
  Zn  Zn107  1  0.19030112  0.18706221  0.18974766  1
  Zn  Zn108  1  0.18654454  0.18701127  0.68413748  1
  Zn  Zn109  1  0.18535620  0.68536203  0.18726673  1
  Zn  Zn110  1  0.19461452  0.69286449  0.68797388  1
  Zn  Zn111  1  0.69252805  0.19065405  0.18596072  1
  Zn  Zn112  1  0.68907475  0.18620367  0.68569177  1
  Zn  Zn113  1  0.68946598  0.68207018  0.19263607  1
  Zn  Zn114  1  0.69692124  0.68193032  0.69614377  1
  Zn  Zn115  1  0.30991106  0.30886493  0.31679828  1
  Zn  Zn116  1  0.31645141  0.31489143  0.81203787  1
  Zn  Zn117  1  0.30729937  0.81323222  0.31110124  1
  Zn  Zn118  1  0.30619351  0.81856823  0.81515984  1
  Zn  Zn119  1  0.82058376  0.31425668  0.31865940  1
  Zn  Zn120  1  0.81536605  0.30884342  0.81249212  1
  Zn  Zn121  1  0.80109385  0.78742981  0.30235187  1
  Zn  Zn122  1  0.81020483  0.80823064  0.81220423  1
  Zn  Zn123  1  0.18922769  0.43747727  0.43835895  1
  Zn  Zn124  1  0.19229030  0.43995262  0.93896542  1
  Zn  Zn125  1  0.18668126  0.93666768  0.43229807  1
  Zn  Zn126  1  0.18589641  0.93769201  0.93530058  1
  Zn  Zn127  1  0.69346766  0.43571609  0.44296079  1
  Zn  Zn128  1  0.68587932  0.44211252  0.94473707  1
  Zn  Zn129  1  0.69328326  0.93268248  0.44584823  1
  Zn  Zn130  1  0.68708292  0.93563198  0.93795463  1
  Zn  Zn131  1  0.31183299  0.06276776  0.06153924  1
  Zn  Zn132  1  0.31634185  0.06645441  0.56217095  1
  Zn  Zn133  1  0.30910263  0.56635009  0.06225722  1
  Zn  Zn134  1  0.31208154  0.56325924  0.56061023  1
  Zn  Zn135  1  0.80912699  0.06008973  0.06430855  1
  Zn  Zn136  1  0.81061444  0.06496854  0.56465949  1
  Zn  Zn137  1  0.81309327  0.56336655  0.06224617  1
  Zn  Zn138  1  0.81367549  0.56573607  0.56450865  1
  Zn  Zn139  1  0.43650684  0.43660156  0.19090295  1
  Zn  Zn140  1  0.44695098  0.42687549  0.68621357  1
  Zn  Zn141  1  0.43724581  0.93452331  0.18790199  1
  Zn  Zn142  1  0.43376551  0.93751609  0.68417773  1
  Zn  Zn143  1  0.93899313  0.43660098  0.18576043  1
  Zn  Zn144  1  0.94180082  0.43704531  0.68759754  1
  Zn  Zn145  1  0.93302309  0.93413691  0.18755063  1
  Zn  Zn146  1  0.93480166  0.93709389  0.69187679  1
  Zn  Zn147  1  0.06161670  0.06078708  0.31436991  1
  Zn  Zn148  1  0.05978239  0.06336830  0.81110128  1
  Zn  Zn149  1  0.05871123  0.56434587  0.31471685  1
  Zn  Zn150  1  0.06405945  0.56156415  0.80987519  1
  Zn  Zn151  1  0.55995500  0.06523235  0.31139081  1
  Zn  Zn152  1  0.56108136  0.06115605  0.81544676  1
  Zn  Zn153  1  0.56136420  0.55996611  0.30597070  1
  Zn  Zn154  1  0.56162110  0.56309638  0.80002370  1
  Zn  Zn155  1  0.43944481  0.18149333  0.43365839  1
  Zn  Zn156  1  0.43784937  0.18899568  0.94009380  1
  Zn  Zn157  1  0.43816094  0.67648703  0.45023414  1
  Zn  Zn158  1  0.44343428  0.68868988  0.93014214  1
  Zn  Zn159  1  0.93904762  0.18437225  0.43549932  1
  Zn  Zn160  1  0.93852848  0.18870725  0.93613793  1
  Zn  Zn161  1  0.93826525  0.68653583  0.44275119  1
  Zn  Zn162  1  0.93472292  0.68626728  0.94519342  1
  Zn  Zn163  1  0.06124959  0.31191930  0.06302176  1
  Zn  Zn164  1  0.06253996  0.31698499  0.56186982  1
  Zn  Zn165  1  0.06178873  0.81095564  0.05665938  1
  Zn  Zn166  1  0.06320971  0.83337668  0.55374083  1
  Zn  Zn167  1  0.56526119  0.31789535  0.06588547  1
  Zn  Zn168  1  0.56105921  0.32217379  0.56301079  1
  Zn  Zn169  1  0.55621459  0.81179530  0.06431924  1
  Zn  Zn170  1  0.57656577  0.78256875  0.58998082  1
  O  O171  1  0.12103713  0.11837111  0.11856637  1
  O  O172  1  0.10966950  0.12853695  0.62293799  1
  O  O173  1  0.12009110  0.61788124  0.11719957  1
  O  O174  1  0.12796543  0.61197367  0.63346041  1
  O  O175  1  0.63127460  0.11702872  0.11314230  1
  O  O176  1  0.61848033  0.11742400  0.61654478  1
  O  O177  1  0.62274777  0.61608823  0.13132424  1
  O  O178  1  0.64355877  0.61044434  0.62506438  1
  O  O179  1  0.37327575  0.39201659  0.36089711  1
  O  O180  1  0.39050580  0.37126908  0.88345171  1
  O  O181  1  0.36515460  0.88755836  0.38168368  1
  O  O182  1  0.37740704  0.88318334  0.88134088  1
  O  O183  1  0.88366296  0.39175582  0.37840718  1
  O  O184  1  0.87918029  0.38194504  0.87979690  1
  O  O185  1  0.87998376  0.88010378  0.36596078  1
  O  O186  1  0.88124998  0.87795242  0.87742690  1
  O  O187  1  0.25806085  0.00580935  0.36701454  1
  O  O188  1  0.25613185  0.00792677  0.87585667  1
  O  O189  1  0.25065194  0.51103817  0.36912362  1
  O  O190  1  0.24977340  0.51450624  0.87207162  1
  O  O191  1  0.75621757  0.00013430  0.36735511  1
  O  O192  1  0.75345068  0.00394299  0.86839433  1
  O  O193  1  0.76960450  0.50111114  0.38010594  1
  O  O194  1  0.76114962  0.51370302  0.88656210  1
  O  O195  1  0.24084186  0.49310941  0.12527351  1
  O  O196  1  0.23660580  0.49653204  0.62252719  1
  O  O197  1  0.24332542  0.99377013  0.12749036  1
  O  O198  1  0.25469284  0.99060669  0.62426711  1
  O  O199  1  0.75165816  0.48757371  0.12435420  1
  O  O200  1  0.75214136  0.48519365  0.62574017  1
  O  O201  1  0.74199046  0.99044061  0.13139357  1
  O  O202  1  0.74031542  1.00478506  0.63541119  1
  O  O203  1  -0.00507563  0.35715517  0.24911085  1
  O  O204  1  0.01126900  0.36969521  0.75550534  1
  O  O205  1  0.01054519  0.87773428  0.25343372  1
  O  O206  1  0.00580376  0.87866402  0.76354267  1
  O  O207  1  0.50212078  0.36069853  0.25004175  1
  O  O208  1  0.50552290  0.36216123  0.76600765  1
  O  O209  1  0.50554832  0.86505563  0.24993460  1
  O  O210  1  0.49643519  0.88153805  0.76150064  1
  O  O211  1  0.48484370  0.13345541  0.25356186  1
  O  O212  1  0.49548123  0.13178284  0.74765750  1
  O  O213  1  0.48610907  0.63719060  0.25003667  1
  O  O214  1  0.50619077  0.63928092  0.74361613  1
  O  O215  1  0.99274153  0.12636243  0.24315676  1
  O  O216  1  0.99550938  0.13158109  0.74281067  1
  O  O217  1  1.00620900  0.62545414  0.23294732  1
  O  O218  1  0.99075156  0.62614106  0.74731571  1
  O  O219  1  0.37106499  0.25480970  0.00853234  1
  O  O220  1  0.38479783  0.24094043  0.51495934  1
  O  O221  1  0.36842949  0.75703905  0.00507232  1
  O  O222  1  0.36271201  0.76148229  0.49911135  1
  O  O223  1  0.87525184  0.26208005  -0.00117879  1
  O  O224  1  0.88094552  0.25039968  0.51297908  1
  O  O225  1  0.86618144  0.75761806  0.00557998  1
  O  O226  1  0.86494727  0.75179084  0.50837825  1
  O  O227  1  0.11645344  0.24569523  0.48529364  1
  O  O228  1  0.13026286  0.24533953  0.99413697  1
  O  O229  1  0.13508004  0.76277418  0.48741031  1
  O  O230  1  0.13108058  0.74532467  0.98892189  1
  O  O231  1  0.61922565  0.23364472  0.50790537  1
  O  O232  1  0.62194212  0.24055072  0.99382650  1
  O  O233  1  0.63435524  0.74980238  0.49812303  1
  O  O234  1  0.63975948  0.75405987  1.00705229  1
  O  O235  1  0.48670632  0.25587701  0.13295121  1
  O  O236  1  0.49470075  0.24695208  0.63776749  1
  O  O237  1  0.49115215  0.74958830  0.13859282  1
  O  O238  1  0.47156475  0.75885134  0.62334073  1
  O  O239  1  0.99874825  0.24159355  0.13134521  1
  O  O240  1  0.99322947  0.24498254  0.63087311  1
  O  O241  1  0.99281657  0.73901522  0.10997506  1
  O  O242  1  0.98774621  0.75107074  0.61017879  1
  O  O243  1  0.01118476  0.24639483  0.36701036  1
  O  O244  1  0.00736491  0.25554247  0.86852387  1
  O  O245  1  0.01052506  0.75505379  0.37896044  1
  O  O246  1  0.00778424  0.75960412  0.88381298  1
  O  O247  1  0.49034553  0.25161660  0.35926425  1
  O  O248  1  0.50934375  0.25123405  0.87034046  1
  O  O249  1  0.50327532  0.74229009  0.37145770  1
  O  O250  1  0.49617771  0.76951686  0.86641748  1
  O  O251  1  0.24758228  0.11713350  0.48642603  1
  O  O252  1  0.24395418  0.13114643  0.99483140  1
  O  O253  1  0.25213787  0.63938625  0.48599249  1
  O  O254  1  0.24330618  0.63008803  0.98940310  1
  O  O255  1  0.73297843  0.12501558  0.50104300  1
  O  O256  1  0.74020452  0.12386674  0.99420169  1
  O  O257  1  0.75648563  0.63836309  0.49334446  1
  O  O258  1  0.75422827  0.63616314  0.99065285  1
  O  O259  1  0.26003680  0.36980913  0.00573304  1
  O  O260  1  0.24946155  0.36389187  0.49070357  1
  O  O261  1  0.25308713  0.87036143  0.00386015  1
  O  O262  1  0.25816538  0.86988256  0.50290598  1
  O  O263  1  0.76022502  0.37384863  0.00724889  1
  O  O264  1  0.75965036  0.37071336  0.51822069  1
  O  O265  1  0.75296601  0.86511323  0.00254331  1
  O  O266  1  0.74958366  0.86367973  0.51782327  1
  O  O267  1  0.12387940  0.50316684  0.23514200  1
  O  O268  1  0.12000115  0.49046772  0.73679925  1
  O  O269  1  0.12901302  0.99111847  0.24293479  1
  O  O270  1  0.12654160  0.98676313  0.75849304  1
  O  O271  1  0.62640303  0.49889796  0.23508351  1
  O  O272  1  0.63383012  0.49697200  0.73686272  1
  O  O273  1  0.62513837  0.99320657  0.24762051  1
  O  O274  1  0.63329537  1.01033914  0.74174429  1
  O  O275  1  0.37207116  0.00507475  0.25448723  1
  O  O276  1  0.37285112  0.00923082  0.75558575  1
  O  O277  1  0.37116175  0.51134884  0.25536436  1
  O  O278  1  0.38296057  0.51533936  0.70316278  1
  O  O279  1  0.86777247  0.00517197  0.25431186  1
  O  O280  1  0.86479854  0.00616793  0.75576458  1
  O  O281  1  0.88562369  0.50167024  0.26177583  1
  O  O282  1  0.88186670  0.50717931  0.76250860  1
  O  O283  1  0.12396469  0.35854115  0.37278419  1
  O  O284  1  0.12214155  0.37220234  0.86946974  1
  O  O285  1  0.11533268  0.86800001  0.36356417  1
  O  O286  1  0.11795812  0.86722717  0.86977857  1
  O  O287  1  0.62677495  0.37832259  0.37382746  1
  O  O288  1  0.61824712  0.36533630  0.88039489  1
  O  O289  1  0.62582265  0.86892380  0.36737196  1
  O  O290  1  0.61008518  0.88235436  0.87406840  1
  O  O291  1  0.36581542  0.13557797  0.13403872  1
  O  O292  1  0.38126104  0.13328976  0.63245484  1
  O  O293  1  0.37209355  0.63211271  0.13446570  1
  O  O294  1  0.34812540  0.65213097  0.62384400  1
  O  O295  1  0.88006506  0.12228133  0.13390473  1
  O  O296  1  0.88283297  0.13249120  0.62980712  1
  O  O297  1  0.88527621  0.63381709  0.11645890  1
  O  O298  1  0.87786538  0.63468524  0.63531422  1
  O  O299  1  0.25618441  0.25702421  0.11979842  1
  O  O300  1  0.26659664  0.24678957  0.62851657  1
  O  O301  1  0.25327794  0.75480800  0.11815248  1
  O  O302  1  0.24977059  0.76615199  0.61431845  1
  O  O303  1  0.75475683  0.26284801  0.12085396  1
  O  O304  1  0.76175855  0.25307954  0.62319546  1
  O  O305  1  0.75797742  0.75174165  0.11235675  1
  O  O306  1  0.76558334  0.74403878  0.61546686  1
  O  O307  1  0.23426752  0.23735140  0.36531070  1
  O  O308  1  0.24649474  0.24592901  0.88042602  1
  O  O309  1  0.24040994  0.74687125  0.37939179  1
  O  O310  1  0.23954489  0.74318869  0.87875907  1
  O  O311  1  0.76520028  0.24228644  0.38266051  1
  O  O312  1  0.73955979  0.24427014  0.87743311  1
  O  O313  1  0.73796565  0.76104106  0.39696796  1
  O  O314  1  0.75376741  0.73989302  0.88759572  1
  O  O315  1  0.00458067  0.11967226  0.00358233  1
  O  O316  1  -0.00164140  0.12331732  0.51447596  1
  O  O317  1  0.00677129  0.61655477  0.00489975  1
  O  O318  1  0.00279653  0.61128641  0.50643513  1
  O  O319  1  0.50912051  0.11237662  -0.00649197  1
  O  O320  1  0.50792799  0.11437636  0.50346219  1
  O  O321  1  0.50862308  0.63368971  -0.00474144  1
  O  O322  1  0.47429640  0.60773305  0.52972658  1
  O  O323  1  0.49714951  0.38770903  0.50180522  1
  O  O324  1  0.49442238  0.36986746  0.98919341  1
  O  O325  1  0.48606585  0.88871514  0.50394100  1
  O  O326  1  0.49421140  0.88274845  0.99020103  1
  O  O327  1  0.99901541  0.38921293  0.49887948  1
  O  O328  1  0.99202736  0.37939668  0.99455861  1
  O  O329  1  0.98542281  0.87252038  0.48217787  1
  O  O330  1  0.99491698  0.88137026  0.98944094  1
  O  O331  1  0.48357595  0.50696134  0.37644767  1
  O  O332  1  0.51056071  0.48291962  0.87001555  1
  O  O333  1  0.48633431  1.00693045  0.38258037  1
  O  O334  1  0.49315976  0.99280179  0.88383919  1
  O  O335  1  0.99856298  0.50084151  0.38840643  1
  O  O336  1  0.99364781  0.49425244  0.87999408  1
  O  O337  1  0.98716736  0.98851390  0.36660364  1
  O  O338  1  0.99261645  0.99221250  0.87969189  1
  O  O339  1  0.00394497  0.00299029  0.11803802  1
  O  O340  1  -0.00788680  0.01521406  0.63214053  1
  O  O341  1  0.00629251  0.50587892  0.11841038  1
  O  O342  1  0.01115640  0.50054574  0.61789301  1
  O  O343  1  0.50423495  -0.00819596  0.11171793  1
  O  O344  1  0.50211874  0.00802460  0.61681057  1
  O  O345  1  0.50798434  0.50444725  0.12966510  1
  O  O346  1  0.52592656  0.49279080  0.62968872  1
  O  O347  1  0.25485245  0.37368859  0.23328752  1
  O  O348  1  0.24331827  0.38489958  0.75573917  1
  O  O349  1  0.24012489  0.88062466  0.24260065  1
  O  O350  1  0.23958655  0.88071263  0.74037401  1
  O  O351  1  0.75815185  0.36989935  0.23586699  1
  O  O352  1  0.75256997  0.36728728  0.73899770  1
  O  O353  1  0.73636329  0.87578946  0.24472770  1
  O  O354  1  0.75397398  0.88901841  0.74919133  1
  O  O355  1  0.25898488  0.11792868  0.25678420  1
  O  O356  1  0.25451483  0.12489225  0.75730484  1
  O  O357  1  0.25974704  0.62852385  0.25750287  1
  O  O358  1  0.24456493  0.62305162  0.76377749  1
  O  O359  1  0.75920976  0.11693965  0.24816081  1
  O  O360  1  0.75575320  0.11794459  0.75694346  1
  O  O361  1  0.76523666  0.67713451  0.27074800  1
  O  O362  1  0.76786966  0.63172004  0.76977876  1
  O  O363  1  0.36558139  0.11623367  0.36708601  1
  O  O364  1  0.36978671  0.12120722  0.87234892  1
  O  O365  1  0.36391689  0.61972688  0.36710557  1
  O  O366  1  0.35841599  0.63514779  0.87474982  1
  O  O367  1  0.87908984  0.11180088  0.36349988  1
  O  O368  1  0.87047692  0.11953196  0.87079924  1
  O  O369  1  0.88230987  0.60855821  0.38059884  1
  O  O370  1  0.87634005  0.61732417  0.87082664  1
  O  O371  1  0.13486846  0.38451513  0.11481533  1
  O  O372  1  0.13167321  0.38019001  0.63429728  1
  O  O373  1  0.12743719  0.87820804  0.12837156  1
  O  O374  1  0.12964074  0.86811363  0.63805804  1
  O  O375  1  0.63947827  0.37900814  0.13143791  1
  O  O376  1  0.64442831  0.36913023  0.63117510  1
  O  O377  1  0.62718938  0.87874092  0.13526144  1
  O  O378  1  0.61452727  0.89837757  0.61408244  1
  O  O379  1  0.11375478  0.23735953  0.25826713  1
  O  O380  1  0.12433557  0.26046164  0.75480629  1
  O  O381  1  0.13097984  0.76109197  0.25695519  1
  O  O382  1  0.12869499  0.75997806  0.76207989  1
  O  O383  1  0.60624133  0.24172796  0.24243265  1
  O  O384  1  0.61703259  0.24464646  0.76206655  1
  O  O385  1  0.61217873  0.75747613  0.26227167  1
  O  O386  1  0.62861966  0.77028819  0.69562904  1
  O  O387  1  0.37914778  0.24321468  0.24244363  1
  O  O388  1  0.38674718  0.24349367  0.75043231  1
  O  O389  1  0.37848023  0.74662789  0.24822179  1
  O  O390  1  0.36346531  0.76189991  0.73624725  1
  O  O391  1  0.88666954  0.23513832  0.25044428  1
  O  O392  1  0.88289273  0.24324298  0.74374022  1
  O  O393  1  0.88602803  0.76848844  0.22661422  1
  O  O394  1  0.87364634  0.74514688  0.73654355  1
  O  O395  1  0.36050323  0.49918860  0.47962420  1
  O  O396  1  0.37298854  0.48762491  1.00739118  1
  O  O397  1  0.38074392  0.99554905  0.49240450  1
  O  O398  1  0.38170731  0.99658679  0.99634272  1
  O  O399  1  0.89056574  0.49949222  0.50526715  1
  O  O400  1  0.88107891  0.49119228  0.99074912  1
  O  O401  1  0.86298087  0.99845426  0.48479659  1
  O  O402  1  0.87738132  0.99386735  0.99373549  1
  O  O403  1  0.11851128  0.00534686  0.00353422  1
  O  O404  1  0.11942504  -0.02193535  0.50702425  1
  O  O405  1  0.12011407  0.50461654  0.00711659  1
  O  O406  1  0.11693984  0.49611725  0.51458903  1
  O  O407  1  0.61805275  0.00508595  0.00493804  1
  O  O408  1  0.61719117  0.00916354  0.50449123  1
  O  O409  1  0.62887060  0.49388091  0.02580820  1
  O  O410  1  0.63418889  0.49532648  0.52045007  1
  O  O411  1  0.36811187  0.36767776  0.11801728  1
  O  O412  1  0.37424190  0.35543757  0.63075613  1
  O  O413  1  0.36694108  0.87019150  0.11956243  1
  O  O414  1  0.36162888  0.87180971  0.61450043  1
  O  O415  1  0.86792080  0.37620437  0.11465602  1
  O  O416  1  0.86895935  0.36539009  0.63066570  1
  O  O417  1  0.86712559  0.87129440  0.11506108  1
  O  O418  1  0.87711403  0.86098882  0.62837368  1
  O  O419  1  0.13030111  0.12576224  0.38057744  1
  O  O420  1  0.12878326  0.13184487  0.87965400  1
  O  O421  1  0.13480490  0.63685905  0.36398091  1
  O  O422  1  0.12714336  0.63244072  0.87880824  1
  O  O423  1  0.62368609  0.12188037  0.38866807  1
  O  O424  1  0.62901616  0.13041465  0.88543887  1
  O  O425  1  0.62676511  0.63729700  0.37060246  1
  O  O426  1  0.64341518  0.61871853  0.86766592  1
