# generated using pymatgen
data_V85Zn86O256
_symmetry_space_group_name_H-M   'P 1'
_cell_length_a   16.98423092
_cell_length_b   16.98686112
_cell_length_c   16.99953593
_cell_angle_alpha   89.93293103
_cell_angle_beta   90.10510414
_cell_angle_gamma   90.05823353
_symmetry_Int_Tables_number   1
_chemical_formula_structural   V85Zn86O256
_chemical_formula_sum   'V85 Zn86 O256'
_cell_volume   4904.50109888
_cell_formula_units_Z   1
loop_
 _symmetry_equiv_pos_site_id
 _symmetry_equiv_pos_as_xyz
  1  'x, y, z'
loop_
 _atom_site_type_symbol
 _atom_site_label
 _atom_site_symmetry_multiplicity
 _atom_site_fract_x
 _atom_site_fract_y
 _atom_site_fract_z
 _atom_site_occupancy
  V  V0  1  0.49846431  0.38228275  0.88578511  1
  V  V1  1  -0.00599039  0.87634871  0.87370177  1
  V  V2  1  0.36674939  0.87251433  0.49849437  1
  V  V3  1  0.87503687  0.87569358  -0.00068060  1
  V  V4  1  0.87570740  0.36604218  0.50514287  1
  V  V5  1  0.62614130  0.87630234  0.24801937  1
  V  V6  1  0.50778587  0.00545885  0.00110885  1
  V  V7  1  0.62302993  0.00367904  0.62121136  1
  V  V8  1  0.87700356  0.74728266  0.12639087  1
  V  V9  1  0.74887318  0.74620660  -0.00187882  1
  V  V10  1  0.24800952  0.88407174  0.12462438  1
  V  V11  1  0.49830966  0.74825973  0.24745944  1
  V  V12  1  0.74036405  0.24880059  0.49840554  1
  V  V13  1  0.62456201  0.62604689  0.49968534  1
  V  V14  1  0.50598630  0.25094524  0.25638366  1
  V  V15  1  0.36889702  0.12210320  0.25037134  1
  V  V16  1  0.24728812  0.62749818  0.87279845  1
  V  V17  1  0.49832838  0.87493768  0.37372901  1
  V  V18  1  0.12784846  0.11589039  0.50942309  1
  V  V19  1  0.75967182  0.86999718  0.62015646  1
  V  V20  1  0.87657251  -0.00111898  0.37688571  1
  V  V21  1  0.37276495  0.62569391  0.74949276  1
  V  V22  1  0.62297316  0.23873559  0.89065279  1
  V  V23  1  0.12847406  0.37579347  0.74317958  1
  V  V24  1  -0.00201225  0.63177454  0.62544370  1
  V  V25  1  0.36354306  0.75096865  0.62424757  1
  V  V26  1  0.75932623  0.36905347  0.11312009  1
  V  V27  1  0.87083238  0.49649243  0.86773004  1
  V  V28  1  -0.00269579  0.12683243  0.12765955  1
  V  V29  1  0.49881515  0.50337621  0.50100590  1
  V  V30  1  0.37487836  0.87623603  -0.00115877  1
  V  V31  1  0.49846562  0.00059012  0.49895269  1
  V  V32  1  0.36813042  0.25923613  0.62594190  1
  V  V33  1  0.75066940  0.61766280  0.86904718  1
  V  V34  1  0.61956287  0.61623701  0.00043975  1
  V  V35  1  -0.00059233  0.62418511  0.12448840  1
  V  V36  1  0.63426628  0.38113462  0.25572857  1
  V  V37  1  0.50480657  0.37191529  0.37858921  1
  V  V38  1  0.75078436  0.87349442  0.12641487  1
  V  V39  1  0.76251384  0.75088551  0.50162990  1
  V  V40  1  0.25444599  0.26086200  0.00578229  1
  V  V41  1  0.86806059  0.61950602  0.25054249  1
  V  V42  1  0.13140650  0.12198615  0.00109469  1
  V  V43  1  0.13565340  0.63336354  0.48475097  1
  V  V44  1  0.49774543  0.75055837  0.74814014  1
  V  V45  1  0.12782741  0.49683471  0.12248995  1
  V  V46  1  0.37256825  0.12398655  0.74978188  1
  V  V47  1  0.36794653  0.00045686  0.36994317  1
  V  V48  1  0.12818618  0.25529956  0.87391060  1
  V  V49  1  0.12915441  0.87430729  0.25789551  1
  V  V50  1  0.37218871  0.50045466  0.37388486  1
  V  V51  1  0.74441597  0.12645686  0.37523949  1
  V  V52  1  0.75253862  0.37141382  0.62904726  1
  V  V53  1  0.11896873  0.75129133  0.86425547  1
  V  V54  1  0.00258949  -0.00242132  0.50591973  1
  V  V55  1  -0.00336379  -0.00024638  -0.00305345  1
  V  V56  1  -0.00930469  0.49448016  0.00088175  1
  V  V57  1  0.86874902  0.49813795  0.37244142  1
  V  V58  1  0.62564922  0.49973722  0.12937522  1
  V  V59  1  0.75049811  0.00975566  0.75946282  1
  V  V60  1  0.00379307  0.49650390  0.50459395  1
  V  V61  1  0.62398131  0.87397612  0.74740800  1
  V  V62  1  0.24767017  0.89299299  0.63280584  1
  V  V63  1  0.50689955  0.12678838  0.12346503  1
  V  V64  1  -0.00485366  0.86634509  0.37833428  1
  V  V65  1  0.49940415  0.12676811  0.62433078  1
  V  V66  1  0.37680949  0.50134672  0.88214132  1
  V  V67  1  0.50406172  0.25427451  0.75080710  1
  V  V68  1  0.37097605  0.62476719  0.24816062  1
  V  V69  1  0.24522670  0.75388075  -0.00180866  1
  V  V70  1  0.62924492  0.50002338  0.62830938  1
  V  V71  1  0.25011621  0.49885878  0.24855286  1
  V  V72  1  0.37500359  0.74965638  0.12255610  1
  V  V73  1  0.37350686  0.25828874  0.12788010  1
  V  V74  1  0.25007570  0.49496053  0.74428488  1
  V  V75  1  -0.00576857  0.37538280  0.87751388  1
  V  V76  1  0.00157304  0.37001460  0.37506093  1
  V  V77  1  0.37759897  0.00410619  0.87414091  1
  V  V78  1  0.13020410  0.37287800  0.24691130  1
  V  V79  1  0.25528210  0.12771614  0.87183205  1
  V  V80  1  0.49904982  0.87681605  0.87425624  1
  V  V81  1  -0.00401369  0.24843782  0.24493795  1
  V  V82  1  0.63037839  0.37973670  0.75384393  1
  V  V83  1  0.24762406  0.25655218  0.50038365  1
  V  V84  1  0.62135243  0.74877799  0.37722716  1
  Zn  Zn85  1  0.61880088  0.13085415  0.49181470  1
  Zn  Zn86  1  0.13245586  0.49813143  0.61957425  1
  Zn  Zn87  1  0.62986873  0.00543456  0.12203102  1
  Zn  Zn88  1  0.13040035  0.00302778  0.13391803  1
  Zn  Zn89  1  0.86644193  0.62609774  0.73917371  1
  Zn  Zn90  1  0.62391440  0.74550279  0.87422918  1
  Zn  Zn91  1  -0.02000277  0.24931388  0.74274111  1
  Zn  Zn92  1  0.89991428  0.07782447  0.81613796  1
  Zn  Zn93  1  0.74728416  0.62348716  0.37339972  1
  Zn  Zn94  1  0.11493346  0.89710198  0.73143368  1
  Zn  Zn95  1  0.87254414  0.12721732  0.24917107  1
  Zn  Zn96  1  0.00666398  0.74332202  0.25768592  1
  Zn  Zn97  1  0.49723533  0.61698907  0.11797652  1
  Zn  Zn98  1  0.12161493  0.62529541  -0.00234917  1
  Zn  Zn99  1  0.37595359  0.38585112  0.01072643  1
  Zn  Zn100  1  0.49885862  0.62555494  0.62499832  1
  Zn  Zn101  1  -0.01268128  0.75962664  0.73865916  1
  Zn  Zn102  1  0.36789752  0.37958601  0.50519743  1
  Zn  Zn103  1  0.12734660  0.24275534  0.37449817  1
  Zn  Zn104  1  0.24504039  0.12160565  0.37017017  1
  Zn  Zn105  1  0.75327441  0.00092517  0.25034007  1
  Zn  Zn106  1  -0.01729365  0.12534392  0.63280048  1
  Zn  Zn107  1  0.18693931  0.19045139  0.18591640  1
  Zn  Zn108  1  0.17976459  0.19094629  0.68276827  1
  Zn  Zn109  1  0.18676511  0.68951794  0.19005520  1
  Zn  Zn110  1  0.18071128  0.68349498  0.68155308  1
  Zn  Zn111  1  0.68912339  0.19196823  0.19270574  1
  Zn  Zn112  1  0.81149698  0.19036726  0.68258289  1
  Zn  Zn113  1  0.68612661  0.68723298  0.18653569  1
  Zn  Zn114  1  0.68636792  0.68793025  0.68505814  1
  Zn  Zn115  1  0.31409925  0.31143810  0.31576045  1
  Zn  Zn116  1  0.31490177  0.31460911  0.81430329  1
  Zn  Zn117  1  0.30362333  0.81141742  0.30995401  1
  Zn  Zn118  1  0.31016827  0.81546566  0.81126768  1
  Zn  Zn119  1  0.81407549  0.30840073  0.31542905  1
  Zn  Zn120  1  0.82130548  0.25537422  0.84437414  1
  Zn  Zn121  1  0.81368109  0.80637631  0.31325757  1
  Zn  Zn122  1  0.81310739  0.80767762  0.80869813  1
  Zn  Zn123  1  0.18726687  0.43958677  0.43324806  1
  Zn  Zn124  1  0.18686350  0.44117908  0.93511085  1
  Zn  Zn125  1  0.18708816  0.93301208  0.43816904  1
  Zn  Zn126  1  0.16953046  0.95773527  0.89518720  1
  Zn  Zn127  1  0.68727524  0.43707641  0.44171403  1
  Zn  Zn128  1  0.68897270  0.43248791  0.94032226  1
  Zn  Zn129  1  0.68838715  0.93665800  0.43670206  1
  Zn  Zn130  1  0.68696058  0.93395683  0.93635818  1
  Zn  Zn131  1  0.31981333  0.06699644  0.05989084  1
  Zn  Zn132  1  0.31297084  0.06679831  0.55990329  1
  Zn  Zn133  1  0.30708675  0.56658104  0.06345814  1
  Zn  Zn134  1  0.31320118  0.56555820  0.56225091  1
  Zn  Zn135  1  0.81842674  0.05557273  0.06842206  1
  Zn  Zn136  1  0.80958240  0.05504831  0.55635206  1
  Zn  Zn137  1  0.80724438  0.55458815  0.06337072  1
  Zn  Zn138  1  0.81342718  0.55939939  0.55711145  1
  Zn  Zn139  1  0.44554344  0.43905716  0.19001212  1
  Zn  Zn140  1  0.43915918  0.43995218  0.69189564  1
  Zn  Zn141  1  0.43778455  0.93821444  0.18527155  1
  Zn  Zn142  1  0.43451413  0.93841487  0.68586161  1
  Zn  Zn143  1  0.93722164  0.43586989  0.18879142  1
  Zn  Zn144  1  0.93904448  0.43458304  0.69118756  1
  Zn  Zn145  1  0.94295794  0.93843101  0.18980485  1
  Zn  Zn146  1  0.93202920  0.94065269  0.68763699  1
  Zn  Zn147  1  0.06584358  0.05788575  0.31611374  1
  Zn  Zn148  1  0.07225614  0.06862750  0.79686383  1
  Zn  Zn149  1  0.05841508  0.55743480  0.31145462  1
  Zn  Zn150  1  0.06247583  0.56041611  0.81105508  1
  Zn  Zn151  1  0.55900121  0.06119152  0.31032944  1
  Zn  Zn152  1  0.56482772  0.06427663  0.80930511  1
  Zn  Zn153  1  0.55918831  0.56267103  0.31192450  1
  Zn  Zn154  1  0.56170165  0.56334099  0.81368565  1
  Zn  Zn155  1  0.43198264  0.18781543  0.43881107  1
  Zn  Zn156  1  0.44173191  0.19330626  0.94100002  1
  Zn  Zn157  1  0.39277711  0.70625933  0.41842353  1
  Zn  Zn158  1  0.43604344  0.68839961  0.93575068  1
  Zn  Zn159  1  0.93739534  0.18183597  0.44003450  1
  Zn  Zn160  1  0.95311194  0.18457026  0.93787348  1
  Zn  Zn161  1  0.94142499  0.68065783  0.43943736  1
  Zn  Zn162  1  0.93482948  0.68503583  0.93460787  1
  Zn  Zn163  1  0.06365544  0.31199487  0.06194178  1
  Zn  Zn164  1  0.06060850  0.30344699  0.56521931  1
  Zn  Zn165  1  0.06517613  0.81396516  0.06253615  1
  Zn  Zn166  1  0.07162239  0.80945027  0.55546838  1
  Zn  Zn167  1  0.56500069  0.31675013  0.06944964  1
  Zn  Zn168  1  0.56114510  0.31469786  0.56522019  1
  Zn  Zn169  1  0.56242692  0.81080496  0.06191318  1
  Zn  Zn170  1  0.55892754  0.81354771  0.56017500  1
  O  O171  1  0.12319587  0.12216761  0.11521341  1
  O  O172  1  0.13361832  0.11451954  0.61037192  1
  O  O173  1  0.11542305  0.61470496  0.12666809  1
  O  O174  1  0.11443925  0.61780779  0.61148366  1
  O  O175  1  0.61049302  0.12519144  0.13595905  1
  O  O176  1  0.61678226  0.10823720  0.62099202  1
  O  O177  1  0.62578518  0.61735311  0.11866933  1
  O  O178  1  0.62150878  0.61613538  0.61981775  1
  O  O179  1  0.38522934  0.38641340  0.37455868  1
  O  O180  1  0.38221731  0.38543082  0.87668900  1
  O  O181  1  0.37998026  0.88374285  0.37999091  1
  O  O182  1  0.37901438  0.88319632  0.87852659  1
  O  O183  1  0.88335435  0.37927625  0.38213762  1
  O  O184  1  0.89052008  0.37954224  0.87534795  1
  O  O185  1  0.88913953  0.88080655  0.36790312  1
  O  O186  1  0.88677171  0.86582594  0.88347810  1
  O  O187  1  0.26515952  -0.00159751  0.37857289  1
  O  O188  1  0.26510436  0.02127931  0.89043561  1
  O  O189  1  0.26063035  0.49363659  0.36095477  1
  O  O190  1  0.25652646  0.50751317  0.86663931  1
  O  O191  1  0.75975236  0.00512102  0.37619032  1
  O  O192  1  0.73814081  -0.00178176  0.85879282  1
  O  O193  1  0.76522556  0.50238592  0.38618220  1
  O  O194  1  0.76037232  0.50590638  0.88374303  1
  O  O195  1  0.23841921  0.50275638  0.13339260  1
  O  O196  1  0.25260189  0.50244198  0.64053942  1
  O  O197  1  0.25188949  0.98777996  0.11350229  1
  O  O198  1  0.25624267  0.99186676  0.62640822  1
  O  O199  1  0.73628651  0.48736178  0.12445549  1
  O  O200  1  0.73670937  0.48922042  0.61450779  1
  O  O201  1  0.74683189  0.99091489  0.12849435  1
  O  O202  1  0.73941916  0.98489113  0.62772518  1
  O  O203  1  0.00765370  0.36844796  0.25606552  1
  O  O204  1  0.01155216  0.37419983  0.76176893  1
  O  O205  1  0.00988352  0.87112698  0.26113637  1
  O  O206  1  0.00025857  0.87776875  0.75767680  1
  O  O207  1  0.50717667  0.36897418  0.26070818  1
  O  O208  1  0.50468965  0.37037009  0.75849535  1
  O  O209  1  0.50684418  0.86908465  0.25240753  1
  O  O210  1  0.50427151  0.87069523  0.75336230  1
  O  O211  1  0.49190146  0.13352382  0.24573894  1
  O  O212  1  0.49222271  0.13591212  0.74498319  1
  O  O213  1  0.48853394  0.62964558  0.24460237  1
  O  O214  1  0.49316923  0.63530044  0.75006932  1
  O  O215  1  1.00779297  0.13241582  0.24246827  1
  O  O216  1  0.98803634  0.12400137  0.75693262  1
  O  O217  1  0.99269072  0.62331071  0.23894848  1
  O  O218  1  1.00544635  0.62052815  0.73000409  1
  O  O219  1  0.36987115  0.25287923  0.01070512  1
  O  O220  1  0.36609260  0.25212265  0.50945094  1
  O  O221  1  0.36625597  0.75586838  0.00150672  1
  O  O222  1  0.39044439  0.76432054  0.51716070  1
  O  O223  1  0.79922142  0.20766433  0.01071365  1
  O  O224  1  0.87061045  0.26210698  0.49668730  1
  O  O225  1  0.86554141  0.75234606  0.00565624  1
  O  O226  1  0.86107318  0.74345683  0.49545978  1
  O  O227  1  0.13262469  0.23676566  0.49918187  1
  O  O228  1  0.13417295  0.24371918  0.99458030  1
  O  O229  1  0.12750525  0.73252934  0.49538751  1
  O  O230  1  0.13286353  0.74812185  0.99204331  1
  O  O231  1  0.63538017  0.25143837  0.50186901  1
  O  O232  1  0.60799504  0.24998009  0.98974975  1
  O  O233  1  0.62483264  0.74381969  0.49494580  1
  O  O234  1  0.63618967  0.74275084  0.99965791  1
  O  O235  1  0.49332086  0.24465827  0.13525170  1
  O  O236  1  0.49253324  0.24713912  0.63263155  1
  O  O237  1  0.49176006  0.74914739  0.12991948  1
  O  O238  1  0.49193447  0.75256437  0.63816408  1
  O  O239  1  1.00877049  0.23984322  0.13254713  1
  O  O240  1  1.02784931  0.23089922  0.64156499  1
  O  O241  1  0.99502356  0.73686403  0.11922329  1
  O  O242  1  1.00545644  0.73562344  0.62008272  1
  O  O243  1  0.00236725  0.25880073  0.36926789  1
  O  O244  1  0.01505984  0.26019187  0.87914960  1
  O  O245  1  -0.00563945  0.76319808  0.37784383  1
  O  O246  1  0.00588959  0.75592864  0.87622821  1
  O  O247  1  0.49013967  0.26098703  0.36881146  1
  O  O248  1  0.50244846  0.26214371  0.86889068  1
  O  O249  1  0.49940786  0.75672410  0.36678453  1
  O  O250  1  0.49828524  0.75709445  0.86237201  1
  O  O251  1  0.24064108  0.13087312  0.49601489  1
  O  O252  1  0.24727310  0.13712388  0.99473832  1
  O  O253  1  0.23352712  0.61074202  0.49851121  1
  O  O254  1  0.24794026  0.63891571  0.99297984  1
  O  O255  1  0.74449095  0.13206349  0.49295240  1
  O  O256  1  0.75596804  0.14777290  1.02042619  1
  O  O257  1  0.74149531  0.63360914  0.50061024  1
  O  O258  1  0.74296395  0.63052722  0.99367880  1
  O  O259  1  0.25148551  0.36409528  -0.00455203  1
  O  O260  1  0.24806620  0.36245432  0.49535210  1
  O  O261  1  0.25549178  0.86432432  0.00554748  1
  O  O262  1  0.26177983  0.88024038  0.51088089  1
  O  O263  1  0.74874985  0.37028177  0.01313961  1
  O  O264  1  0.75659416  0.36737832  0.50478133  1
  O  O265  1  0.75387486  0.86568777  0.00395490  1
  O  O266  1  0.74320441  0.86719727  0.51297275  1
  O  O267  1  0.13083303  0.49316252  0.24345180  1
  O  O268  1  0.13438979  0.49165349  0.75125371  1
  O  O269  1  0.12082728  0.98189392  0.24834568  1
  O  O270  1  0.14414747  0.99009848  0.78599361  1
  O  O271  1  0.62065741  0.49178782  0.24490013  1
  O  O272  1  0.61471602  0.49305198  0.73754597  1
  O  O273  1  0.62486793  0.98460034  0.24847829  1
  O  O274  1  0.62899839  0.99166383  0.74121737  1
  O  O275  1  0.38371943  0.00991565  0.25804647  1
  O  O276  1  0.38438635  0.01705239  0.75644164  1
  O  O277  1  0.36879707  0.50378009  0.25167718  1
  O  O278  1  0.36800170  0.50569513  0.75841870  1
  O  O279  1  0.87674790  0.00276059  0.26184855  1
  O  O280  1  0.85612228  -0.00702698  0.75458359  1
  O  O281  1  0.88366568  0.50771530  0.26211645  1
  O  O282  1  0.88034671  0.50452568  0.76416825  1
  O  O283  1  0.11477016  0.37512090  0.36424633  1
  O  O284  1  0.11929121  0.37061951  0.87003501  1
  O  O285  1  0.11927345  0.87548110  0.36367593  1
  O  O286  1  0.10745483  0.86265473  0.88079388  1
  O  O287  1  0.61208243  0.38391325  0.37164773  1
  O  O288  1  0.61240376  0.38305354  0.86788987  1
  O  O289  1  0.61877505  0.86947803  0.36721860  1
  O  O290  1  0.61843626  0.87120729  0.86213391  1
  O  O291  1  0.38513188  0.13366646  0.13309775  1
  O  O292  1  0.37946297  0.13484857  0.63286646  1
  O  O293  1  0.37678413  0.62934158  0.13083871  1
  O  O294  1  0.37770009  0.63441392  0.63038183  1
  O  O295  1  0.89379856  0.11927648  0.12940624  1
  O  O296  1  0.87128872  0.12187343  0.61827125  1
  O  O297  1  0.88080203  0.62386488  0.13097571  1
  O  O298  1  0.89251867  0.61384056  0.62095573  1
  O  O299  1  0.26187126  0.24589456  0.11730974  1
  O  O300  1  0.25920796  0.24424100  0.61591964  1
  O  O301  1  0.25413436  0.75713300  0.11548958  1
  O  O302  1  0.26157874  0.75333348  0.62961473  1
  O  O303  1  0.74558786  0.27119135  0.13840224  1
  O  O304  1  0.75051901  0.26499823  0.61300530  1
  O  O305  1  0.75640135  0.75267631  0.11631465  1
  O  O306  1  0.74163592  0.76255452  0.61736213  1
  O  O307  1  0.25017630  0.24547735  0.38539852  1
  O  O308  1  0.24878433  0.24496209  0.88580235  1
  O  O309  1  0.28977950  0.74212260  0.39110322  1
  O  O310  1  0.24064928  0.74941000  0.87940841  1
  O  O311  1  0.75649653  0.23775985  0.38634350  1
  O  O312  1  0.71844186  0.26718905  0.87818366  1
  O  O313  1  0.74104062  0.74964285  0.38524726  1
  O  O314  1  0.74888520  0.74036980  0.88576133  1
  O  O315  1  0.01141779  0.12093438  0.00850051  1
  O  O316  1  0.01430827  0.11690839  0.50024301  1
  O  O317  1  -0.00045681  0.61422891  0.00933792  1
  O  O318  1  0.00727775  0.61401352  0.50703649  1
  O  O319  1  0.49235268  0.11633788  0.01129737  1
  O  O320  1  0.49982042  0.12048124  0.50536645  1
  O  O321  1  0.51463757  0.63515579  -0.00052419  1
  O  O322  1  0.50522154  0.61020100  0.50079172  1
  O  O323  1  0.49819185  0.38489447  0.49425818  1
  O  O324  1  0.49673392  0.37501809  0.98901823  1
  O  O325  1  0.48968157  0.88218459  0.49429495  1
  O  O326  1  0.49462760  0.88106391  0.99446733  1
  O  O327  1  0.99565541  0.37541903  0.49518982  1
  O  O328  1  1.00895177  0.38478567  0.99142928  1
  O  O329  1  1.01344119  0.88176420  0.48380471  1
  O  O330  1  0.99569643  0.88254698  0.99571217  1
  O  O331  1  0.49266914  0.49168559  0.38232750  1
  O  O332  1  0.48629280  0.49543091  0.86900588  1
  O  O333  1  0.49177112  0.99447526  0.37987429  1
  O  O334  1  0.49718282  0.99707975  0.88114593  1
  O  O335  1  0.99281372  0.48612617  0.38263715  1
  O  O336  1  0.99417161  0.49523730  0.88272636  1
  O  O337  1  0.99445967  0.99021139  0.38228242  1
  O  O338  1  0.99673063  0.99308502  0.88699472  1
  O  O339  1  0.00799817  0.00644186  0.11335405  1
  O  O340  1  -0.00477465  -0.00303879  0.60957063  1
  O  O341  1  0.00593412  0.50485743  0.11892941  1
  O  O342  1  0.00310549  0.50050888  0.61367326  1
  O  O343  1  0.50108557  0.00865438  0.11740198  1
  O  O344  1  0.50324211  0.00486972  0.61964993  1
  O  O345  1  0.51651100  0.49912043  0.12484677  1
  O  O346  1  0.50713566  0.49854933  0.61621888  1
  O  O347  1  0.23877646  0.38150555  0.25340260  1
  O  O348  1  0.24183096  0.38474226  0.75999928  1
  O  O349  1  0.23884550  0.87119064  0.23929487  1
  O  O350  1  0.25247673  0.87599241  0.73456419  1
  O  O351  1  0.73549161  0.37189614  0.26123648  1
  O  O352  1  0.73343333  0.37510749  0.73974927  1
  O  O353  1  0.74152364  0.87160087  0.24566071  1
  O  O354  1  0.73932165  0.87593747  0.73878075  1
  O  O355  1  0.26487465  0.13080743  0.24885160  1
  O  O356  1  0.26139450  0.13792326  0.76166879  1
  O  O357  1  0.26123495  0.61492319  0.24351819  1
  O  O358  1  0.25291765  0.61841866  0.75436367  1
  O  O359  1  0.75284909  0.12326038  0.25949395  1
  O  O360  1  0.74652644  0.10779921  0.74385876  1
  O  O361  1  0.76401651  0.62940726  0.25194120  1
  O  O362  1  0.74482617  0.62833326  0.76516877  1
  O  O363  1  0.37513170  0.11652668  0.36660378  1
  O  O364  1  0.37341527  0.12714559  0.86817946  1
  O  O365  1  0.38483968  0.60709137  0.36036964  1
  O  O366  1  0.36825713  0.62027340  0.86899373  1
  O  O367  1  0.86718338  0.11630479  0.37381110  1
  O  O368  1  0.86199522  0.15397031  0.88741249  1
  O  O369  1  0.87781600  0.61502391  0.36721922  1
  O  O370  1  0.86536625  0.61326148  0.87687160  1
  O  O371  1  0.11689752  0.38599164  0.13559522  1
  O  O372  1  0.12094427  0.37598047  0.64041500  1
  O  O373  1  0.13299721  0.87868755  0.13041227  1
  O  O374  1  0.14296607  0.87202540  0.62107586  1
  O  O375  1  0.63156318  0.38168306  0.13724166  1
  O  O376  1  0.62978444  0.38177464  0.63205657  1
  O  O377  1  0.63126883  0.87204179  0.13439764  1
  O  O378  1  0.62235277  0.88328735  0.63379577  1
  O  O379  1  0.11852756  0.25874204  0.25116585  1
  O  O380  1  0.13714026  0.25901690  0.76661392  1
  O  O381  1  0.12096599  0.76548344  0.24327029  1
  O  O382  1  0.12037730  0.75275391  0.75877598  1
  O  O383  1  0.61001654  0.26022733  0.25058343  1
  O  O384  1  0.60851588  0.26283600  0.76025978  1
  O  O385  1  0.61979411  0.75644993  0.25558792  1
  O  O386  1  0.61486904  0.75797022  0.74897039  1
  O  O387  1  0.38345712  0.24441620  0.24525418  1
  O  O388  1  0.38282273  0.24558779  0.74547116  1
  O  O389  1  0.37783417  0.74155911  0.24128191  1
  O  O390  1  0.38016283  0.74705085  0.74431066  1
  O  O391  1  0.89255361  0.24819226  0.25493878  1
  O  O392  1  0.86816762  0.26486089  0.74567671  1
  O  O393  1  0.88180155  0.73830569  0.24411122  1
  O  O394  1  0.87802355  0.73837469  0.75207306  1
  O  O395  1  0.38054545  0.49953274  0.49218185  1
  O  O396  1  0.36424029  0.50181032  0.98733965  1
  O  O397  1  0.38040540  0.99401953  0.49241605  1
  O  O398  1  0.38819669  0.99562242  0.99451301  1
  O  O399  1  0.88582906  0.48926123  0.49131884  1
  O  O400  1  0.88607537  0.50143187  0.99264624  1
  O  O401  1  0.88616786  1.00004510  0.48549227  1
  O  O402  1  0.88671306  0.99233178  1.00371965  1
  O  O403  1  0.11887151  0.01468629  -0.00915764  1
  O  O404  1  0.11917573  0.00936924  0.49291165  1
  O  O405  1  0.11835508  0.50273783  0.00839228  1
  O  O406  1  0.11431124  0.49847717  0.49893908  1
  O  O407  1  0.61182694  -0.00649725  0.00147495  1
  O  O408  1  0.61597917  -0.00386966  0.50689533  1
  O  O409  1  0.62993107  0.51077100  0.00798925  1
  O  O410  1  0.61725130  0.50449017  0.50778761  1
  O  O411  1  0.38364072  0.36306527  0.12769690  1
  O  O412  1  0.37947167  0.36308070  0.62659024  1
  O  O413  1  0.36741821  0.87018118  0.11997116  1
  O  O414  1  0.36539966  0.87172937  0.61943860  1
  O  O415  1  0.85844422  0.38378506  0.13033005  1
  O  O416  1  0.86476115  0.38690199  0.61437635  1
  O  O417  1  0.87193843  0.86817946  0.12061419  1
  O  O418  1  0.85747424  0.87575018  0.62628375  1
  O  O419  1  0.12840682  0.12481302  0.38432530  1
  O  O420  1  0.13599927  0.13782810  0.88264426  1
  O  O421  1  0.11548040  0.61776817  0.38595336  1
  O  O422  1  0.12807961  0.63412863  0.87537506  1
  O  O423  1  0.63828484  0.11482241  0.37478341  1
  O  O424  1  0.61600496  0.13988646  0.87439965  1
  O  O425  1  0.62488686  0.63001593  0.38071463  1
  O  O426  1  0.63236200  0.62366909  0.88293851  1
