# generated using pymatgen
data_V85Zn86O256
_symmetry_space_group_name_H-M   'P 1'
_cell_length_a   16.98178389
_cell_length_b   17.00641408
_cell_length_c   16.99976703
_cell_angle_alpha   89.97302555
_cell_angle_beta   90.06213576
_cell_angle_gamma   89.96517943
_symmetry_Int_Tables_number   1
_chemical_formula_structural   V85Zn86O256
_chemical_formula_sum   'V85 Zn86 O256'
_cell_volume   4909.51560513
_cell_formula_units_Z   1
loop_
 _symmetry_equiv_pos_site_id
 _symmetry_equiv_pos_as_xyz
  1  'x, y, z'
loop_
 _atom_site_type_symbol
 _atom_site_label
 _atom_site_symmetry_multiplicity
 _atom_site_fract_x
 _atom_site_fract_y
 _atom_site_fract_z
 _atom_site_occupancy
  V  V0  1  0.87020531  0.74854387  0.61533353  1
  V  V1  1  0.62654904  0.88272589  0.24564403  1
  V  V2  1  0.00228574  0.12100724  0.62271675  1
  V  V3  1  0.87400058  0.24924512  0.62362687  1
  V  V4  1  0.87185839  0.11385045  0.74759819  1
  V  V5  1  0.75665766  0.00680574  0.24578261  1
  V  V6  1  0.25092752  0.62386149  0.87630740  1
  V  V7  1  0.61726472  0.25152176  0.36010296  1
  V  V8  1  0.12528120  0.74861417  0.87505730  1
  V  V9  1  0.49972739  0.37524677  0.87676543  1
  V  V10  1  0.63166163  0.49434879  0.12809174  1
  V  V11  1  0.12636500  0.62342170  0.49805813  1
  V  V12  1  0.87301007  0.62423840  0.75231573  1
  V  V13  1  0.62923180  0.62978749  0.49584580  1
  V  V14  1  0.50546947  0.62159910  0.12177751  1
  V  V15  1  0.51190616  0.75008719  0.74273834  1
  V  V16  1  0.24823827  0.88072614  0.12503847  1
  V  V17  1  0.25140682  0.37275669  0.62416223  1
  V  V18  1  0.74906437  0.49619391  0.26096131  1
  V  V19  1  0.00050549  0.75433726  0.24986698  1
  V  V20  1  0.88487697  0.00363421  0.37511127  1
  V  V21  1  0.50438111  0.00023765  0.50057580  1
  V  V22  1  0.12311441  0.75748603  0.37519570  1
  V  V23  1  0.25717155  0.62377156  0.37281291  1
  V  V24  1  0.37719603  0.00839306  0.37186922  1
  V  V25  1  0.12441708  0.37390325  0.75018528  1
  V  V26  1  -0.00076712  0.24729117  0.75126918  1
  V  V27  1  -0.00625512  0.87784753  0.87686860  1
  V  V28  1  -0.00360362  0.49868997  0.00283820  1
  V  V29  1  0.62900822  0.12509097  0.00146466  1
  V  V30  1  0.50199320  0.87603883  0.37485259  1
  V  V31  1  0.24491414  0.24901106  0.00054726  1
  V  V32  1  0.37934768  0.50101041  0.87917465  1
  V  V33  1  0.74888428  0.50328757  0.75377383  1
  V  V34  1  0.61938253  0.50535096  0.62418932  1
  V  V35  1  0.49643566  0.12694601  0.13483653  1
  V  V36  1  0.75140739  0.11858060  0.87143833  1
  V  V37  1  0.62715061  0.62790451  -0.00987579  1
  V  V38  1  0.12459051  0.62482971  0.00171217  1
  V  V39  1  0.63500111  0.00037460  0.63210969  1
  V  V40  1  0.00043510  0.74817476  0.74965267  1
  V  V41  1  0.87427289  0.75228501  0.12233838  1
  V  V42  1  0.12591173  0.25144731  0.37533535  1
  V  V43  1  0.88588813  0.38469959  0.49394647  1
  V  V44  1  0.24686323  0.37576079  0.12685944  1
  V  V45  1  0.25079312  0.49884792  0.75000984  1
  V  V46  1  0.49800443  0.50258508  0.50050775  1
  V  V47  1  0.12880497  -0.00345114  0.62354745  1
  V  V48  1  0.50141393  0.24910848  0.75103590  1
  V  V49  1  0.25432716  0.00740289  0.24855692  1
  V  V50  1  0.63155809  0.25070577  0.88164149  1
  V  V51  1  0.25605647  0.75094576  0.50481267  1
  V  V52  1  0.75203648  0.87423839  0.61927380  1
  V  V53  1  0.37833343  0.75139225  0.12548520  1
  V  V54  1  0.37724729  0.87344842  -0.00135381  1
  V  V55  1  -0.00306391  0.13746964  0.12963337  1
  V  V56  1  0.50295143  0.12508611  0.62685499  1
  V  V57  1  0.37761299  0.87262718  0.50674496  1
  V  V58  1  0.25572459  0.50295268  0.25407924  1
  V  V59  1  0.12588486  0.88087767  0.24889213  1
  V  V60  1  0.12104018  0.49797319  0.61982908  1
  V  V61  1  0.75089509  0.87615412  0.12255984  1
  V  V62  1  0.87236037  0.49924529  0.87770661  1
  V  V63  1  0.50597030  0.00103234  0.00356135  1
  V  V64  1  0.75052619  0.37496919  0.62498177  1
  V  V65  1  0.49972468  0.37681763  0.36439737  1
  V  V66  1  0.37862038  -0.00170728  0.87407662  1
  V  V67  1  0.62523712  0.37591060  0.75097616  1
  V  V68  1  0.63042732  0.13100391  0.50086491  1
  V  V69  1  0.37904669  0.37623781  0.00041870  1
  V  V70  1  -0.00321668  0.37385086  0.87907360  1
  V  V71  1  0.24975839  0.12379681  0.87528524  1
  V  V72  1  0.12288512  0.37775837  0.25697345  1
  V  V73  1  0.75017431  0.75080258  -0.01384902  1
  V  V74  1  0.37466717  0.37774540  0.49948507  1
  V  V75  1  0.37801802  0.62604175  0.25137643  1
  V  V76  1  -0.00961333  0.25338908  0.25479079  1
  V  V77  1  0.37765180  0.63184364  0.73356207  1
  V  V78  1  0.37758088  0.24944311  0.62616377  1
  V  V79  1  0.00049936  0.61994165  0.62000168  1
  V  V80  1  0.50730288  0.75100300  0.25320871  1
  V  V81  1  0.12867823  0.87422459  0.74874017  1
  V  V82  1  0.37683341  0.24844190  0.13967970  1
  V  V83  1  0.12919683  0.12334010  0.49718914  1
  V  V84  1  0.00102779  -0.00539508  0.01243910  1
  Zn  Zn85  1  0.87855453  0.86680958  0.48737295  1
  Zn  Zn86  1  0.87295040  -0.00550581  0.87684619  1
  Zn  Zn87  1  0.51941155  0.85616619  0.88287154  1
  Zn  Zn88  1  0.76714809  0.35434625  0.10334990  1
  Zn  Zn89  1  0.25042667  0.75010590  0.00167825  1
  Zn  Zn90  1  0.00812304  -0.01521092  0.48767309  1
  Zn  Zn91  1  0.25726767  0.13013799  0.36694159  1
  Zn  Zn92  1  0.13309198  0.11079392  0.01166836  1
  Zn  Zn93  1  0.25817064  0.86894685  0.62974018  1
  Zn  Zn94  1  -0.10569782  0.50491930  0.37699028  1
  Zn  Zn95  1  0.25388284  0.24922070  0.49915141  1
  Zn  Zn96  1  0.25483374  -0.00145603  0.74946533  1
  Zn  Zn97  1  0.37670636  0.12258752  0.74908694  1
  Zn  Zn98  1  0.75483969  0.13001751  0.36788936  1
  Zn  Zn99  1  0.12502976  0.24668086  0.87611239  1
  Zn  Zn100  1  -0.00258802  0.62615662  0.12460207  1
  Zn  Zn101  1  0.87236883  0.62729655  0.25378779  1
  Zn  Zn102  1  0.12394219  0.50182506  0.12597295  1
  Zn  Zn103  1  0.63910335  0.76017880  0.38783164  1
  Zn  Zn104  1  0.75892433  0.63617511  0.37671622  1
  Zn  Zn105  1  0.75335187  0.25544217  0.48698663  1
  Zn  Zn106  1  0.63551002  -0.12077477  0.75828650  1
  Zn  Zn107  1  0.18035356  0.18989808  0.18267651  1
  Zn  Zn108  1  0.19059895  0.18486634  0.68802118  1
  Zn  Zn109  1  0.18842254  0.69271481  0.18548402  1
  Zn  Zn110  1  0.18940731  0.68471973  0.68815693  1
  Zn  Zn111  1  0.67955880  0.18611147  0.17686452  1
  Zn  Zn112  1  0.68972095  0.18899257  0.69112931  1
  Zn  Zn113  1  0.69127588  0.68530447  0.18863338  1
  Zn  Zn114  1  0.68941917  0.68717318  0.68079828  1
  Zn  Zn115  1  0.31155242  0.31811723  0.31913266  1
  Zn  Zn116  1  0.31360699  0.31071163  0.81172428  1
  Zn  Zn117  1  0.31505200  0.81524613  0.31509978  1
  Zn  Zn118  1  0.31584267  0.80827436  0.81546869  1
  Zn  Zn119  1  0.78250813  0.28962844  0.27030370  1
  Zn  Zn120  1  0.81249682  0.31072142  0.93195595  1
  Zn  Zn121  1  0.81401949  0.81705561  0.31245663  1
  Zn  Zn122  1  0.81109856  0.81406346  0.80224193  1
  Zn  Zn123  1  0.06443234  0.43610629  0.43711579  1
  Zn  Zn124  1  0.18615377  0.43645700  0.93804283  1
  Zn  Zn125  1  0.19433457  0.93803099  0.43533865  1
  Zn  Zn126  1  0.18640826  0.93744993  0.93738043  1
  Zn  Zn127  1  0.68541714  0.43499924  0.43741573  1
  Zn  Zn128  1  0.68246279  0.44552477  0.94138302  1
  Zn  Zn129  1  0.69470492  0.93925418  0.43628557  1
  Zn  Zn130  1  0.69012335  0.93822050  0.94060617  1
  Zn  Zn131  1  0.31830536  0.06279063  0.06275243  1
  Zn  Zn132  1  0.31496190  0.06065701  0.56105280  1
  Zn  Zn133  1  0.31380726  0.56253569  0.06474154  1
  Zn  Zn134  1  0.30838550  0.55695772  0.55735436  1
  Zn  Zn135  1  0.81886387  0.06486377  0.06010063  1
  Zn  Zn136  1  0.81354378  0.06073757  0.55588612  1
  Zn  Zn137  1  0.80960554  0.56675519  0.06574698  1
  Zn  Zn138  1  0.80997482  0.56226323  0.56259012  1
  Zn  Zn139  1  0.43719755  0.44086651  0.18362046  1
  Zn  Zn140  1  0.43717309  0.43866414  0.68937666  1
  Zn  Zn141  1  0.43736321  0.94008247  0.18666948  1
  Zn  Zn142  1  0.44823101  0.93479164  0.69015912  1
  Zn  Zn143  1  0.93293044  0.44065014  0.19432962  1
  Zn  Zn144  1  0.93610738  0.43505782  0.68969491  1
  Zn  Zn145  1  0.93402317  0.93527891  0.18928016  1
  Zn  Zn146  1  0.94159675  0.93220720  0.68076025  1
  Zn  Zn147  1  0.06721741  0.06758808  0.30653567  1
  Zn  Zn148  1  0.06413329  0.05905657  0.81347227  1
  Zn  Zn149  1  0.06778470  0.57109296  0.30865851  1
  Zn  Zn150  1  0.06163711  0.56093696  0.81141608  1
  Zn  Zn151  1  0.56687363  0.06206108  0.31444061  1
  Zn  Zn152  1  0.56239038  0.06074860  0.81578362  1
  Zn  Zn153  1  0.56538456  0.56030663  0.31405288  1
  Zn  Zn154  1  0.55699143  0.56536047  0.80927388  1
  Zn  Zn155  1  0.44266729  0.19049996  0.44014997  1
  Zn  Zn156  1  0.43730132  0.18871331  0.94153563  1
  Zn  Zn157  1  0.44167848  0.68826575  0.43974475  1
  Zn  Zn158  1  0.44157162  0.68692616  0.93353060  1
  Zn  Zn159  1  0.93874278  0.18368206  0.43562798  1
  Zn  Zn160  1  0.94292071  0.17337473  0.93658442  1
  Zn  Zn161  1  0.94135556  0.68532399  0.43403323  1
  Zn  Zn162  1  0.93544275  0.68851011  0.93767612  1
  Zn  Zn163  1  -0.06204419  0.31287928  0.06386408  1
  Zn  Zn164  1  0.06391518  0.30660948  0.56468399  1
  Zn  Zn165  1  0.06254594  0.81455924  0.06250294  1
  Zn  Zn166  1  0.06031559  0.80975517  0.56087530  1
  Zn  Zn167  1  0.56065809  0.30967706  0.06545673  1
  Zn  Zn168  1  0.56179456  0.31428352  0.55995037  1
  Zn  Zn169  1  0.56760708  0.81003360  0.06341954  1
  Zn  Zn170  1  0.56012667  0.81293575  0.57065422  1
  O  O171  1  0.10822674  0.12601584  0.12402616  1
  O  O172  1  0.12360515  0.11637126  0.61825789  1
  O  O173  1  0.12568988  0.62604336  0.11254297  1
  O  O174  1  0.11985637  0.61652654  0.62132911  1
  O  O175  1  0.60708887  0.13097868  0.11166676  1
  O  O176  1  0.62443177  0.12114074  0.61903244  1
  O  O177  1  0.61897902  0.62126600  0.11997172  1
  O  O178  1  0.62823776  0.61168697  0.61436899  1
  O  O179  1  0.38998600  0.36813165  0.38693183  1
  O  O180  1  0.37769915  0.38146127  0.88129621  1
  O  O181  1  0.38237933  0.88487797  0.38407360  1
  O  O182  1  0.37235897  0.88252206  0.88655611  1
  O  O183  1  0.87271525  0.37779323  0.39676261  1
  O  O184  1  0.88674142  0.38839895  0.87143650  1
  O  O185  1  0.87102051  0.89634959  0.37238376  1
  O  O186  1  0.89023348  0.87535862  0.86125190  1
  O  O187  1  0.26113789  0.00316108  0.36652811  1
  O  O188  1  0.26076689  0.00672004  0.87677809  1
  O  O189  1  0.24679390  0.51801393  0.36182908  1
  O  O190  1  0.25818036  0.50236578  0.86938398  1
  O  O191  1  0.75611345  0.00486551  0.36037709  1
  O  O192  1  0.75466214  0.01408250  0.88027987  1
  O  O193  1  0.74144293  0.50484631  0.36587819  1
  O  O194  1  0.75846856  0.49589762  0.86275241  1
  O  O195  1  0.25029632  0.49202994  0.13303514  1
  O  O196  1  0.23994473  0.49345902  0.63025035  1
  O  O197  1  0.26213273  0.98878791  0.13329936  1
  O  O198  1  0.23962335  0.99613354  0.62644108  1
  O  O199  1  0.73890155  0.50248264  0.13279147  1
  O  O200  1  0.74146094  0.49278863  0.63138629  1
  O  O201  1  0.76163270  0.98965977  0.13490217  1
  O  O202  1  0.74274227  0.99400723  0.61889816  1
  O  O203  1  0.01337084  0.36374859  0.24293606  1
  O  O204  1  0.00356486  0.36633376  0.75696728  1
  O  O205  1  0.01414595  0.86575057  0.24118388  1
  O  O206  1  0.01176224  0.86861778  0.75461943  1
  O  O207  1  0.49324288  0.38243687  0.26596064  1
  O  O208  1  0.50653136  0.37014387  0.75625449  1
  O  O209  1  0.50740506  0.87079191  0.25203566  1
  O  O210  1  0.50893724  0.86132519  0.75251410  1
  O  O211  1  0.50521716  0.11502424  0.23250892  1
  O  O212  1  0.50005562  0.13140872  0.74457182  1
  O  O213  1  0.49864027  0.63368631  0.24571305  1
  O  O214  1  0.48424432  0.63229646  0.75041025  1
  O  O215  1  1.00696884  0.14097127  0.24034387  1
  O  O216  1  0.99635699  0.13036904  0.74506118  1
  O  O217  1  1.00598361  0.64392111  0.24279029  1
  O  O218  1  0.99379300  0.62797696  0.74093016  1
  O  O219  1  0.36577235  0.26000217  0.00571372  1
  O  O220  1  0.37787062  0.25858901  0.50895893  1
  O  O221  1  0.37737869  0.76018445  0.00504110  1
  O  O222  1  0.36830597  0.76092868  0.49257339  1
  O  O223  1  0.88340053  0.24832732  -0.00859030  1
  O  O224  1  0.87586546  0.25665644  0.51120513  1
  O  O225  1  0.86043966  0.74204113  0.00847560  1
  O  O226  1  0.88169982  0.74558780  0.51312193  1
  O  O227  1  0.12717530  0.24234396  0.49223461  1
  O  O228  1  0.14381082  0.24831485  0.99658522  1
  O  O229  1  0.13413691  0.74499579  0.49188414  1
  O  O230  1  0.12484372  0.74051917  0.99386632  1
  O  O231  1  0.62810811  0.24200895  0.49757254  1
  O  O232  1  0.61539767  0.23930351  0.98926326  1
  O  O233  1  0.61353612  0.73229873  0.50548176  1
  O  O234  1  0.63762905  0.74067218  1.00230237  1
  O  O235  1  0.49076710  0.23755837  0.12218098  1
  O  O236  1  0.49817148  0.24557391  0.63148370  1
  O  O237  1  0.49826666  0.74364515  0.13529781  1
  O  O238  1  0.49493963  0.75244262  0.64246440  1
  O  O239  1  0.99714086  0.24420328  0.13894425  1
  O  O240  1  0.99450367  0.24218424  0.63155571  1
  O  O241  1  0.99106769  0.75241369  0.12863418  1
  O  O242  1  0.99467981  0.73798797  0.63212073  1
  O  O243  1  0.01453784  0.24162995  0.36400647  1
  O  O244  1  0.00251023  0.25568688  0.86498573  1
  O  O245  1  0.01508498  0.74638782  0.36540794  1
  O  O246  1  0.00480254  0.75657193  0.86996510  1
  O  O247  1  0.50863796  0.26205852  0.37989980  1
  O  O248  1  0.50750652  0.25501020  0.87040976  1
  O  O249  1  0.50286058  0.75746377  0.36518955  1
  O  O250  1  0.48703520  0.75075600  0.85415587  1
  O  O251  1  0.23892349  0.12621603  0.49916424  1
  O  O252  1  0.25234439  0.13041401  0.99430196  1
  O  O253  1  0.24796160  0.63090708  0.49132524  1
  O  O254  1  0.24086298  0.62446225  0.99568160  1
  O  O255  1  0.73989392  0.13051452  0.49583546  1
  O  O256  1  0.73650267  0.11923417  0.99534613  1
  O  O257  1  0.73272378  0.61791759  0.49826989  1
  O  O258  1  0.73868052  0.63918669  1.00295630  1
  O  O259  1  0.25660649  0.36989029  0.00833795  1
  O  O260  1  0.26674940  0.37263959  0.50908659  1
  O  O261  1  0.25943005  0.87564836  0.00814135  1
  O  O262  1  0.26025299  0.86691042  0.50038871  1
  O  O263  1  0.74360563  0.37134123  -0.00453283  1
  O  O264  1  0.75861172  0.37463421  0.51208396  1
  O  O265  1  0.74231733  0.86097519  0.01102257  1
  O  O266  1  0.75779703  0.87863218  0.51197372  1
  O  O267  1  0.13644015  0.49390269  0.24651369  1
  O  O268  1  0.13066085  0.49471955  0.74215832  1
  O  O269  1  0.13684144  0.98751011  0.25829950  1
  O  O270  1  0.12847885  0.98984704  0.74212435  1
  O  O271  1  0.63378919  0.50750130  0.23703708  1
  O  O272  1  0.62917265  0.49893247  0.74407132  1
  O  O273  1  0.63566566  0.98862873  0.25421718  1
  O  O274  1  0.62072140  1.00315128  0.73446402  1
  O  O275  1  0.36764801  -0.00695928  0.26157637  1
  O  O276  1  0.37749185  -0.00271424  0.76187567  1
  O  O277  1  0.36431231  0.51012022  0.24321408  1
  O  O278  1  0.37060179  0.50871944  0.75801700  1
  O  O279  1  0.86377903  -0.00074472  0.25698498  1
  O  O280  1  0.88454314  0.01241974  0.74497071  1
  O  O281  1  0.86211175  0.50490566  0.25674419  1
  O  O282  1  0.86868098  0.50549905  0.75531891  1
  O  O283  1  0.12682497  0.36541999  0.36671859  1
  O  O284  1  0.11518988  0.37349253  0.86801597  1
  O  O285  1  0.13605893  0.86479399  0.36486004  1
  O  O286  1  0.11897146  0.86908225  0.86556021  1
  O  O287  1  0.61338489  0.36108198  0.38065642  1
  O  O288  1  0.61938196  0.36980859  0.87145368  1
  O  O289  1  0.61931033  0.87641302  0.36727586  1
  O  O290  1  0.62634647  0.88370346  0.86980883  1
  O  O291  1  0.38709432  0.13512169  0.11969824  1
  O  O292  1  0.38423022  0.12971725  0.62484833  1
  O  O293  1  0.38503613  0.63069674  0.12890690  1
  O  O294  1  0.36889675  0.61689314  0.63617298  1
  O  O295  1  0.89805226  0.11895038  0.12280485  1
  O  O296  1  0.87946522  0.13046149  0.62699689  1
  O  O297  1  0.87610387  0.63912224  0.13052550  1
  O  O298  1  0.88229314  0.62693152  0.63135158  1
  O  O299  1  0.25726658  0.25695642  0.11952730  1
  O  O300  1  0.25788066  0.25553826  0.62489072  1
  O  O301  1  0.26045724  0.76151302  0.12413549  1
  O  O302  1  0.24394222  0.74924740  0.60863960  1
  O  O303  1  0.75690486  0.26059040  0.16301032  1
  O  O304  1  0.75923416  0.26031046  0.62853594  1
  O  O305  1  0.75785580  0.75842929  0.12448157  1
  O  O306  1  0.76157605  0.75478580  0.62437222  1
  O  O307  1  0.24105571  0.24719124  0.37716782  1
  O  O308  1  0.25331651  0.24063332  0.88175460  1
  O  O309  1  0.24478631  0.74447173  0.38188890  1
  O  O310  1  0.24342551  0.74228943  0.87960230  1
  O  O311  1  0.73253590  0.24846597  0.36885035  1
  O  O312  1  0.73660036  0.23744275  0.87545080  1
  O  O313  1  0.74893375  0.74990588  0.37154183  1
  O  O314  1  0.75863916  0.75610746  0.88811546  1
  O  O315  1  0.00891154  0.11332840  0.00977980  1
  O  O316  1  0.01548358  0.12287044  0.50488574  1
  O  O317  1  0.00969630  0.61751891  -0.00283883  1
  O  O318  1  0.00958963  0.62977112  0.51385255  1
  O  O319  1  0.50668830  0.11720068  0.00261331  1
  O  O320  1  0.51119644  0.12092336  0.50747396  1
  O  O321  1  0.51406265  0.63801701  0.01193137  1
  O  O322  1  0.50694819  0.60992268  0.49399531  1
  O  O323  1  0.49268443  0.38344618  0.49671453  1
  O  O324  1  0.48542981  0.36826956  0.99443378  1
  O  O325  1  0.49582740  0.87943491  0.49532530  1
  O  O326  1  0.49408754  0.88122145  1.00268163  1
  O  O327  1  0.99187426  0.37372952  0.50549968  1
  O  O328  1  1.00305108  0.38808151  0.98800934  1
  O  O329  1  0.99345834  0.87466351  0.50231310  1
  O  O330  1  1.00436321  0.88373085  0.99004466  1
  O  O331  1  0.51064410  0.48403570  0.38544536  1
  O  O332  1  0.48649994  0.49240056  0.86921351  1
  O  O333  1  0.49575166  0.99558475  0.37997209  1
  O  O334  1  0.49006571  1.00098743  0.88606655  1
  O  O335  1  1.00723521  0.50147974  0.36907071  1
  O  O336  1  0.99334676  0.49326707  0.87914026  1
  O  O337  1  0.98872691  1.00827921  0.36716265  1
  O  O338  1  0.99940554  0.99019710  0.87858092  1
  O  O339  1  -0.00075012  -0.00276031  0.11522157  1
  O  O340  1  0.01587670  0.00414083  0.62406254  1
  O  O341  1  0.00262893  0.50390642  0.11374963  1
  O  O342  1  0.00951863  0.50878462  0.63549379  1
  O  O343  1  0.48881967  0.01372586  0.11283357  1
  O  O344  1  0.51151845  0.00540517  0.61823927  1
  O  O345  1  0.51137197  0.51438003  0.13271239  1
  O  O346  1  0.51164360  0.49143608  0.61735685  1
  O  O347  1  0.24750590  0.38525338  0.24746842  1
  O  O348  1  0.24516645  0.37871898  0.74489735  1
  O  O349  1  0.24671479  0.88208024  0.24303112  1
  O  O350  1  0.24072940  0.87296514  0.74965843  1
  O  O351  1  0.74729623  0.39714362  0.25291167  1
  O  O352  1  0.74238414  0.38958780  0.73771957  1
  O  O353  1  0.74325838  0.88463742  0.24151350  1
  O  O354  1  0.74741452  0.87051177  0.72938089  1
  O  O355  1  0.24257838  0.11067746  0.24614884  1
  O  O356  1  0.25591272  0.12131952  0.76049844  1
  O  O357  1  0.25592429  0.62346992  0.25307279  1
  O  O358  1  0.25907265  0.61899668  0.75587744  1
  O  O359  1  0.73721304  0.10677970  0.24401746  1
  O  O360  1  0.76046766  0.12891670  0.75862811  1
  O  O361  1  0.75093731  0.61481390  0.25407272  1
  O  O362  1  0.76077947  0.61298951  0.73929996  1
  O  O363  1  0.37739406  0.11279155  0.38347393  1
  O  O364  1  0.36788961  0.11532251  0.87698876  1
  O  O365  1  0.36559934  0.63510371  0.36684951  1
  O  O366  1  0.36925106  0.61423434  0.87507060  1
  O  O367  1  0.86982045  0.11327961  0.37682877  1
  O  O368  1  0.86814203  0.12290964  0.86277350  1
  O  O369  1  0.87476733  0.61987971  0.37349889  1
  O  O370  1  0.88358849  0.61617642  0.85915190  1
  O  O371  1  0.14308679  0.37516829  0.13828906  1
  O  O372  1  0.12881542  0.38035017  0.62994328  1
  O  O373  1  0.13969143  0.86809257  0.13386970  1
  O  O374  1  0.12668754  0.87966093  0.63398754  1
  O  O375  1  0.61743164  0.39508969  0.11627783  1
  O  O376  1  0.63260522  0.38182179  0.62877577  1
  O  O377  1  0.63586486  0.87106681  0.13547199  1
  O  O378  1  0.63400359  0.88542011  0.62239421  1
  O  O379  1  0.12449817  0.26041296  0.25876261  1
  O  O380  1  0.11378705  0.25332456  0.74755197  1
  O  O381  1  0.12312543  0.75980288  0.25623750  1
  O  O382  1  0.12139548  0.75481982  0.75390326  1
  O  O383  1  0.61482451  0.24298635  0.26280658  1
  O  O384  1  0.62094786  0.25613058  0.75997158  1
  O  O385  1  0.61544028  0.75933398  0.24955374  1
  O  O386  1  0.61379970  0.73964197  0.74756596  1
  O  O387  1  0.36733265  0.25591016  0.23808333  1
  O  O388  1  0.38419296  0.24917665  0.74381410  1
  O  O389  1  0.38698786  0.74828814  0.24557238  1
  O  O390  1  0.36923411  0.73393086  0.74584129  1
  O  O391  1  0.89438946  0.25863485  0.26857972  1
  O  O392  1  0.88873220  0.23790377  0.73612007  1
  O  O393  1  0.88770999  0.75379016  0.24353866  1
  O  O394  1  0.88015011  0.73834738  0.74095662  1
  O  O395  1  0.38543171  0.48971086  0.50634169  1
  O  O396  1  0.36750957  0.48845173  0.99095364  1
  O  O397  1  0.38260660  0.99265507  0.49172621  1
  O  O398  1  0.38330510  0.99095746  0.99343713  1
  O  O399  1  0.87547678  0.48742149  0.50525066  1
  O  O400  1  0.88393602  0.51661202  0.98657972  1
  O  O401  1  0.88142294  1.00083573  0.48496124  1
  O  O402  1  0.89508526  1.00452246  0.99378786  1
  O  O403  1  0.10977999  -0.00287330  -0.00479290  1
  O  O404  1  0.12734026  0.00514277  0.50462960  1
  O  O405  1  0.11636787  0.50853518  -0.00055839  1
  O  O406  1  0.12512348  0.50413506  0.51415825  1
  O  O407  1  0.61384587  0.00986943  -0.00289287  1
  O  O408  1  0.62283716  0.01154342  0.50446862  1
  O  O409  1  0.63243378  0.51987276  0.01494963  1
  O  O410  1  0.61755660  0.50481592  0.50737391  1
  O  O411  1  0.36873363  0.37017734  0.11893274  1
  O  O412  1  0.37249884  0.36956192  0.62090545  1
  O  O413  1  0.37084655  0.87126426  0.11650228  1
  O  O414  1  0.37624000  0.88541878  0.61061883  1
  O  O415  1  0.87535645  0.38658354  0.11756104  1
  O  O416  1  0.86940234  0.36743959  0.62235246  1
  O  O417  1  0.86417504  0.86331594  0.12931164  1
  O  O418  1  0.86997382  0.86235766  0.62639222  1
  O  O419  1  0.12992944  0.13223977  0.38203030  1
  O  O420  1  0.13982649  0.12459411  0.87599129  1
  O  O421  1  0.13760701  0.63790321  0.37850762  1
  O  O422  1  0.12980671  0.62784273  0.88108791  1
  O  O423  1  0.61968811  0.13799217  0.38418216  1
  O  O424  1  0.63126574  0.13101487  0.88033697  1
  O  O425  1  0.62294709  0.62729260  0.38988991  1
  O  O426  1  0.61751872  0.61693194  0.89193867  1
