# generated using pymatgen
data_V85Zn86O256
_symmetry_space_group_name_H-M   'P 1'
_cell_length_a   16.96319472
_cell_length_b   16.96915909
_cell_length_c   16.96016681
_cell_angle_alpha   89.92036197
_cell_angle_beta   90.05584369
_cell_angle_gamma   90.02943289
_symmetry_Int_Tables_number   1
_chemical_formula_structural   V85Zn86O256
_chemical_formula_sum   'V85 Zn86 O256'
_cell_volume   4881.99584436
_cell_formula_units_Z   1
loop_
 _symmetry_equiv_pos_site_id
 _symmetry_equiv_pos_as_xyz
  1  'x, y, z'
loop_
 _atom_site_type_symbol
 _atom_site_label
 _atom_site_symmetry_multiplicity
 _atom_site_fract_x
 _atom_site_fract_y
 _atom_site_fract_z
 _atom_site_occupancy
  V  V0  1  0.37510106  0.75312084  0.11805079  1
  V  V1  1  0.75100901  -0.00041060  0.24887228  1
  V  V2  1  -0.00103226  0.24764455  0.74902468  1
  V  V3  1  0.13782641  0.12671345  -0.00344551  1
  V  V4  1  0.86657815  -0.00459295  0.88213806  1
  V  V5  1  0.24997757  0.62035868  0.86734163  1
  V  V6  1  0.50604295  0.12602695  0.62023955  1
  V  V7  1  0.24863366  0.12375199  0.37867579  1
  V  V8  1  0.24440994  0.74828305  0.49892646  1
  V  V9  1  0.63092011  0.25185766  0.88668937  1
  V  V10  1  0.49928114  0.75574794  0.74981147  1
  V  V11  1  -0.00133793  0.37551996  0.37284228  1
  V  V12  1  0.12476546  0.50587978  0.62066768  1
  V  V13  1  0.12217907  0.25191426  0.37589340  1
  V  V14  1  0.86118896  0.62240045  0.25236973  1
  V  V15  1  0.24020585  -0.00067823  0.74613048  1
  V  V16  1  0.74435056  0.74733206  0.48582388  1
  V  V17  1  0.49122945  0.23818195  0.23344247  1
  V  V18  1  0.37251366  0.50012575  0.87098209  1
  V  V19  1  0.74613037  0.24513754  0.49974263  1
  V  V20  1  0.37423286  0.62548271  0.24846296  1
  V  V21  1  0.74950003  0.36239802  0.12343805  1
  V  V22  1  0.48943523  0.88770148  0.89096422  1
  V  V23  1  0.00157041  0.11951753  0.11549502  1
  V  V24  1  0.87523057  0.37561836  0.49799503  1
  V  V25  1  0.75224789  0.12767075  0.87326697  1
  V  V26  1  0.62747227  0.62575928  0.00026756  1
  V  V27  1  0.87444966  0.62330532  0.74706628  1
  V  V28  1  0.87937819  0.87214604  0.49429799  1
  V  V29  1  0.74583369  0.12435467  0.37747386  1
  V  V30  1  0.37593350  0.25274171  0.62409889  1
  V  V31  1  0.12439649  0.74887923  0.87439446  1
  V  V32  1  0.88723563  -0.00282002  0.37314801  1
  V  V33  1  0.62758945  0.62791538  0.48605230  1
  V  V34  1  0.25087627  0.38296115  0.62803290  1
  V  V35  1  0.24474265  0.36083243  0.12259176  1
  V  V36  1  0.61149027  0.00141446  0.12439316  1
  V  V37  1  0.87706753  0.24927440  0.62566429  1
  V  V38  1  0.75017790  0.37543582  0.62548942  1
  V  V39  1  0.62493247  0.75207867  0.87388568  1
  V  V40  1  0.24371842  0.50136747  0.23903518  1
  V  V41  1  0.00325165  0.61688556  0.12713154  1
  V  V42  1  0.50040941  0.62429662  0.12520721  1
  V  V43  1  0.85958265  0.50372490  0.37220098  1
  V  V44  1  0.12439567  0.87468855  0.25441948  1
  V  V45  1  0.12094591  0.12136889  0.51028525  1
  V  V46  1  0.25493107  0.01470897  0.23870238  1
  V  V47  1  0.12097400  -0.00479713  0.11343537  1
  V  V48  1  0.37084255  0.11932887  0.75477586  1
  V  V49  1  0.62546351  0.37594703  0.75152513  1
  V  V50  1  0.00378560  -0.00458760  0.50952860  1
  V  V51  1  0.61631100  0.25150901  0.37602623  1
  V  V52  1  0.13628681  0.24698805  0.87867573  1
  V  V53  1  0.12597862  0.61632210  0.00327722  1
  V  V54  1  -0.00453014  0.87911976  0.89040948  1
  V  V55  1  -0.00006750  0.24858086  0.24699664  1
  V  V56  1  -0.00278282  0.75042737  0.74948990  1
  V  V57  1  0.87464618  0.75172339  0.11863041  1
  V  V58  1  0.63355999  0.50115771  0.13067437  1
  V  V59  1  0.00020654  0.75352291  0.25531461  1
  V  V60  1  0.62623716  0.50084173  0.62481144  1
  V  V61  1  0.00080681  0.37504613  0.87924521  1
  V  V62  1  0.37469551  0.87500492  0.50293651  1
  V  V63  1  0.37474967  0.00042698  0.37078154  1
  V  V64  1  0.74683309  0.87763982  0.62999219  1
  V  V65  1  0.50853541  0.00450335  0.50034086  1
  V  V66  1  0.50000598  0.49706729  0.49498634  1
  V  V67  1  0.37285763  0.36351182  0.00734849  1
  V  V68  1  0.24816195  0.25184907  0.50033613  1
  V  V69  1  0.00318860  0.50808996  0.49693063  1
  V  V70  1  0.87562675  0.49981064  0.87725996  1
  V  V71  1  0.37603768  0.37634393  0.49780064  1
  V  V72  1  0.50238012  0.75058414  0.25777696  1
  V  V73  1  0.62007678  0.37570591  0.25310462  1
  V  V74  1  0.62504149  0.87238093  0.25591034  1
  V  V75  1  0.12953635  0.38096667  0.75093979  1
  V  V76  1  0.87746291  0.12385843  0.24862582  1
  V  V77  1  0.49950971  0.37384617  0.87762236  1
  V  V78  1  0.62623796  0.12005371  0.00701865  1
  V  V79  1  0.50050312  0.24966453  0.75269029  1
  V  V80  1  0.24124510  0.62680366  0.37681065  1
  V  V81  1  0.50088820  0.62873806  0.62535314  1
  V  V82  1  0.25121765  0.87141446  0.11613868  1
  V  V83  1  0.37491898  0.49602394  0.37283281  1
  V  V84  1  0.75360649  0.87625612  0.11722293  1
  Zn  Zn85  1  0.37174069  0.62298134  0.74711066  1
  Zn  Zn86  1  0.24040012  0.87912700  0.62172145  1
  Zn  Zn87  1  0.00107591  0.49451067  0.00889234  1
  Zn  Zn88  1  0.00378892  0.62802015  0.61992421  1
  Zn  Zn89  1  0.11346338  0.88625555  0.74369904  1
  Zn  Zn90  1  0.86710062  0.11207190  0.74531213  1
  Zn  Zn91  1  0.11948732  0.38102119  0.24085507  1
  Zn  Zn92  1  0.50440872  0.87247226  0.37893459  1
  Zn  Zn93  1  0.49884075  0.49925244  0.00239818  1
  Zn  Zn94  1  0.62656212  0.88961353  0.75510334  1
  Zn  Zn95  1  0.74947867  0.50160629  0.74999264  1
  Zn  Zn96  1  0.86226946  0.36773478  -0.00585930  1
  Zn  Zn97  1  0.25677079  0.75088892  -0.00674586  1
  Zn  Zn98  1  0.75515025  0.75442548  -0.00488199  1
  Zn  Zn99  1  0.74985646  0.62577805  0.87359769  1
  Zn  Zn100  1  0.11777129  0.75230834  0.37997141  1
  Zn  Zn101  1  0.87311271  0.74740573  0.62146828  1
  Zn  Zn102  1  0.32043921  0.04925884  0.92043687  1
  Zn  Zn103  1  0.86990596  0.24031004  0.11283190  1
  Zn  Zn104  1  0.63671793  0.01195020  0.62880848  1
  Zn  Zn105  1  0.00153545  0.11788712  0.63149494  1
  Zn  Zn106  1  0.37271162  0.75225450  0.62678805  1
  Zn  Zn107  1  0.19153796  0.18176956  0.18614474  1
  Zn  Zn108  1  0.18933511  0.19236689  0.69109383  1
  Zn  Zn109  1  0.18704146  0.68815762  0.18828817  1
  Zn  Zn110  1  0.18719280  0.69302092  0.68590767  1
  Zn  Zn111  1  0.68315700  0.18731546  0.19373072  1
  Zn  Zn112  1  0.68779810  0.19018749  0.69260998  1
  Zn  Zn113  1  0.68631777  0.69222406  0.18629501  1
  Zn  Zn114  1  0.68875225  0.69218858  0.68302318  1
  Zn  Zn115  1  0.31126716  0.31211964  0.30850070  1
  Zn  Zn116  1  0.31677433  0.31312686  0.81223327  1
  Zn  Zn117  1  0.31134034  0.81606567  0.30994357  1
  Zn  Zn118  1  0.31432888  0.81707440  0.81261242  1
  Zn  Zn119  1  0.80968653  0.31464255  0.30871179  1
  Zn  Zn120  1  0.81231709  0.31158449  0.81144729  1
  Zn  Zn121  1  0.81399197  0.81243007  0.30715633  1
  Zn  Zn122  1  0.81490377  0.81331577  0.81387788  1
  Zn  Zn123  1  0.18695078  0.43857079  0.43430095  1
  Zn  Zn124  1  0.19063442  0.43624324  0.93908024  1
  Zn  Zn125  1  0.18824705  0.93801813  0.43789485  1
  Zn  Zn126  1  0.18266711  0.93512767  0.93194591  1
  Zn  Zn127  1  0.68322016  0.43300637  0.43955366  1
  Zn  Zn128  1  0.68768370  0.44084740  0.94050050  1
  Zn  Zn129  1  0.69279399  0.93794862  0.43929099  1
  Zn  Zn130  1  0.68171839  0.93947940  0.93582074  1
  Zn  Zn131  1  0.33001164  0.08822691  0.08507792  1
  Zn  Zn132  1  0.31657813  0.06218752  0.56503898  1
  Zn  Zn133  1  0.31337582  0.56130912  0.05613302  1
  Zn  Zn134  1  0.31261343  0.56544499  0.56070212  1
  Zn  Zn135  1  0.81092659  0.06140544  0.05725969  1
  Zn  Zn136  1  0.81912112  0.06166002  0.56134978  1
  Zn  Zn137  1  0.81406850  0.56159135  0.06342180  1
  Zn  Zn138  1  0.81340370  0.56311874  0.55966213  1
  Zn  Zn139  1  0.43988279  0.43447511  0.18785744  1
  Zn  Zn140  1  0.44046466  0.43965756  0.68745178  1
  Zn  Zn141  1  0.43597708  0.93225286  0.18686157  1
  Zn  Zn142  1  0.43959799  0.94070233  0.68852819  1
  Zn  Zn143  1  0.92912683  0.43742803  0.19170403  1
  Zn  Zn144  1  0.93991769  0.43704431  0.68732498  1
  Zn  Zn145  1  0.93822477  0.93578087  0.18466193  1
  Zn  Zn146  1  0.92888493  0.93369561  0.69123499  1
  Zn  Zn147  1  0.07222549  0.06541596  0.30931828  1
  Zn  Zn148  1  0.06010626  0.06261976  0.81850398  1
  Zn  Zn149  1  0.05876330  0.56302426  0.31055193  1
  Zn  Zn150  1  0.06225604  0.56245546  0.81196506  1
  Zn  Zn151  1  0.56130371  0.06264999  0.31028047  1
  Zn  Zn152  1  0.56442760  0.06352700  0.81168171  1
  Zn  Zn153  1  0.56204651  0.56071211  0.30937833  1
  Zn  Zn154  1  0.55989648  0.56220617  0.81299115  1
  Zn  Zn155  1  0.43316265  0.18492236  0.43529143  1
  Zn  Zn156  1  0.43283558  0.17343091  0.95428568  1
  Zn  Zn157  1  0.43182709  0.68435347  0.43806712  1
  Zn  Zn158  1  0.44059762  0.68740683  0.93497030  1
  Zn  Zn159  1  0.93740746  0.18395901  0.43858958  1
  Zn  Zn160  1  0.93679091  0.18664634  0.93587733  1
  Zn  Zn161  1  0.93207615  0.68586749  0.43369702  1
  Zn  Zn162  1  0.94136610  0.68389826  0.93795344  1
  Zn  Zn163  1  0.06314616  0.30609640  0.06038040  1
  Zn  Zn164  1  0.06240601  0.31636498  0.56213799  1
  Zn  Zn165  1  0.06473849  0.80340337  0.06592459  1
  Zn  Zn166  1  0.06299584  0.81411858  0.56583841  1
  Zn  Zn167  1  0.56094918  0.31116818  0.06435781  1
  Zn  Zn168  1  0.56362472  0.31262955  0.56267128  1
  Zn  Zn169  1  0.56357034  0.81307139  0.06519726  1
  Zn  Zn170  1  0.56491258  0.81495713  0.56007561  1
  O  O171  1  0.12059073  0.11558531  0.11690341  1
  O  O172  1  0.12361960  0.13403238  0.61363760  1
  O  O173  1  0.11524864  0.63409854  0.11493510  1
  O  O174  1  0.12460782  0.60923859  0.63335949  1
  O  O175  1  0.63942179  0.11561613  0.11468475  1
  O  O176  1  0.61050898  0.13159196  0.62742878  1
  O  O177  1  0.62148348  0.62021221  0.12062161  1
  O  O178  1  0.61671291  0.62144909  0.61570092  1
  O  O179  1  0.36445597  0.38920441  0.38149371  1
  O  O180  1  0.37744248  0.38080614  0.88427496  1
  O  O181  1  0.37611531  0.88399372  0.38461701  1
  O  O182  1  0.38981566  0.87155657  0.87795685  1
  O  O183  1  0.87890952  0.38279258  0.37670452  1
  O  O184  1  0.88433732  0.38231266  0.87182851  1
  O  O185  1  0.86785023  0.88594088  0.38282016  1
  O  O186  1  0.88401972  0.88215189  0.87709707  1
  O  O187  1  0.25662809  0.00550575  0.36641317  1
  O  O188  1  0.24742939  -0.00276664  0.85940168  1
  O  O189  1  0.25694623  0.50766921  0.36850998  1
  O  O190  1  0.25847459  0.50898774  0.87852769  1
  O  O191  1  0.75900004  0.00808832  0.37122993  1
  O  O192  1  0.76133776  0.00268163  0.87637454  1
  O  O193  1  0.76108260  0.49603395  0.38357251  1
  O  O194  1  0.76192234  0.50063835  0.87214830  1
  O  O195  1  0.25657056  0.49705659  0.13549754  1
  O  O196  1  0.24251248  0.49023926  0.61603072  1
  O  O197  1  0.23718241  0.98425029  0.12549496  1
  O  O198  1  0.25623917  1.00049875  0.64031821  1
  O  O199  1  0.73748776  0.49527379  0.12512604  1
  O  O200  1  0.74378079  0.49328727  0.62300511  1
  O  O201  1  0.74830984  0.99207144  0.13131789  1
  O  O202  1  0.75111711  0.98330183  0.60954673  1
  O  O203  1  -0.00049661  0.36569257  0.25206659  1
  O  O204  1  0.00887377  0.36784498  0.75791318  1
  O  O205  1  0.01013078  0.86394726  0.24092057  1
  O  O206  1  -0.00464346  0.86160616  0.75912523  1
  O  O207  1  0.51341059  0.36260854  0.24280585  1
  O  O208  1  0.50546546  0.36952396  0.75595876  1
  O  O209  1  0.50777607  0.86717177  0.25264277  1
  O  O210  1  0.50182193  0.86515455  0.75344657  1
  O  O211  1  0.50282322  0.13865683  0.25143804  1
  O  O212  1  0.48939864  0.13091586  0.74130892  1
  O  O213  1  0.49532283  0.63223352  0.24483401  1
  O  O214  1  0.50201105  0.63464001  0.73997944  1
  O  O215  1  0.99813224  0.13074409  0.24245294  1
  O  O216  1  1.00324185  0.13923046  0.74994902  1
  O  O217  1  0.99554211  0.63349627  0.24191969  1
  O  O218  1  0.99081284  0.63305005  0.75140064  1
  O  O219  1  0.37512533  0.26527793  -0.00475541  1
  O  O220  1  0.36898383  0.25661929  0.50359392  1
  O  O221  1  0.37627070  0.74260944  0.01441494  1
  O  O222  1  0.36837869  0.75995453  0.49945673  1
  O  O223  1  0.88333734  0.25761386  0.00272435  1
  O  O224  1  0.86754224  0.25539095  0.50359788  1
  O  O225  1  0.87414893  0.74094603  0.01419857  1
  O  O226  1  0.86590214  0.75564443  0.49800385  1
  O  O227  1  0.12907350  0.24604557  0.49624559  1
  O  O228  1  0.12358878  0.24014225  0.99000238  1
  O  O229  1  0.13881404  0.75863651  0.49521557  1
  O  O230  1  0.12315645  0.73802384  0.98612362  1
  O  O231  1  0.63892694  0.25769788  0.49253977  1
  O  O232  1  0.62878566  0.24615623  0.99212554  1
  O  O233  1  0.63613190  0.74460048  0.49860046  1
  O  O234  1  0.62553474  0.74181643  0.99219361  1
  O  O235  1  0.49936179  0.24488028  0.13289194  1
  O  O236  1  0.49557263  0.24622605  0.62912247  1
  O  O237  1  0.49324829  0.74578876  0.13434953  1
  O  O238  1  0.50239343  0.74366621  0.63076639  1
  O  O239  1  1.00136757  0.23921243  0.13411443  1
  O  O240  1  0.99495813  0.25453852  0.63426845  1
  O  O241  1  0.99151016  0.74069884  0.13308660  1
  O  O242  1  0.99603570  0.74623015  0.63556685  1
  O  O243  1  0.00133857  0.25431967  0.36760585  1
  O  O244  1  0.00775464  0.25913311  0.86612095  1
  O  O245  1  0.00002122  0.74453761  0.36040304  1
  O  O246  1  0.00345838  0.75633493  0.86969535  1
  O  O247  1  0.51490477  0.24349085  0.38022030  1
  O  O248  1  0.51085738  0.25613606  0.87181002  1
  O  O249  1  0.49210833  0.74928672  0.36132261  1
  O  O250  1  0.50771646  0.75561918  0.86751615  1
  O  O251  1  0.24195873  0.12832480  0.49529298  1
  O  O252  1  0.23691595  0.12041009  1.00212139  1
  O  O253  1  0.25777803  0.63596879  0.48864527  1
  O  O254  1  0.24213354  0.62885346  0.98989727  1
  O  O255  1  0.75853767  0.13486998  0.49050711  1
  O  O256  1  0.74235511  0.12376953  0.98508280  1
  O  O257  1  0.74332010  0.63959622  0.50523145  1
  O  O258  1  0.73805478  0.62732109  0.99917250  1
  O  O259  1  0.26054619  0.37939629  0.01228284  1
  O  O260  1  0.25479209  0.37112389  0.50756442  1
  O  O261  1  0.23954026  0.86918425  0.01098850  1
  O  O262  1  0.25884798  0.86862607  0.49888284  1
  O  O263  1  0.74468734  0.37788109  0.01830177  1
  O  O264  1  0.75599814  0.36526868  0.50549315  1
  O  O265  1  0.74222382  0.87493310  0.01386229  1
  O  O266  1  0.75660199  0.86341965  0.50366488  1
  O  O267  1  0.13805302  0.49767475  0.25529570  1
  O  O268  1  0.11728111  0.48668193  0.74091417  1
  O  O269  1  0.13424893  0.99258735  0.23738933  1
  O  O270  1  0.13642965  1.00660306  0.74980636  1
  O  O271  1  0.61820344  0.49010739  0.24169624  1
  O  O272  1  0.62545410  0.49459557  0.74352474  1
  O  O273  1  0.63112143  0.99439332  0.24245704  1
  O  O274  1  0.62328791  1.00080287  0.74099948  1
  O  O275  1  0.36604700  -0.01312186  0.26263706  1
  O  O276  1  0.37190337  0.01565729  0.75019017  1
  O  O277  1  0.36954860  0.50356909  0.25670282  1
  O  O278  1  0.38158425  0.50169188  0.76483904  1
  O  O279  1  0.87182144  0.00271100  0.25669691  1
  O  O280  1  0.88699840  0.00157319  0.77064277  1
  O  O281  1  0.87667559  0.51041539  0.26080866  1
  O  O282  1  0.87639938  0.50717729  0.75747878  1
  O  O283  1  0.11770917  0.36789783  0.37152405  1
  O  O284  1  0.12065336  0.37075968  0.86890850  1
  O  O285  1  0.13162360  0.87547568  0.35811712  1
  O  O286  1  0.11203782  0.86510346  0.86784899  1
  O  O287  1  0.63152324  0.36360784  0.36534599  1
  O  O288  1  0.62102526  0.37045244  0.87324029  1
  O  O289  1  0.62587363  0.88315385  0.35973426  1
  O  O290  1  0.61677760  0.86559789  0.87365058  1
  O  O291  1  0.29662888  0.10109967  0.18642308  1
  O  O292  1  0.38357225  0.13405129  0.63212835  1
  O  O293  1  0.37998122  0.63096297  0.13000191  1
  O  O294  1  0.38910842  0.62505752  0.62529139  1
  O  O295  1  0.88406803  0.12027776  0.13034228  1
  O  O296  1  0.87872493  0.13321863  0.62909820  1
  O  O297  1  0.88172096  0.63052716  0.13301384  1
  O  O298  1  0.87899926  0.62427051  0.63524599  1
  O  O299  1  0.25281718  0.26215625  0.13124408  1
  O  O300  1  0.25514645  0.26207351  0.61937819  1
  O  O301  1  0.25857049  0.75514439  0.12505621  1
  O  O302  1  0.25476310  0.74950837  0.61322556  1
  O  O303  1  0.74835112  0.25874390  0.12748190  1
  O  O304  1  0.75506899  0.25359537  0.61786172  1
  O  O305  1  0.75795106  0.75925113  0.12353698  1
  O  O306  1  0.75292257  0.76132506  0.61324621  1
  O  O307  1  0.24419592  0.24339384  0.38037088  1
  O  O308  1  0.23518387  0.25490098  0.86718752  1
  O  O309  1  0.25173214  0.74222250  0.37958781  1
  O  O310  1  0.24057803  0.74496433  0.87377660  1
  O  O311  1  0.74611540  0.24268872  0.38096826  1
  O  O312  1  0.74014698  0.24467027  0.87133588  1
  O  O313  1  0.75296993  0.75404728  0.38700217  1
  O  O314  1  0.73931025  0.75045020  0.87630684  1
  O  O315  1  0.00779036  0.12727686  0.01282106  1
  O  O316  1  0.00454355  0.11551848  0.50536940  1
  O  O317  1  0.00749790  0.62117240  0.00948224  1
  O  O318  1  -0.00477251  0.61241551  0.49950692  1
  O  O319  1  0.52963864  0.13506538  -0.00031978  1
  O  O320  1  0.49070569  0.11650442  0.50948447  1
  O  O321  1  0.51192267  0.62628402  0.00700322  1
  O  O322  1  0.50629192  0.61948981  0.50588163  1
  O  O323  1  0.49430108  0.38976776  0.50680941  1
  O  O324  1  0.48793216  0.37556446  0.99739640  1
  O  O325  1  0.49330549  0.88332149  0.49752286  1
  O  O326  1  0.50462994  0.87389627  0.99009552  1
  O  O327  1  0.99311185  0.38215034  0.49268955  1
  O  O328  1  1.00574902  0.37714847  0.98686527  1
  O  O329  1  0.98828136  0.87943818  0.50180437  1
  O  O330  1  1.00439552  0.86549519  0.98845285  1
  O  O331  1  0.48786686  0.50752673  0.38462467  1
  O  O332  1  0.49360914  0.49204332  0.87854978  1
  O  O333  1  0.49027539  1.00319489  0.38191110  1
  O  O334  1  0.50383787  0.98606788  0.87309529  1
  O  O335  1  0.99531214  0.49433457  0.38126223  1
  O  O336  1  0.99219757  0.49052825  0.87360497  1
  O  O337  1  0.99080840  1.00682803  0.37911249  1
  O  O338  1  1.00085759  0.98205833  0.87724899  1
  O  O339  1  0.01131621  0.00779797  0.13276607  1
  O  O340  1  -0.00783586  -0.00150880  0.61329119  1
  O  O341  1  -0.00630105  0.51214014  0.12827474  1
  O  O342  1  0.00762483  0.49856168  0.61436686  1
  O  O343  1  0.51233925  -0.00260085  0.13153491  1
  O  O344  1  0.49794237  0.01052917  0.61504570  1
  O  O345  1  0.50948312  0.50767267  0.12494898  1
  O  O346  1  0.50529125  0.50937682  0.61610136  1
  O  O347  1  0.25027678  0.38169719  0.23574548  1
  O  O348  1  0.24213232  0.37094818  0.73829055  1
  O  O349  1  0.24278512  0.88263334  0.23808800  1
  O  O350  1  0.25180736  0.89067985  0.74743771  1
  O  O351  1  0.73402936  0.36826392  0.23743572  1
  O  O352  1  0.74348807  0.37636522  0.74250942  1
  O  O353  1  0.74275845  0.87902151  0.24154771  1
  O  O354  1  0.75419013  0.86995560  0.73255568  1
  O  O355  1  0.20474514  0.11480748  0.28273198  1
  O  O356  1  0.26281443  0.11847723  0.74265043  1
  O  O357  1  0.25492548  0.61912407  0.25512035  1
  O  O358  1  0.25121120  0.63095781  0.76317907  1
  O  O359  1  0.75741005  0.12012031  0.25769831  1
  O  O360  1  0.75056524  0.12853936  0.76535275  1
  O  O361  1  0.76224259  0.63213034  0.24588923  1
  O  O362  1  0.76079184  0.62478011  0.75031189  1
  O  O363  1  0.35844878  0.11514431  0.37966089  1
  O  O364  1  0.37649735  0.13858669  0.85461287  1
  O  O365  1  0.36569123  0.61498170  0.36833906  1
  O  O366  1  0.36771387  0.61821379  0.87579446  1
  O  O367  1  0.86794817  0.11666602  0.36934605  1
  O  O368  1  0.86976627  0.11519219  0.87272139  1
  O  O369  1  0.87711294  0.61506966  0.36422572  1
  O  O370  1  0.87553548  0.61605451  0.86766572  1
  O  O371  1  0.14006698  0.37209214  0.12081791  1
  O  O372  1  0.13255225  0.38252845  0.63133735  1
  O  O373  1  0.12908022  0.87736884  0.13069908  1
  O  O374  1  0.12824443  0.87063477  0.63430819  1
  O  O375  1  0.63178610  0.38134950  0.13003526  1
  O  O376  1  0.62982320  0.38057920  0.63070684  1
  O  O377  1  0.63215843  0.88315657  0.13381026  1
  O  O378  1  0.63996194  0.87462292  0.62482610  1
  O  O379  1  0.11231297  0.24966125  0.25568908  1
  O  O380  1  0.11824263  0.26058898  0.75529698  1
  O  O381  1  0.11752462  0.75781471  0.24995658  1
  O  O382  1  0.11326723  0.74339985  0.76220607  1
  O  O383  1  0.61358434  0.25407767  0.25777106  1
  O  O384  1  0.61885010  0.25742640  0.76003429  1
  O  O385  1  0.61424962  0.76040568  0.24305912  1
  O  O386  1  0.61739017  0.75073884  0.75911604  1
  O  O387  1  0.39441464  0.25653099  0.25859068  1
  O  O388  1  0.38062086  0.24643564  0.74194151  1
  O  O389  1  0.38188804  0.74563467  0.24092359  1
  O  O390  1  0.38677748  0.74698947  0.74767262  1
  O  O391  1  0.88596112  0.24311093  0.24820296  1
  O  O392  1  0.88618772  0.25157974  0.74451524  1
  O  O393  1  0.88216855  0.74303759  0.24256145  1
  O  O394  1  0.88212685  0.74008483  0.75173626  1
  O  O395  1  0.38167549  0.49763325  0.49262186  1
  O  O396  1  0.37845596  0.49218005  0.98819852  1
  O  O397  1  0.37996139  0.99331581  0.49099675  1
  O  O398  1  0.39183648  1.07048264  1.00000134  1
  O  O399  1  0.88288832  0.49550222  0.49220088  1
  O  O400  1  0.87787614  0.49458874  0.98950015  1
  O  O401  1  0.88449449  0.99251610  0.49071638  1
  O  O402  1  0.87913747  1.00463598  0.98244585  1
  O  O403  1  0.12543906  0.00528392  0.00802776  1
  O  O404  1  0.11398406  0.00727811  0.49352966  1
  O  O405  1  0.12261100  0.51252073  -0.00527257  1
  O  O406  1  0.11465918  0.49272612  0.50794206  1
  O  O407  1  0.62951091  0.01190266  0.00904895  1
  O  O408  1  0.61183392  -0.00468484  0.50139555  1
  O  O409  1  0.62172940  0.51000854  0.00917297  1
  O  O410  1  0.61736271  0.50608385  0.50355146  1
  O  O411  1  0.36797579  0.37930382  0.11246601  1
  O  O412  1  0.36852682  0.37448288  0.61975233  1
  O  O413  1  0.36412087  0.86490061  0.12834986  1
  O  O414  1  0.37480049  0.87648695  0.61164963  1
  O  O415  1  0.85580962  0.37531261  0.12874173  1
  O  O416  1  0.87015370  0.37000522  0.61910476  1
  O  O417  1  0.86561178  0.86447744  0.13168463  1
  O  O418  1  0.86505105  0.87291102  0.61166228  1
  O  O419  1  0.12320191  0.13343941  0.39600855  1
  O  O420  1  0.11696349  0.13492495  0.88595055  1
  O  O421  1  0.13796034  0.62780405  0.36961447  1
  O  O422  1  0.13050324  0.62881133  0.88024525  1
  O  O423  1  0.64038734  0.13211154  0.36911265  1
  O  O424  1  0.63258352  0.13232247  0.88364312  1
  O  O425  1  0.62255009  0.61914865  0.38711815  1
  O  O426  1  0.62408159  0.63280419  0.88272076  1
