# generated using pymatgen
data_V85Zn86O256
_symmetry_space_group_name_H-M   'P 1'
_cell_length_a   16.94717956
_cell_length_b   16.95881276
_cell_length_c   16.94038507
_cell_angle_alpha   89.94721316
_cell_angle_beta   89.95485519
_cell_angle_gamma   89.99033764
_symmetry_Int_Tables_number   1
_chemical_formula_structural   V85Zn86O256
_chemical_formula_sum   'V85 Zn86 O256'
_cell_volume   4868.73154646
_cell_formula_units_Z   1
loop_
 _symmetry_equiv_pos_site_id
 _symmetry_equiv_pos_as_xyz
  1  'x, y, z'
loop_
 _atom_site_type_symbol
 _atom_site_label
 _atom_site_symmetry_multiplicity
 _atom_site_fract_x
 _atom_site_fract_y
 _atom_site_fract_z
 _atom_site_occupancy
  V  V0  1  0.50713060  0.61953984  0.12412950  1
  V  V1  1  0.12771628  0.24658075  0.87361037  1
  V  V2  1  0.37536430  0.49657762  0.37566871  1
  V  V3  1  0.49915501  0.87767363  0.87477027  1
  V  V4  1  -0.00158377  -0.00162863  -0.00693744  1
  V  V5  1  0.75774025  0.12571898  0.86946897  1
  V  V6  1  0.24873593  0.37056832  0.61883126  1
  V  V7  1  0.62355911  0.12140487  0.01124121  1
  V  V8  1  0.74770893  0.75269323  0.00154683  1
  V  V9  1  0.49247653  0.12262476  0.63037812  1
  V  V10  1  0.24598519  0.49477295  0.25036615  1
  V  V11  1  0.74399715  0.25014636  0.49864698  1
  V  V12  1  0.24799834  0.87253092  0.12511066  1
  V  V13  1  0.11912080  0.62352298  0.00590727  1
  V  V14  1  0.37541374  0.49843205  0.87430865  1
  V  V15  1  0.11973880  0.12865259  0.50112046  1
  V  V16  1  0.62507834  0.75102062  0.87409508  1
  V  V17  1  0.75584315  0.62724353  0.86703839  1
  V  V18  1  0.24752554  0.12855796  0.38078993  1
  V  V19  1  0.87897510  0.23601829  0.62812522  1
  V  V20  1  0.50265692  0.00335015  0.01125188  1
  V  V21  1  0.87337401  0.00315825  0.36744224  1
  V  V22  1  0.75776023  0.75728199  0.50072105  1
  V  V23  1  0.49741652  -0.00221415  0.50011165  1
  V  V24  1  0.62596054  0.87623652  0.74799006  1
  V  V25  1  0.37563832  0.87618678  -0.00099472  1
  V  V26  1  0.50198904  0.74718623  0.25040123  1
  V  V27  1  0.37637320  0.37088999  0.49764180  1
  V  V28  1  0.62569748  0.25015575  0.86866217  1
  V  V29  1  0.37140094  0.24624685  0.62421184  1
  V  V30  1  0.12419933  0.25204454  0.37069154  1
  V  V31  1  0.12250431  -0.00173615  0.12500333  1
  V  V32  1  0.00111292  0.50856421  0.50082022  1
  V  V33  1  0.75646880  0.00571751  0.74726409  1
  V  V34  1  -0.00035089  0.74216658  0.24430472  1
  V  V35  1  0.25060148  0.49907821  0.75070650  1
  V  V36  1  0.49924133  0.87285558  0.37532861  1
  V  V37  1  0.87587296  0.37720103  -0.00030458  1
  V  V38  1  0.37503261  0.62183393  0.25007316  1
  V  V39  1  0.12191111  0.37375121  0.74830048  1
  V  V40  1  0.75078955  0.61943154  0.38446543  1
  V  V41  1  -0.00529903  0.62804403  0.63561194  1
  V  V42  1  0.25268328  0.01045887  0.75421739  1
  V  V43  1  0.12021988  0.00347630  0.62570770  1
  V  V44  1  0.37912141  0.12662161  0.24457862  1
  V  V45  1  0.49544897  0.74919338  0.74702639  1
  V  V46  1  -0.00703287  0.00004740  0.50072612  1
  V  V47  1  0.62171699  0.50100991  0.63893250  1
  V  V48  1  0.11867018  0.50008231  0.12694466  1
  V  V49  1  -0.00162156  0.23572426  0.74613033  1
  V  V50  1  0.87446395  0.25134007  0.13010315  1
  V  V51  1  0.12323151  0.87182995  0.24949734  1
  V  V52  1  0.63111230  0.88142484  0.24560905  1
  V  V53  1  0.24667180  0.62624278  0.87577281  1
  V  V54  1  0.24738061  0.37231009  0.12861396  1
  V  V55  1  0.62601643  0.74482685  0.38275099  1
  V  V56  1  0.76109746  0.49605003  0.74982162  1
  V  V57  1  0.11849378  0.86939889  0.76335646  1
  V  V58  1  0.24984723  0.86897847  0.62079074  1
  V  V59  1  0.24651062  0.62594695  0.38835116  1
  V  V60  1  0.37648747  0.37329020  0.00113197  1
  V  V61  1  0.37545784  0.74876637  0.12533843  1
  V  V62  1  0.87743891  0.74846940  0.12431326  1
  V  V63  1  0.24671464  0.74846834  -0.00492698  1
  V  V64  1  0.87801037  0.75483465  0.63333571  1
  V  V65  1  0.50440246  0.37508623  0.86965725  1
  V  V66  1  0.37361817  0.01579528  0.87143406  1
  V  V67  1  0.12680521  0.74565609  0.38994502  1
  V  V68  1  0.50842086  0.49848654  0.00279506  1
  V  V69  1  0.62655269  0.37495621  0.24013407  1
  V  V70  1  0.87861143  0.87654783  -0.01056334  1
  V  V71  1  0.74783425  0.13041631  0.36810836  1
  V  V72  1  0.74444503  0.50254795  0.22866053  1
  V  V73  1  0.62417481  0.00085425  0.62282756  1
  V  V74  1  0.37033378  -0.00182142  0.37627937  1
  V  V75  1  0.12832559  0.12588578  -0.00055115  1
  V  V76  1  0.49822448  0.24874865  0.74905607  1
  V  V77  1  -0.00742867  0.87265859  0.37988767  1
  V  V78  1  0.75056405  0.25504474  0.00176067  1
  V  V79  1  0.12544861  0.50883861  0.62060023  1
  V  V80  1  0.51026985  0.50532289  0.49537731  1
  V  V81  1  0.00226006  0.37512101  0.37058198  1
  V  V82  1  -0.00467214  0.12654868  0.13248665  1
  V  V83  1  0.87369833  0.37809595  0.50399101  1
  V  V84  1  0.25110579  0.24783367  -0.00195233  1
  Zn  Zn85  1  0.36404570  0.86485405  0.49467501  1
  Zn  Zn86  1  0.87711997  0.50088453  0.37032074  1
  Zn  Zn87  1  0.87655343  0.62179186  0.24411394  1
  Zn  Zn88  1  0.00004421  0.37691806  0.87451754  1
  Zn  Zn89  1  0.52165700  0.35593877  0.38102083  1
  Zn  Zn90  1  -0.00014646  0.49960625  -0.00004526  1
  Zn  Zn91  1  0.74707137  0.88725020  0.11819054  1
  Zn  Zn92  1  0.36723292  0.74012117  0.61590396  1
  Zn  Zn93  1  0.38586744  0.24438019  0.12360996  1
  Zn  Zn94  1  0.75880833  0.88214980  0.61835036  1
  Zn  Zn95  1  0.61776721  0.13494296  0.49314162  1
  Zn  Zn96  1  0.62888324  0.62049074  0.00306049  1
  Zn  Zn97  1  0.75268696  0.01149115  0.23945554  1
  Zn  Zn98  1  0.88233686  0.00248978  0.86486523  1
  Zn  Zn99  1  -0.00396786  0.25039729  0.25220884  1
  Zn  Zn100  1  0.74404892  0.36842025  0.63275821  1
  Zn  Zn101  1  0.51320880  0.24451504  0.25029399  1
  Zn  Zn102  1  0.24748767  -0.00094279  0.24987382  1
  Zn  Zn103  1  0.88391971  0.50391286  0.87092178  1
  Zn  Zn104  1  0.50224426  0.63005694  0.62084409  1
  Zn  Zn105  1  0.37535162  0.62532648  0.74925244  1
  Zn  Zn106  1  -0.00264408  0.75148974  0.78283962  1
  Zn  Zn107  1  0.18888149  0.18554364  0.19035588  1
  Zn  Zn108  1  0.18604505  0.18669430  0.68461060  1
  Zn  Zn109  1  0.18834553  0.68418466  0.18998544  1
  Zn  Zn110  1  0.18317950  0.68859437  0.69150832  1
  Zn  Zn111  1  0.68970672  0.19354296  0.18669380  1
  Zn  Zn112  1  0.68507907  0.18606315  0.68374486  1
  Zn  Zn113  1  0.69018594  0.68988682  0.19151441  1
  Zn  Zn114  1  0.68672104  0.68358192  0.68384468  1
  Zn  Zn115  1  0.31125699  0.30848737  0.31525272  1
  Zn  Zn116  1  0.31373940  0.31034738  0.81085393  1
  Zn  Zn117  1  0.30993119  0.80749270  0.31388473  1
  Zn  Zn118  1  0.31053550  0.82016997  0.80993550  1
  Zn  Zn119  1  0.80703673  0.32018861  0.31301457  1
  Zn  Zn120  1  0.81563466  0.31364028  0.81277967  1
  Zn  Zn121  1  0.81323705  0.81087685  0.31304127  1
  Zn  Zn122  1  0.81086407  0.81582083  0.80912216  1
  Zn  Zn123  1  0.18660656  0.43739255  0.43748666  1
  Zn  Zn124  1  0.18703601  0.43651564  0.93929028  1
  Zn  Zn125  1  0.18053244  0.93707781  0.43776247  1
  Zn  Zn126  1  0.19120163  0.94084318  0.93753022  1
  Zn  Zn127  1  0.68738572  0.43300686  0.43622233  1
  Zn  Zn128  1  0.68995920  0.43637152  0.93312391  1
  Zn  Zn129  1  0.68724401  0.93835926  0.43357088  1
  Zn  Zn130  1  0.68832744  0.94025391  0.93440723  1
  Zn  Zn131  1  0.31170396  0.05770187  0.06106605  1
  Zn  Zn132  1  0.30680520  0.05870318  0.56345357  1
  Zn  Zn133  1  0.31497128  0.55984617  0.06302736  1
  Zn  Zn134  1  0.31963304  0.55858896  0.56602512  1
  Zn  Zn135  1  0.81308353  0.06467968  0.06066698  1
  Zn  Zn136  1  0.81158754  0.06386549  0.55437354  1
  Zn  Zn137  1  0.81689437  0.56822944  0.05512415  1
  Zn  Zn138  1  0.81326535  0.56752260  0.56616452  1
  Zn  Zn139  1  0.43996062  0.43199097  0.18775231  1
  Zn  Zn140  1  0.43745083  0.43614814  0.68614326  1
  Zn  Zn141  1  0.43746677  0.93598748  0.19119606  1
  Zn  Zn142  1  0.43268837  0.93514886  0.69031098  1
  Zn  Zn143  1  0.92947944  0.43592390  0.18664164  1
  Zn  Zn144  1  0.93838002  0.43323017  0.68381455  1
  Zn  Zn145  1  0.93521358  0.93387963  0.18244305  1
  Zn  Zn146  1  0.93982107  0.93484873  0.68647805  1
  Zn  Zn147  1  0.06086423  0.06125361  0.31400226  1
  Zn  Zn148  1  0.06956715  0.06114686  0.81201254  1
  Zn  Zn149  1  0.06547112  0.56264221  0.31432500  1
  Zn  Zn150  1  0.06344654  0.56491536  0.81461555  1
  Zn  Zn151  1  0.56303246  0.06401849  0.31418074  1
  Zn  Zn152  1  0.56396083  0.06337519  0.81532078  1
  Zn  Zn153  1  0.56686117  0.55845894  0.31263775  1
  Zn  Zn154  1  0.56592306  0.56691782  0.81577720  1
  Zn  Zn155  1  0.43764047  0.18689164  0.43486024  1
  Zn  Zn156  1  0.44129774  0.18829364  0.94166227  1
  Zn  Zn157  1  0.43367590  0.68530954  0.43704414  1
  Zn  Zn158  1  0.43626700  0.68634013  0.93654442  1
  Zn  Zn159  1  0.93407579  0.18674933  0.43740883  1
  Zn  Zn160  1  0.94171209  0.19031286  0.93846443  1
  Zn  Zn161  1  0.93561373  0.68911200  0.43791578  1
  Zn  Zn162  1  0.93715812  0.68691576  0.93852628  1
  Zn  Zn163  1  0.06065281  0.31493442  0.06525494  1
  Zn  Zn164  1  0.05928624  0.31282814  0.55903547  1
  Zn  Zn165  1  0.05973208  0.80987056  0.05356929  1
  Zn  Zn166  1  0.06101818  0.81736548  0.56794768  1
  Zn  Zn167  1  0.56425679  0.31111923  0.06837544  1
  Zn  Zn168  1  0.56186286  0.31959695  0.56801335  1
  Zn  Zn169  1  0.56088828  0.81315702  0.06321770  1
  Zn  Zn170  1  0.56259022  0.81347547  0.56128538  1
  O  O171  1  0.11773535  0.12033435  0.11818820  1
  O  O172  1  0.12975025  0.11390366  0.61444101  1
  O  O173  1  0.13493253  0.61225888  0.11704525  1
  O  O174  1  0.11917710  0.61368798  0.62744639  1
  O  O175  1  0.63146127  0.12909285  0.10933412  1
  O  O176  1  0.61230595  0.11508790  0.62070803  1
  O  O177  1  0.61047163  0.63320843  0.12417107  1
  O  O178  1  0.62069860  0.60801445  0.62517967  1
  O  O179  1  0.36861540  0.37917116  0.38689736  1
  O  O180  1  0.38453482  0.37693005  0.88029175  1
  O  O181  1  0.37828094  0.88312234  0.37261494  1
  O  O182  1  0.38109308  0.88214731  0.88238007  1
  O  O183  1  0.88213562  0.37664533  0.38801949  1
  O  O184  1  0.87808840  0.37731731  0.88499310  1
  O  O185  1  0.88667879  0.87991846  0.37274357  1
  O  O186  1  0.87026230  0.88008036  0.88554954  1
  O  O187  1  0.25614288  0.00414641  0.37534721  1
  O  O188  1  0.26174701  -0.00265015  0.86792909  1
  O  O189  1  0.25185236  0.50377399  0.36743516  1
  O  O190  1  0.25543651  0.50434504  0.87134552  1
  O  O191  1  0.75772261  0.01031557  0.37481325  1
  O  O192  1  0.74979512  0.00966675  0.86367079  1
  O  O193  1  0.75140533  0.51519549  0.38055048  1
  O  O194  1  0.74874077  0.50725616  0.86200771  1
  O  O195  1  0.24636827  0.49164627  0.13207416  1
  O  O196  1  0.24277860  0.49128686  0.62955434  1
  O  O197  1  0.24063240  0.99024687  0.12534030  1
  O  O198  1  0.24034214  0.99260016  0.63308291  1
  O  O199  1  0.74964229  0.51083320  0.13018945  1
  O  O200  1  0.74136328  0.50533886  0.63758565  1
  O  O201  1  0.75362995  0.99964357  0.12808278  1
  O  O202  1  0.74101596  1.00415709  0.62750876  1
  O  O203  1  -0.00764001  0.37741186  0.26791393  1
  O  O204  1  0.01228189  0.36648814  0.74659459  1
  O  O205  1  0.00737104  0.86665533  0.25779733  1
  O  O206  1  0.01463627  0.87622042  0.74948786  1
  O  O207  1  0.51648247  0.38306755  0.25572384  1
  O  O208  1  0.49652049  0.36551236  0.76090892  1
  O  O209  1  0.50803082  0.86796360  0.25583387  1
  O  O210  1  0.50576631  0.86921090  0.75444753  1
  O  O211  1  0.48178244  0.11943739  0.25548625  1
  O  O212  1  0.50209148  0.13224204  0.73901595  1
  O  O213  1  0.49559849  0.62581009  0.24395532  1
  O  O214  1  0.49909603  0.63853530  0.75402622  1
  O  O215  1  1.00287231  0.12462154  0.23650661  1
  O  O216  1  1.00608159  0.13658601  0.75071261  1
  O  O217  1  0.99761097  0.63830972  0.25612544  1
  O  O218  1  1.00935584  0.63486418  0.73957890  1
  O  O219  1  0.36630481  0.25243326  0.00151460  1
  O  O220  1  0.38218795  0.25974022  0.51253299  1
  O  O221  1  0.36784178  0.75538938  0.00524154  1
  O  O222  1  0.38177096  0.75505708  0.50462385  1
  O  O223  1  0.86876922  0.25741892  0.00290636  1
  O  O224  1  0.86961773  0.25648823  0.51161018  1
  O  O225  1  0.86585038  0.75828265  0.00510903  1
  O  O226  1  0.86538462  0.74713507  0.50965290  1
  O  O227  1  0.11561686  0.23682769  0.49166228  1
  O  O228  1  0.13062163  0.24547868  0.99353744  1
  O  O229  1  0.11835171  0.75391121  0.48841326  1
  O  O230  1  0.14004704  0.73972229  1.01005060  1
  O  O231  1  0.63913911  0.25347741  0.51052320  1
  O  O232  1  0.63114353  0.24130289  0.99189498  1
  O  O233  1  0.63230519  0.75316643  0.48898380  1
  O  O234  1  0.63419169  0.75429201  0.99341474  1
  O  O235  1  0.49739014  0.25230896  0.13639576  1
  O  O236  1  0.49432398  0.24347516  0.63086499  1
  O  O237  1  0.49359889  0.74142314  0.12916494  1
  O  O238  1  0.50304630  0.75081943  0.63680115  1
  O  O239  1  0.99431169  0.24420630  0.12873912  1
  O  O240  1  0.98698416  0.25336624  0.62961100  1
  O  O241  1  0.99180764  0.75844208  0.13414052  1
  O  O242  1  0.98829580  0.74325558  0.61848254  1
  O  O243  1  0.00327911  0.25707732  0.37443163  1
  O  O244  1  0.01064713  0.25300363  0.86538887  1
  O  O245  1  0.00560177  0.75575252  0.36853266  1
  O  O246  1  0.00537208  0.75752542  0.89246685  1
  O  O247  1  0.49726298  0.24753671  0.36437472  1
  O  O248  1  0.50526569  0.25480084  0.86818121  1
  O  O249  1  0.50791696  0.75104822  0.37048816  1
  O  O250  1  0.50415565  0.75702076  0.86929255  1
  O  O251  1  0.23681018  0.11649248  0.48934240  1
  O  O252  1  0.23811559  0.13402268  1.00879226  1
  O  O253  1  0.25486374  0.61280114  0.48689129  1
  O  O254  1  0.24791863  0.63060427  0.99480738  1
  O  O255  1  0.74570124  0.13506524  0.49153883  1
  O  O256  1  0.73959348  0.13233279  0.98887871  1
  O  O257  1  0.75199086  0.63439511  0.48929460  1
  O  O258  1  0.74678830  0.63795328  0.99225715  1
  O  O259  1  0.25581384  0.36628461  0.00651944  1
  O  O260  1  0.25919028  0.38113303  0.51185308  1
  O  O261  1  0.25393847  0.86665787  0.00464702  1
  O  O262  1  0.24472919  0.88221163  0.51633582  1
  O  O263  1  0.75735760  0.36243968  -0.00922881  1
  O  O264  1  0.75967218  0.36748437  0.49958658  1
  O  O265  1  0.75615096  0.86739021  -0.00313723  1
  O  O266  1  0.74542345  0.86352036  0.50111337  1
  O  O267  1  0.13803409  0.50447737  0.24291407  1
  O  O268  1  0.12931905  0.49074337  0.74033393  1
  O  O269  1  0.12205921  0.98658731  0.24557503  1
  O  O270  1  0.12998503  0.99305724  0.74303785  1
  O  O271  1  0.63937950  0.49946507  0.24688016  1
  O  O272  1  0.62833667  0.49931553  0.74251995  1
  O  O273  1  0.62441296  0.98369408  0.25756901  1
  O  O274  1  0.63074718  0.99759673  0.74060154  1
  O  O275  1  0.37227414  0.00569415  0.26134590  1
  O  O276  1  0.36599379  -0.00407078  0.75979840  1
  O  O277  1  0.36740203  0.50190255  0.25578565  1
  O  O278  1  0.36804958  0.49689587  0.75674849  1
  O  O279  1  0.87454735  -0.00680846  0.26283046  1
  O  O280  1  0.86162024  -0.00462501  0.74646587  1
  O  O281  1  0.86077985  0.50268624  0.25074641  1
  O  O282  1  0.86431111  0.49985420  0.74692400  1
  O  O283  1  0.11480720  0.36331993  0.38701972  1
  O  O284  1  0.12775636  0.36558810  0.86368358  1
  O  O285  1  0.11823122  0.86666616  0.36622172  1
  O  O286  1  0.13030716  0.88158417  0.86200590  1
  O  O287  1  0.62967747  0.38302863  0.35690284  1
  O  O288  1  0.61525943  0.36125700  0.88084613  1
  O  O289  1  0.61893022  0.86599628  0.36732321  1
  O  O290  1  0.61952220  0.87150263  0.86792747  1
  O  O291  1  0.36506691  0.12006203  0.14192598  1
  O  O292  1  0.38199201  0.13284956  0.61656955  1
  O  O293  1  0.38374270  0.62895782  0.12996660  1
  O  O294  1  0.38189029  0.62470784  0.63289280  1
  O  O295  1  0.88676805  0.13824132  0.11290745  1
  O  O296  1  0.87433533  0.13761184  0.62029271  1
  O  O297  1  0.87311507  0.64351226  0.12254755  1
  O  O298  1  0.88464025  0.63650567  0.62603286  1
  O  O299  1  0.24865799  0.25650339  0.11578364  1
  O  O300  1  0.25873834  0.25915146  0.63090907  1
  O  O301  1  0.25683121  0.75278625  0.11833424  1
  O  O302  1  0.24655716  0.76564190  0.63182368  1
  O  O303  1  0.76044201  0.24236807  0.10887251  1
  O  O304  1  0.76093089  0.25002381  0.62043555  1
  O  O305  1  0.75484704  0.75441269  0.11512941  1
  O  O306  1  0.76181530  0.74797453  0.61997332  1
  O  O307  1  0.23990407  0.23854522  0.37548978  1
  O  O308  1  0.24167949  0.25556883  0.88618850  1
  O  O309  1  0.23965660  0.73837812  0.37059248  1
  O  O310  1  0.25864503  0.74122915  0.88584873  1
  O  O311  1  0.76067189  0.23841985  0.38432643  1
  O  O312  1  0.74334137  0.24475006  0.87736542  1
  O  O313  1  0.74614277  0.74274202  0.38163468  1
  O  O314  1  0.74639622  0.74585043  0.87942312  1
  O  O315  1  0.01090353  0.12146118  0.00887531  1
  O  O316  1  0.00845241  0.11242385  0.49184625  1
  O  O317  1  0.01595413  0.62144832  0.00057360  1
  O  O318  1  -0.00565208  0.61297247  0.50834972  1
  O  O319  1  0.51563126  0.11979053  -0.00329197  1
  O  O320  1  0.49922932  0.11402801  0.50816779  1
  O  O321  1  0.50108115  0.61644979  0.00590178  1
  O  O322  1  0.49475714  0.60747198  0.50141967  1
  O  O323  1  0.49199816  0.38295890  0.49846034  1
  O  O324  1  0.49665141  0.37948933  0.99127185  1
  O  O325  1  0.49819901  0.88638775  0.49469630  1
  O  O326  1  0.49648097  0.88332045  0.99501604  1
  O  O327  1  0.99114474  0.38495548  0.49528066  1
  O  O328  1  0.99115343  0.37517577  0.99641292  1
  O  O329  1  1.00880553  0.88610209  0.48755099  1
  O  O330  1  0.99221743  0.88891006  1.00523586  1
  O  O331  1  0.49579933  0.49992589  0.38649530  1
  O  O332  1  0.49722906  0.49222600  0.87977747  1
  O  O333  1  0.49075270  0.99592418  0.38308560  1
  O  O334  1  0.49371914  0.99582421  0.88074519  1
  O  O335  1  1.00064631  0.49484610  0.38429622  1
  O  O336  1  1.00010436  0.49588991  0.87760151  1
  O  O337  1  0.99358610  0.99237202  0.37989676  1
  O  O338  1  0.99845490  1.01299066  0.88846606  1
  O  O339  1  0.00272874  0.00783628  0.11601094  1
  O  O340  1  0.01019047  -0.00748256  0.61470639  1
  O  O341  1  0.01562451  0.49040533  0.12815479  1
  O  O342  1  0.00593718  0.50786518  0.62174817  1
  O  O343  1  0.49454658  -0.00395151  0.11045684  1
  O  O344  1  0.50184888  0.00462435  0.62058491  1
  O  O345  1  0.49262611  0.50854192  0.11392312  1
  O  O346  1  0.50983774  0.49647288  0.61762064  1
  O  O347  1  0.25701114  0.38370408  0.24232891  1
  O  O348  1  0.24140377  0.37759423  0.74082512  1
  O  O349  1  0.23841168  0.87262919  0.24465952  1
  O  O350  1  0.23888759  0.88474109  0.74132724  1
  O  O351  1  0.74465644  0.39526376  0.25084080  1
  O  O352  1  0.75117931  0.39122657  0.75177020  1
  O  O353  1  0.73648524  0.87420954  0.25296900  1
  O  O354  1  0.74258513  0.88678968  0.74426516  1
  O  O355  1  0.25492720  0.11840029  0.26283736  1
  O  O356  1  0.24281921  0.11012887  0.74684902  1
  O  O357  1  0.25744580  0.61351482  0.25520233  1
  O  O358  1  0.24771361  0.61856251  0.75994420  1
  O  O359  1  0.74664522  0.12859504  0.26407049  1
  O  O360  1  0.74275006  0.11703358  0.75690235  1
  O  O361  1  0.75131447  0.61542855  0.25846593  1
  O  O362  1  0.74555970  0.61454666  0.75861289  1
  O  O363  1  0.36486299  0.11587849  0.37121048  1
  O  O364  1  0.38075248  0.11517953  0.87815134  1
  O  O365  1  0.36711407  0.61643245  0.36864399  1
  O  O366  1  0.36429980  0.61713311  0.87406202  1
  O  O367  1  0.86274764  0.11541970  0.37909170  1
  O  O368  1  0.86130229  0.12634232  0.88122415  1
  O  O369  1  0.86140161  0.62636395  0.37048056  1
  O  O370  1  0.86003211  0.62124535  0.88355777  1
  O  O371  1  0.13976399  0.38257745  0.11913015  1
  O  O372  1  0.13117392  0.37820682  0.62985765  1
  O  O373  1  0.12666246  0.87758639  0.13129327  1
  O  O374  1  0.13263833  0.88507208  0.63188069  1
  O  O375  1  0.62562228  0.38001668  0.13791556  1
  O  O376  1  0.63069960  0.39400101  0.62112688  1
  O  O377  1  0.62506489  0.86761108  0.14225708  1
  O  O378  1  0.62482411  0.88876343  0.62865457  1
  O  O379  1  0.12096708  0.24467331  0.26582797  1
  O  O380  1  0.12025236  0.25468051  0.75387209  1
  O  O381  1  0.11732393  0.75687692  0.25155850  1
  O  O382  1  0.12190465  0.76617907  0.74885278  1
  O  O383  1  0.63392189  0.26908001  0.24857793  1
  O  O384  1  0.61314059  0.24598506  0.75706992  1
  O  O385  1  0.62132279  0.75741966  0.26153747  1
  O  O386  1  0.61937700  0.75623581  0.75401413  1
  O  O387  1  0.36768432  0.23159301  0.24990647  1
  O  O388  1  0.38570215  0.25387380  0.73785916  1
  O  O389  1  0.38179736  0.74331188  0.24606839  1
  O  O390  1  0.38558758  0.75352408  0.74756152  1
  O  O391  1  0.87097504  0.26033254  0.23399229  1
  O  O392  1  0.88203976  0.25497360  0.73621522  1
  O  O393  1  0.88247282  0.75229737  0.24101825  1
  O  O394  1  0.88000930  0.75463512  0.73819468  1
  O  O395  1  0.38561018  0.48787541  0.49747727  1
  O  O396  1  0.38457028  0.49300007  0.99334780  1
  O  O397  1  0.38066044  0.99732251  0.49149130  1
  O  O398  1  0.38205554  0.99661402  0.99218633  1
  O  O399  1  0.88223241  0.49332346  0.50251834  1
  O  O400  1  0.87641315  0.48950394  0.99926009  1
  O  O401  1  0.88531922  1.00164440  0.49060270  1
  O  O402  1  0.88287841  0.99362187  0.99655631  1
  O  O403  1  0.11951371  0.00744721  0.00384747  1
  O  O404  1  0.11521716  0.00736252  0.50560821  1
  O  O405  1  0.12778776  0.50608738  0.01017932  1
  O  O406  1  0.11395361  0.49130419  0.51232894  1
  O  O407  1  0.61911771  0.01352478  -0.00631519  1
  O  O408  1  0.61378397  -0.00069525  0.50713589  1
  O  O409  1  0.61231684  0.49910398  -0.00690030  1
  O  O410  1  0.61237949  0.49650420  0.50286508  1
  O  O411  1  0.36334612  0.37337860  0.11896035  1
  O  O412  1  0.36811416  0.36790384  0.61860702  1
  O  O413  1  0.36925316  0.86957854  0.12029907  1
  O  O414  1  0.35692541  0.87785502  0.62450408  1
  O  O415  1  0.87914509  0.36442450  0.11052217  1
  O  O416  1  0.87010714  0.36924847  0.61478632  1
  O  O417  1  0.87107467  0.86575696  0.11242673  1
  O  O418  1  0.87663533  0.86000777  0.62254722  1
  O  O419  1  0.12902477  0.12908251  0.38127168  1
  O  O420  1  0.12299006  0.13628068  0.88640376  1
  O  O421  1  0.13438798  0.63390545  0.37163838  1
  O  O422  1  0.14071863  0.61744039  0.88728015  1
  O  O423  1  0.64130287  0.11885069  0.37873289  1
  O  O424  1  0.63275277  0.13600002  0.87969603  1
  O  O425  1  0.63885809  0.63463582  0.36917693  1
  O  O426  1  0.63621152  0.63352714  0.87970646  1
