# generated using pymatgen
data_V85Zn86O256
_symmetry_space_group_name_H-M   'P 1'
_cell_length_a   16.94353269
_cell_length_b   16.94703487
_cell_length_c   16.94990311
_cell_angle_alpha   89.94325639
_cell_angle_beta   89.97239713
_cell_angle_gamma   90.02530910
_symmetry_Int_Tables_number   1
_chemical_formula_structural   V85Zn86O256
_chemical_formula_sum   'V85 Zn86 O256'
_cell_volume   4867.03648722
_cell_formula_units_Z   1
loop_
 _symmetry_equiv_pos_site_id
 _symmetry_equiv_pos_as_xyz
  1  'x, y, z'
loop_
 _atom_site_type_symbol
 _atom_site_label
 _atom_site_symmetry_multiplicity
 _atom_site_fract_x
 _atom_site_fract_y
 _atom_site_fract_z
 _atom_site_occupancy
  V  V0  1  -0.00343254  0.74687362  0.24998547  1
  V  V1  1  0.37435079  0.25490491  0.11924882  1
  V  V2  1  0.50357600  0.36858040  0.87238879  1
  V  V3  1  0.12459290  0.12798596  -0.01372806  1
  V  V4  1  0.74744117  0.87104633  0.12297466  1
  V  V5  1  0.00054648  0.75007754  0.75014558  1
  V  V6  1  -0.00028941  0.61715733  0.62150361  1
  V  V7  1  0.36692960  0.00058041  0.37059772  1
  V  V8  1  0.12892149  -0.01012410  0.12333328  1
  V  V9  1  0.74927079  0.62917449  0.88477184  1
  V  V10  1  -0.00226327  0.62365408  0.12769522  1
  V  V11  1  0.00545438  0.25229388  0.26383202  1
  V  V12  1  0.37962279  0.24832730  0.63138730  1
  V  V13  1  0.13342700  0.12837591  0.48797123  1
  V  V14  1  0.74432597  0.37595369  0.13463979  1
  V  V15  1  0.24836500  0.87288120  0.62665993  1
  V  V16  1  0.62295194  0.87451084  0.74859841  1
  V  V17  1  0.74807568  -0.00000130  0.24894548  1
  V  V18  1  0.62210168  -0.00175431  0.62171675  1
  V  V19  1  0.38184115  0.49822036  0.37616611  1
  V  V20  1  0.87355445  -0.00182647  0.37251246  1
  V  V21  1  0.87998190  0.37819656  0.00572797  1
  V  V22  1  0.49189789  0.49582792  0.00090186  1
  V  V23  1  0.49892542  0.86740423  0.36742350  1
  V  V24  1  0.24826475  0.62393789  0.88091397  1
  V  V25  1  0.49868974  0.63474106  0.12782426  1
  V  V26  1  0.24602837  -0.01927341  0.24185519  1
  V  V27  1  0.87353815  0.12255934  0.74669353  1
  V  V28  1  0.89596703  0.37760319  0.49591533  1
  V  V29  1  -0.00245710  0.00085704  0.00177271  1
  V  V30  1  0.50745131  0.50018024  0.50048536  1
  V  V31  1  0.37908598  0.37642182  0.50019947  1
  V  V32  1  0.25074100  0.62566186  0.37582954  1
  V  V33  1  0.12297799  0.74441572  0.88052019  1
  V  V34  1  0.12581138  0.50337284  0.12377601  1
  V  V35  1  0.86809698  0.00031236  0.87456359  1
  V  V36  1  0.25003126  0.37174239  0.62550294  1
  V  V37  1  0.24887095  0.74897005  0.50201249  1
  V  V38  1  0.25278985  0.49881817  0.74970626  1
  V  V39  1  0.25573241  0.01020893  0.75382889  1
  V  V40  1  0.62607162  0.13061341  -0.00692347  1
  V  V41  1  0.49928362  0.74870399  0.75147238  1
  V  V42  1  0.36248185  0.12511973  0.24758295  1
  V  V43  1  0.00209507  0.87560880  0.36906825  1
  V  V44  1  0.12456439  0.75320899  0.37069920  1
  V  V45  1  0.36722560  0.87801138  0.00278961  1
  V  V46  1  0.11743904  0.36987429  0.76105469  1
  V  V47  1  0.87797277  0.24909278  0.12805578  1
  V  V48  1  0.49611105  0.12721647  0.62534758  1
  V  V49  1  0.74742133  0.87172254  0.61990732  1
  V  V50  1  0.50528752  0.25749491  0.25890275  1
  V  V51  1  0.37410042  0.74894387  0.62777185  1
  V  V52  1  0.25149963  0.49978849  0.25019258  1
  V  V53  1  0.86950158  0.74754485  0.62098228  1
  V  V54  1  0.25299846  0.37402203  0.11942638  1
  V  V55  1  0.63209655  0.74899354  0.37194507  1
  V  V56  1  0.62486081  0.00058629  0.12519835  1
  V  V57  1  0.86922914  0.74507659  0.12726514  1
  V  V58  1  0.87685405  0.50164226  0.88053773  1
  V  V59  1  0.12408505  -0.00216724  0.62454056  1
  V  V60  1  0.74687721  0.12938611  0.37307634  1
  V  V61  1  0.12188222  0.61697564  0.50102608  1
  V  V62  1  0.37427995  0.87423601  0.49965016  1
  V  V63  1  0.63510795  0.63135566  0.50730242  1
  V  V64  1  0.86926129  0.86920989  -0.00046751  1
  V  V65  1  0.49763216  0.00131314  0.49581898  1
  V  V66  1  0.50041022  0.12821634  0.12488508  1
  V  V67  1  0.62759750  0.75062326  0.88135351  1
  V  V68  1  0.00328939  0.50243291  0.00041893  1
  V  V69  1  0.38087876  0.63290349  0.25086649  1
  V  V70  1  0.62327182  0.49920653  0.13244504  1
  V  V71  1  0.50139989  0.62028778  0.62713660  1
  V  V72  1  0.62127077  0.13091690  0.49200813  1
  V  V73  1  0.74688960  0.25335743  -0.00538231  1
  V  V74  1  0.24595680  0.24774299  -0.01268583  1
  V  V75  1  0.75009284  0.26072179  0.49606688  1
  V  V76  1  0.87120084  0.87106059  0.49713652  1
  V  V77  1  0.87356352  0.62255761  0.75069205  1
  V  V78  1  0.24752548  0.75254883  0.00670818  1
  V  V79  1  0.49613492  0.00177457  -0.00490351  1
  V  V80  1  0.89075900  0.50226277  0.37413721  1
  V  V81  1  0.00064012  0.12614616  0.62256308  1
  V  V82  1  0.12599763  0.36973078  0.26162545  1
  V  V83  1  0.74539184  0.48587536  0.74588539  1
  V  V84  1  0.87263114  0.25263168  0.62171952  1
  Zn  Zn85  1  0.67151827  0.32876813  0.80201067  1
  Zn  Zn86  1  0.37157162  0.75857354  0.13078506  1
  Zn  Zn87  1  0.49492362  0.87424926  0.87351162  1
  Zn  Zn88  1  0.11849905  0.49260679  0.62167961  1
  Zn  Zn89  1  0.37625023  0.62329594  0.75364825  1
  Zn  Zn90  1  0.37145365  0.49657949  0.88173803  1
  Zn  Zn91  1  0.62480504  0.63039024  0.00582776  1
  Zn  Zn92  1  0.61722700  0.86899834  0.24479085  1
  Zn  Zn93  1  -0.00278692  0.87221671  0.87442472  1
  Zn  Zn94  1  0.00261994  0.12632560  0.12601696  1
  Zn  Zn95  1  0.62268631  0.37341900  0.28587361  1
  Zn  Zn96  1  0.74151580  0.13696703  0.86324616  1
  Zn  Zn97  1  0.02379608  0.23362242  0.78547258  1
  Zn  Zn98  1  0.00117322  -0.00040737  0.49606692  1
  Zn  Zn99  1  0.74507047  -0.00097567  0.74898089  1
  Zn  Zn100  1  0.12624928  0.87282073  0.75193540  1
  Zn  Zn101  1  0.51287019  0.24997334  0.75125816  1
  Zn  Zn102  1  0.24213432  0.25424264  0.47577518  1
  Zn  Zn103  1  0.87770108  0.12474824  0.25078100  1
  Zn  Zn104  1  0.36450079  0.01496718  0.87648038  1
  Zn  Zn105  1  0.76169798  0.62758478  0.37212204  1
  Zn  Zn106  1  0.75716696  0.50719503  0.25675287  1
  Zn  Zn107  1  0.18127589  0.18344044  0.17744776  1
  Zn  Zn108  1  0.18883959  0.18924257  0.68411322  1
  Zn  Zn109  1  0.18687544  0.68687467  0.18999237  1
  Zn  Zn110  1  0.18573924  0.68371873  0.68992644  1
  Zn  Zn111  1  0.68644859  0.18945669  0.18753416  1
  Zn  Zn112  1  0.68731225  0.18621852  0.67764838  1
  Zn  Zn113  1  0.68617276  0.68433650  0.19347447  1
  Zn  Zn114  1  0.68876459  0.68257216  0.69563947  1
  Zn  Zn115  1  0.31438394  0.31454622  0.30652828  1
  Zn  Zn116  1  0.32286203  0.31822494  0.81258611  1
  Zn  Zn117  1  0.31091643  0.81277825  0.31414889  1
  Zn  Zn118  1  0.31248158  0.81804258  0.81615939  1
  Zn  Zn119  1  0.81740991  0.31772866  0.31624737  1
  Zn  Zn120  1  0.85282935  0.30561581  0.82275737  1
  Zn  Zn121  1  0.80962007  0.81100979  0.30842941  1
  Zn  Zn122  1  0.80982656  0.81232012  0.80902659  1
  Zn  Zn123  1  0.19242438  0.43860046  0.43827164  1
  Zn  Zn124  1  0.18600030  0.43497005  0.93761748  1
  Zn  Zn125  1  0.18758912  0.93941573  0.43761594  1
  Zn  Zn126  1  0.18262349  0.93376473  0.93448692  1
  Zn  Zn127  1  0.69355506  0.44311815  0.43816251  1
  Zn  Zn128  1  0.68690524  0.44472379  0.94640269  1
  Zn  Zn129  1  0.68559840  0.93785240  0.43610122  1
  Zn  Zn130  1  0.68350724  0.93825072  0.93764448  1
  Zn  Zn131  1  0.30793010  0.06683401  0.06152187  1
  Zn  Zn132  1  0.31162788  0.06194558  0.56392433  1
  Zn  Zn133  1  0.31230083  0.56818721  0.06470855  1
  Zn  Zn134  1  0.31319882  0.56190769  0.56508859  1
  Zn  Zn135  1  0.80988022  0.06484501  0.06204999  1
  Zn  Zn136  1  0.80928481  0.05968917  0.55783315  1
  Zn  Zn137  1  0.80972668  0.56303125  0.06861730  1
  Zn  Zn138  1  0.81386620  0.55358513  0.56128552  1
  Zn  Zn139  1  0.43832596  0.43975201  0.18892139  1
  Zn  Zn140  1  0.44489431  0.43359310  0.68937433  1
  Zn  Zn141  1  0.43561619  0.93894723  0.18476393  1
  Zn  Zn142  1  0.43681513  0.93777012  0.68683937  1
  Zn  Zn143  1  0.94036247  0.43436023  0.19278340  1
  Zn  Zn144  1  0.93209797  0.43403056  0.68952071  1
  Zn  Zn145  1  0.93735427  0.93564892  0.18666970  1
  Zn  Zn146  1  0.93654104  0.93650352  0.68530513  1
  Zn  Zn147  1  0.06470592  0.06238568  0.30601293  1
  Zn  Zn148  1  0.05983614  0.05503152  0.81057186  1
  Zn  Zn149  1  0.06423987  0.56216022  0.31084466  1
  Zn  Zn150  1  0.06494267  0.55962230  0.81013240  1
  Zn  Zn151  1  0.55793891  0.06130651  0.31102098  1
  Zn  Zn152  1  0.55629183  0.06569207  0.81071192  1
  Zn  Zn153  1  0.56641650  0.56589178  0.31393449  1
  Zn  Zn154  1  0.56764149  0.55975002  0.81425221  1
  Zn  Zn155  1  0.40603858  0.20243554  0.42149424  1
  Zn  Zn156  1  0.43168404  0.18920551  0.93412770  1
  Zn  Zn157  1  0.44054762  0.68629292  0.43969523  1
  Zn  Zn158  1  0.43504467  0.68668189  0.93951422  1
  Zn  Zn159  1  0.93757662  0.18401795  0.43894623  1
  Zn  Zn160  1  0.93595292  0.18581800  0.93868512  1
  Zn  Zn161  1  0.93970227  0.68687284  0.43919583  1
  Zn  Zn162  1  0.93831715  0.68431678  0.94208403  1
  Zn  Zn163  1  0.06632270  0.31417991  0.06552957  1
  Zn  Zn164  1  0.06678651  0.30574604  0.56523654  1
  Zn  Zn165  1  0.05894327  0.81087239  0.06008895  1
  Zn  Zn166  1  0.05975344  0.80922798  0.55888431  1
  Zn  Zn167  1  0.56253624  0.31533905  0.06169087  1
  Zn  Zn168  1  0.56699202  0.31500741  0.55697496  1
  Zn  Zn169  1  0.55787896  0.81628210  0.05954441  1
  Zn  Zn170  1  0.55936067  0.80942833  0.55887191  1
  O  O171  1  0.12073853  0.11346199  0.10813859  1
  O  O172  1  0.11652195  0.11687229  0.61941794  1
  O  O173  1  0.11671083  0.61072750  0.13261913  1
  O  O174  1  0.11707447  0.62309071  0.61774504  1
  O  O175  1  0.61796605  0.12133336  0.11673654  1
  O  O176  1  0.61792142  0.11701683  0.60987004  1
  O  O177  1  0.61536305  0.61848671  0.12797428  1
  O  O178  1  0.61688023  0.63446676  0.61531658  1
  O  O179  1  0.36914434  0.39186438  0.38426198  1
  O  O180  1  0.39448925  0.38262637  0.87738186  1
  O  O181  1  0.38064936  0.88022972  0.37883914  1
  O  O182  1  0.37616528  0.88540708  0.88756058  1
  O  O183  1  0.87979407  0.38167066  0.38957307  1
  O  O184  1  0.86993203  0.39411631  0.89652324  1
  O  O185  1  0.88033199  0.87564749  0.37974144  1
  O  O186  1  0.87170261  0.87992012  0.88287465  1
  O  O187  1  0.25990551  -0.00923620  0.36204966  1
  O  O188  1  0.24326202  -0.00367145  0.85755292  1
  O  O189  1  0.26003557  0.50808059  0.37049075  1
  O  O190  1  0.24849130  0.50635906  0.87067345  1
  O  O191  1  0.75404649  0.00564302  0.36885186  1
  O  O192  1  0.75960669  0.00136207  0.87398821  1
  O  O193  1  0.76659846  0.50367577  0.37739074  1
  O  O194  1  0.76062008  0.50961579  0.87572184  1
  O  O195  1  0.24431461  0.49487907  0.12779152  1
  O  O196  1  0.24958656  0.48979232  0.63237798  1
  O  O197  1  0.24127585  1.00391369  0.13006204  1
  O  O198  1  0.24172130  0.99320394  0.63141549  1
  O  O199  1  0.74165480  0.49287232  0.12990977  1
  O  O200  1  0.76302450  0.49839469  0.64763505  1
  O  O201  1  0.74530277  0.99250670  0.12872191  1
  O  O202  1  0.74205012  0.98811320  0.62275036  1
  O  O203  1  0.01176948  0.36139255  0.24648615  1
  O  O204  1  0.01727674  0.37715978  0.74202780  1
  O  O205  1  -0.00377592  0.86380863  0.26032529  1
  O  O206  1  -0.00238573  0.86053344  0.74987640  1
  O  O207  1  0.49813747  0.36080225  0.24678138  1
  O  O208  1  0.50748580  0.37903837  0.76778974  1
  O  O209  1  0.49903716  0.88016594  0.26120520  1
  O  O210  1  0.50556943  0.86808730  0.74998593  1
  O  O211  1  0.49485530  0.13051881  0.23658939  1
  O  O212  1  0.50600149  0.12491546  0.72817943  1
  O  O213  1  0.48977536  0.61919119  0.24187832  1
  O  O214  1  0.50193244  0.62715446  0.74201947  1
  O  O215  1  0.99926322  0.13883235  0.24575037  1
  O  O216  1  0.99184346  0.12444015  0.74166755  1
  O  O217  1  1.00195103  0.63492232  0.24002262  1
  O  O218  1  0.99496209  0.63221328  0.74275515  1
  O  O219  1  0.36056964  0.24308857  0.01180799  1
  O  O220  1  0.38133579  0.26602286  0.51521829  1
  O  O221  1  0.36473346  0.75984661  -0.00012804  1
  O  O222  1  0.36835539  0.75379106  0.50558589  1
  O  O223  1  0.86689812  0.25916321  0.01154069  1
  O  O224  1  0.87226466  0.25806167  0.50195824  1
  O  O225  1  0.88146128  0.76019529  0.01146349  1
  O  O226  1  0.87974324  0.75881756  0.51030251  1
  O  O227  1  0.12905232  0.23459454  0.50056336  1
  O  O228  1  0.13612959  0.24384338  1.00503818  1
  O  O229  1  0.12901444  0.74052589  0.49087631  1
  O  O230  1  0.13050424  0.75332723  0.98974817  1
  O  O231  1  0.63486198  0.23723995  0.50301539  1
  O  O232  1  0.63601572  0.24252533  1.00886651  1
  O  O233  1  0.62246689  0.73866786  0.49233539  1
  O  O234  1  0.62027213  0.75150557  0.98584190  1
  O  O235  1  0.49209934  0.24422906  0.12394995  1
  O  O236  1  0.49616511  0.24136798  0.62105366  1
  O  O237  1  0.49770944  0.73841561  0.11995346  1
  O  O238  1  0.49410410  0.74140278  0.63053737  1
  O  O239  1  0.98835038  0.25089370  0.12676122  1
  O  O240  1  0.99041234  0.23496645  0.62195435  1
  O  O241  1  0.99437668  0.74356263  0.13157510  1
  O  O242  1  0.99097616  0.74238556  0.63208828  1
  O  O243  1  -0.00180484  0.24703689  0.36215648  1
  O  O244  1  -0.04391613  0.26527926  0.86490037  1
  O  O245  1  0.00435322  0.75446217  0.36809400  1
  O  O246  1  0.00477502  0.74441229  0.86739029  1
  O  O247  1  0.49405913  0.24170941  0.35648002  1
  O  O248  1  0.50104232  0.26602474  0.88081627  1
  O  O249  1  0.50789832  0.76080346  0.38286653  1
  O  O250  1  0.50791064  0.74937923  0.86879152  1
  O  O251  1  0.23613182  0.12411915  0.50422514  1
  O  O252  1  0.24072813  0.13846472  0.99855036  1
  O  O253  1  0.24302451  0.63002358  0.49648451  1
  O  O254  1  0.25374148  0.63401163  0.98923347  1
  O  O255  1  0.74212572  0.12764293  0.48909990  1
  O  O256  1  0.74238553  0.13558303  0.99875694  1
  O  O257  1  0.73647997  0.62073257  0.50431168  1
  O  O258  1  0.74791801  0.62179851  0.98962254  1
  O  O259  1  0.24172402  0.36319681  0.01142144  1
  O  O260  1  0.25926100  0.37445398  0.50881682  1
  O  O261  1  0.25554173  0.86580332  -0.00596590  1
  O  O262  1  0.25438540  0.86894033  0.50535964  1
  O  O263  1  0.75808146  0.37168198  0.01311164  1
  O  O264  1  0.76069067  0.36217548  0.49965150  1
  O  O265  1  0.75822956  0.88184689  0.01132261  1
  O  O266  1  0.75877299  0.87677829  0.50791615  1
  O  O267  1  0.13101386  0.49141772  0.24406596  1
  O  O268  1  0.13497191  0.48948963  0.74610264  1
  O  O269  1  0.13561695  1.00578099  0.23713328  1
  O  O270  1  0.12934123  0.99526407  0.73848349  1
  O  O271  1  0.61842493  0.49167292  0.24025790  1
  O  O272  1  0.64621693  0.49658183  0.75936704  1
  O  O273  1  0.62932125  0.99785356  0.24182446  1
  O  O274  1  0.62215062  0.99290867  0.74085078  1
  O  O275  1  0.36396729  0.00536382  0.24930425  1
  O  O276  1  0.35840852  -0.00572314  0.74754164  1
  O  O277  1  0.37147824  0.50805484  0.25796017  1
  O  O278  1  0.36198366  0.49805100  0.75163833  1
  O  O279  1  0.86764693  0.00061150  0.25432886  1
  O  O280  1  0.87530591  0.00499974  0.75683483  1
  O  O281  1  0.87732451  0.48975871  0.26919830  1
  O  O282  1  0.87331508  0.50291631  0.76477834  1
  O  O283  1  0.14044794  0.37253830  0.36107039  1
  O  O284  1  0.12451951  0.37724402  0.86059254  1
  O  O285  1  0.11437250  0.86408792  0.38409836  1
  O  O286  1  0.11728738  0.85999600  0.87121115  1
  O  O287  1  0.61893507  0.37515755  0.39565005  1
  O  O288  1  0.61351987  0.38096916  0.88636430  1
  O  O289  1  0.61801231  0.86368853  0.37723255  1
  O  O290  1  0.62471957  0.86736792  0.86766737  1
  O  O291  1  0.38209185  0.13233951  0.12966630  1
  O  O292  1  0.38420599  0.13581967  0.61386460  1
  O  O293  1  0.38172865  0.62782100  0.13552445  1
  O  O294  1  0.38346169  0.63136063  0.62801389  1
  O  O295  1  0.87330639  0.13759468  0.12778845  1
  O  O296  1  0.88277369  0.12342107  0.62689225  1
  O  O297  1  0.88260456  0.63558737  0.12146633  1
  O  O298  1  0.87995021  0.63114323  0.62698178  1
  O  O299  1  0.25659739  0.25764346  0.12154463  1
  O  O300  1  0.26121174  0.26075013  0.62645121  1
  O  O301  1  0.24839222  0.74136188  0.11097998  1
  O  O302  1  0.25291772  0.75236784  0.62148527  1
  O  O303  1  0.75755076  0.25822784  0.12101360  1
  O  O304  1  0.76428095  0.23665437  0.60677228  1
  O  O305  1  0.75680221  0.75930180  0.13169889  1
  O  O306  1  0.76086595  0.75640387  0.63284439  1
  O  O307  1  0.29946055  0.23653847  0.38252399  1
  O  O308  1  0.25705316  0.26087038  0.89012522  1
  O  O309  1  0.24156019  0.74630304  0.38051656  1
  O  O310  1  0.24180262  0.74305806  0.88069683  1
  O  O311  1  0.75859934  0.23759863  0.38108746  1
  O  O312  1  0.75852821  0.25576024  0.88920260  1
  O  O313  1  0.73700589  0.75119228  0.37691599  1
  O  O314  1  0.74093009  0.74026826  0.86659090  1
  O  O315  1  0.00131365  0.11504509  0.00133006  1
  O  O316  1  0.00962113  0.12076077  0.50675635  1
  O  O317  1  -0.00167253  0.61497494  0.01547488  1
  O  O318  1  0.01112116  0.63255078  0.51135010  1
  O  O319  1  0.50578142  0.12245596  0.00894663  1
  O  O320  1  0.50728984  0.11931263  0.50198734  1
  O  O321  1  0.50013505  0.61639080  0.01069738  1
  O  O322  1  0.50575669  0.61992219  0.51062874  1
  O  O323  1  0.48716003  0.38871504  0.50551013  1
  O  O324  1  0.50253525  0.39087758  0.99804366  1
  O  O325  1  0.49247313  0.88131091  0.49297050  1
  O  O326  1  0.49096356  0.88765091  0.99842567  1
  O  O327  1  0.99502961  0.36911406  0.50125336  1
  O  O328  1  0.98900889  0.38797878  1.01420913  1
  O  O329  1  0.98954404  0.87418622  0.48817025  1
  O  O330  1  0.98616751  0.88406732  0.99935103  1
  O  O331  1  0.48967501  0.51190853  0.38609443  1
  O  O332  1  0.50192354  0.50161434  0.89205630  1
  O  O333  1  0.49177152  0.98816201  0.37759619  1
  O  O334  1  0.50354107  0.99867669  0.88927150  1
  O  O335  1  0.99191272  0.50337653  0.37583054  1
  O  O336  1  0.99019936  0.51309469  0.88874564  1
  O  O337  1  0.99499236  0.98941177  0.37103954  1
  O  O338  1  0.98681130  0.99586574  0.88348064  1
  O  O339  1  0.00319191  0.00113803  0.11524297  1
  O  O340  1  0.00694883  0.00633521  0.62293793  1
  O  O341  1  0.00513005  0.50593974  0.12345985  1
  O  O342  1  -0.00239919  0.51398632  0.63232355  1
  O  O343  1  0.50309306  0.01036207  0.11680330  1
  O  O344  1  0.50100505  0.00573642  0.61510900  1
  O  O345  1  0.50405240  0.50638501  0.11833344  1
  O  O346  1  0.49352186  0.51237806  0.61685797  1
  O  O347  1  0.24625599  0.37943533  0.23953320  1
  O  O348  1  0.24326243  0.38034976  0.74433669  1
  O  O349  1  0.25299499  0.88106760  0.24311279  1
  O  O350  1  0.24569580  0.88022915  0.74135975  1
  O  O351  1  0.74498436  0.37384692  0.24260134  1
  O  O352  1  0.76654953  0.38377338  0.76729186  1
  O  O353  1  0.74640734  0.88089109  0.23816042  1
  O  O354  1  0.74351927  0.87671793  0.73648655  1
  O  O355  1  0.26137457  0.12514216  0.24338348  1
  O  O356  1  0.24517888  0.10876871  0.74098594  1
  O  O357  1  0.25806963  0.61880941  0.25532404  1
  O  O358  1  0.24999185  0.61469310  0.75791464  1
  O  O359  1  0.75000864  0.12061200  0.25798664  1
  O  O360  1  0.76027607  0.11761115  0.74633695  1
  O  O361  1  0.74809759  0.62058506  0.25834448  1
  O  O362  1  0.75659663  0.61325064  0.76185669  1
  O  O363  1  0.38907080  0.10455142  0.35877123  1
  O  O364  1  0.39398996  0.12055666  0.85994820  1
  O  O365  1  0.37102259  0.62030630  0.37027267  1
  O  O366  1  0.36301877  0.62107330  0.87245254  1
  O  O367  1  0.86510482  0.11628942  0.37493018  1
  O  O368  1  0.87039580  0.11467444  0.86432169  1
  O  O369  1  0.87636785  0.60837754  0.39144481  1
  O  O370  1  0.86840853  0.62068057  0.87352981  1
  O  O371  1  0.13439323  0.38416119  0.13495439  1
  O  O372  1  0.13673425  0.37446632  0.62787866  1
  O  O373  1  0.11870094  0.89021925  0.11582427  1
  O  O374  1  0.12729306  0.88239841  0.62132724  1
  O  O375  1  0.63430982  0.38342849  0.12231716  1
  O  O376  1  0.61037013  0.38816370  0.62723691  1
  O  O377  1  0.63155009  0.87946746  0.12353024  1
  O  O378  1  0.62990985  0.87615755  0.62570357  1
  O  O379  1  0.11327472  0.25418263  0.24150110  1
  O  O380  1  0.12586346  0.26229945  0.74608304  1
  O  O381  1  0.11602785  0.74498265  0.26255869  1
  O  O382  1  0.11429439  0.74843053  0.75660443  1
  O  O383  1  0.60911795  0.25259190  0.24354038  1
  O  O384  1  0.62687560  0.24170689  0.75175931  1
  O  O385  1  0.62154298  0.75042590  0.26781026  1
  O  O386  1  0.61871293  0.75454887  0.75753715  1
  O  O387  1  0.38598184  0.24210292  0.23581880  1
  O  O388  1  0.38811260  0.26151220  0.73483674  1
  O  O389  1  0.36829850  0.73749528  0.24982847  1
  O  O390  1  0.38125618  0.74974371  0.74601594  1
  O  O391  1  0.88831710  0.25413733  0.24417095  1
  O  O392  1  0.86812594  0.23394291  0.73247193  1
  O  O393  1  0.88479432  0.75401550  0.23935694  1
  O  O394  1  0.88133027  0.74356351  0.74202386  1
  O  O395  1  0.38167248  0.49747418  0.49430495  1
  O  O396  1  0.38828760  0.50363437  1.00516986  1
  O  O397  1  0.37531708  0.99490265  0.48898503  1
  O  O398  1  0.38040114  0.99838388  1.00098526  1
  O  O399  1  0.87822739  0.48250233  0.49819973  1
  O  O400  1  0.88287355  0.49741959  1.00148645  1
  O  O401  1  0.87718835  0.98739245  0.49256080  1
  O  O402  1  0.87878185  0.99403843  0.99488324  1
  O  O403  1  0.11526992  0.00539658  0.00025221  1
  O  O404  1  0.12494568  0.00743039  0.50976939  1
  O  O405  1  0.11489714  0.49052804  0.01252578  1
  O  O406  1  0.13045339  0.51303544  0.50054888  1
  O  O407  1  0.61701541  0.00876553  0.00647777  1
  O  O408  1  0.61799061  0.00658556  0.50214243  1
  O  O409  1  0.61550698  0.50664639  0.01677183  1
  O  O410  1  0.61530316  0.51979385  0.49509376  1
  O  O411  1  0.36412536  0.36749334  0.13067675  1
  O  O412  1  0.36912175  0.37309206  0.61938740  1
  O  O413  1  0.37917428  0.87416078  0.10974169  1
  O  O414  1  0.36927284  0.86836823  0.61807521  1
  O  O415  1  0.86576888  0.37094892  0.12297086  1
  O  O416  1  0.88274124  0.36103823  0.61399276  1
  O  O417  1  0.86703530  0.86725357  0.11877524  1
  O  O418  1  0.86821422  0.86807055  0.61733693  1
  O  O419  1  0.12244668  0.11527695  0.38987067  1
  O  O420  1  0.11026999  0.12653845  0.88555548  1
  O  O421  1  0.12933679  0.63248472  0.38137716  1
  O  O422  1  0.13453755  0.63357150  0.86972262  1
  O  O423  1  0.63371496  0.11701867  0.38150499  1
  O  O424  1  0.62513519  0.12099517  0.88882127  1
  O  O425  1  0.62147301  0.63831571  0.38747790  1
  O  O426  1  0.63330224  0.63385919  0.87697300  1
