# generated using pymatgen
data_V85Zn86O256
_symmetry_space_group_name_H-M   'P 1'
_cell_length_a   17.01998220
_cell_length_b   16.99193538
_cell_length_c   17.01803295
_cell_angle_alpha   90.00168020
_cell_angle_beta   89.97276926
_cell_angle_gamma   89.74510834
_symmetry_Int_Tables_number   1
_chemical_formula_structural   V85Zn86O256
_chemical_formula_sum   'V85 Zn86 O256'
_cell_volume   4921.60735374
_cell_formula_units_Z   1
loop_
 _symmetry_equiv_pos_site_id
 _symmetry_equiv_pos_as_xyz
  1  'x, y, z'
loop_
 _atom_site_type_symbol
 _atom_site_label
 _atom_site_symmetry_multiplicity
 _atom_site_fract_x
 _atom_site_fract_y
 _atom_site_fract_z
 _atom_site_occupancy
  V  V0  1  0.12497427  0.62415590  0.49643316  1
  V  V1  1  0.00398945  0.12407790  0.12091830  1
  V  V2  1  0.49871098  0.76557162  0.75117545  1
  V  V3  1  0.12564061  0.25280277  0.37395895  1
  V  V4  1  0.12293359  0.87468863  0.24852145  1
  V  V5  1  0.48758303  -0.02356116  0.00762792  1
  V  V6  1  0.12493774  0.25175975  0.87629619  1
  V  V7  1  0.87609026  0.25149354  0.12420740  1
  V  V8  1  0.61762696  0.62332071  0.50778729  1
  V  V9  1  0.50402422  0.25175683  0.25427792  1
  V  V10  1  0.87390479  0.50397454  0.36764777  1
  V  V11  1  0.24783047  0.50225994  0.75007547  1
  V  V12  1  0.00000605  0.50093593  0.49687425  1
  V  V13  1  0.00072792  0.24867309  0.75180885  1
  V  V14  1  0.89174953  0.88090539  -0.00320085  1
  V  V15  1  0.63900475  0.88233861  0.25684862  1
  V  V16  1  0.62375616  0.49956899  0.12386677  1
  V  V17  1  0.24748376  0.62873793  0.87515422  1
  V  V18  1  -0.00240186  0.87652583  0.37257053  1
  V  V19  1  0.87359276  0.37480465  0.00142243  1
  V  V20  1  -0.01131125  0.74019311  0.23631034  1
  V  V21  1  0.62113582  -0.00484923  0.63153578  1
  V  V22  1  -0.00034391  0.37775114  0.87578371  1
  V  V23  1  0.87706917  0.24707991  0.62349321  1
  V  V24  1  0.37876792  0.62490153  0.74349338  1
  V  V25  1  0.14313069  0.50262509  0.12551672  1
  V  V26  1  0.75049927  0.50216633  0.75315644  1
  V  V27  1  0.50083528  0.75548166  0.24996974  1
  V  V28  1  0.24987684  0.25593445  0.00699295  1
  V  V29  1  0.24853873  0.12606159  0.37641043  1
  V  V30  1  0.62439484  0.75057213  0.37692662  1
  V  V31  1  0.24952774  -0.00021151  0.24988107  1
  V  V32  1  0.26087659  0.12410607  0.87169940  1
  V  V33  1  0.26184844  0.87195485  0.12475012  1
  V  V34  1  0.87595496  0.62379676  0.75326407  1
  V  V35  1  0.00198058  0.25216709  0.24899881  1
  V  V36  1  0.12544946  0.37804035  0.75039755  1
  V  V37  1  0.24017697  0.00201795  0.75511968  1
  V  V38  1  0.00361589  0.12058415  0.62347452  1
  V  V39  1  0.49649830  0.24994471  0.75518461  1
  V  V40  1  0.62701694  -0.00179348  0.12799407  1
  V  V41  1  0.87418322  0.50370338  0.87567043  1
  V  V42  1  0.37406855  0.62842175  0.24655297  1
  V  V43  1  0.37567615  0.12738710  0.25337703  1
  V  V44  1  0.87512873  0.37557097  0.49805105  1
  V  V45  1  0.00793549  0.75999180  0.75314507  1
  V  V46  1  0.74979451  0.62167093  0.37215182  1
  V  V47  1  0.62404043  0.36822411  0.75574761  1
  V  V48  1  0.62728150  0.62896704  -0.01853976  1
  V  V49  1  0.87381323  0.87940482  0.49804549  1
  V  V50  1  0.24922635  0.25114328  0.50163149  1
  V  V51  1  0.25065826  0.62497323  0.37048720  1
  V  V52  1  0.12470592  0.12269491  0.00075970  1
  V  V53  1  0.86842917  0.11710116  0.24867319  1
  V  V54  1  0.13939341  0.37894870  0.24336258  1
  V  V55  1  0.12299711  0.11971395  0.50133238  1
  V  V56  1  -0.00197736  0.51336322  0.00955780  1
  V  V57  1  0.37450382  0.37613117  0.50040475  1
  V  V58  1  0.49741614  0.49861514  -0.00481098  1
  V  V59  1  0.24941599  0.75803503  0.49916835  1
  V  V60  1  0.50093795  0.63414121  0.12318343  1
  V  V61  1  0.61818921  0.50296196  0.62476312  1
  V  V62  1  -0.00014344  0.37745983  0.37231761  1
  V  V63  1  0.37187207  0.50219595  0.37076554  1
  V  V64  1  0.26155085  0.75432085  0.00274923  1
  V  V65  1  -0.00022019  0.62309058  0.62284477  1
  V  V66  1  0.49349061  0.12249807  0.63252839  1
  V  V67  1  0.76575674  0.00212116  0.74740555  1
  V  V68  1  0.62597699  0.12665144  0.50743640  1
  V  V69  1  0.12509551  0.49900764  0.62346606  1
  V  V70  1  0.62269731  0.37664067  0.25038771  1
  V  V71  1  0.74768792  0.36998281  0.12284840  1
  V  V72  1  0.37241771  0.24676825  0.63063283  1
  V  V73  1  0.12351872  0.74933818  0.37181408  1
  V  V74  1  0.87544247  0.74824240  0.62384518  1
  V  V75  1  0.75017993  0.37031986  0.62364456  1
  V  V76  1  0.49966319  0.37757840  0.37732252  1
  V  V77  1  0.37081834  0.37626039  0.00519255  1
  V  V78  1  0.50168138  0.12831348  0.12012940  1
  V  V79  1  0.37559992  -0.00705804  0.38422940  1
  V  V80  1  0.74394551  0.87375102  0.62598404  1
  V  V81  1  0.23274541  0.88060960  0.63099257  1
  V  V82  1  0.37691595  0.75339576  0.61854327  1
  V  V83  1  0.74911564  0.74683306  0.50252606  1
  V  V84  1  0.12386980  0.00046163  0.12063681  1
  Zn  Zn85  1  0.25010503  0.37579719  0.62628823  1
  Zn  Zn86  1  0.49532759  0.87040620  0.38408442  1
  Zn  Zn87  1  0.37279177  0.49854641  0.87230899  1
  Zn  Zn88  1  0.12165767  0.63377975  0.00891019  1
  Zn  Zn89  1  0.84222320  0.15171423  0.79110854  1
  Zn  Zn90  1  0.37059925  0.25924829  0.13075948  1
  Zn  Zn91  1  0.49627279  -0.00763573  0.50673389  1
  Zn  Zn92  1  0.00253082  -0.00193304  0.50093823  1
  Zn  Zn93  1  0.75606306  0.50124055  0.24571826  1
  Zn  Zn94  1  0.88815078  -0.00446290  0.87428664  1
  Zn  Zn95  1  0.78359761  0.69393226  0.91998685  1
  Zn  Zn96  1  0.68023229  0.18335390  0.92059952  1
  Zn  Zn97  1  0.50123358  0.36842172  0.87858447  1
  Zn  Zn98  1  0.61687616  0.78389207  0.86919410  1
  Zn  Zn99  1  0.12412987  0.75412555  0.87363333  1
  Zn  Zn100  1  0.49523250  0.50459205  0.50563847  1
  Zn  Zn101  1  0.86440774  -0.00313578  0.36394166  1
  Zn  Zn102  1  0.62542118  0.25075374  0.38122148  1
  Zn  Zn103  1  0.40958271  -0.00424293  0.83604312  1
  Zn  Zn104  1  0.73777768  0.12151312  0.36333127  1
  Zn  Zn105  1  0.75016202  0.24824960  0.49439161  1
  Zn  Zn106  1  0.83327657  0.75860895  0.10620085  1
  Zn  Zn107  1  0.18822922  0.18947551  0.18934262  1
  Zn  Zn108  1  0.18617090  0.18656992  0.68817799  1
  Zn  Zn109  1  0.18523613  0.68852348  0.18644422  1
  Zn  Zn110  1  0.18760876  0.68669164  0.68460240  1
  Zn  Zn111  1  0.69595499  0.17444071  0.08387311  1
  Zn  Zn112  1  0.65204780  0.15062825  0.74115683  1
  Zn  Zn113  1  0.71560125  0.66914160  0.16971752  1
  Zn  Zn114  1  0.70107073  0.70588605  0.72108193  1
  Zn  Zn115  1  0.31492589  0.31258684  0.31680726  1
  Zn  Zn116  1  0.31211059  0.31534189  0.81821236  1
  Zn  Zn117  1  0.31167051  0.81031131  0.30842200  1
  Zn  Zn118  1  0.31370938  0.81539827  0.80866379  1
  Zn  Zn119  1  0.80739763  0.30899640  0.31142572  1
  Zn  Zn120  1  0.80945412  0.31686719  0.81594011  1
  Zn  Zn121  1  0.81249745  0.80652980  0.31234311  1
  Zn  Zn122  1  0.81801160  0.81858122  0.81174354  1
  Zn  Zn123  1  0.18919940  0.43716071  0.43398771  1
  Zn  Zn124  1  0.18611540  0.44210912  0.93885712  1
  Zn  Zn125  1  0.18775387  0.93686150  0.43491833  1
  Zn  Zn126  1  0.30774741  0.93472968  0.94463678  1
  Zn  Zn127  1  0.68657922  0.43806448  0.43872013  1
  Zn  Zn128  1  0.68747590  0.43751977  0.93715484  1
  Zn  Zn129  1  0.68651082  0.94453946  0.43947989  1
  Zn  Zn130  1  0.71104712  0.90995111  0.92778617  1
  Zn  Zn131  1  0.31144694  0.06946025  0.06748342  1
  Zn  Zn132  1  0.30705395  0.06241491  0.56736067  1
  Zn  Zn133  1  0.31563943  0.56870573  0.06116473  1
  Zn  Zn134  1  0.31013094  0.56539076  0.56067739  1
  Zn  Zn135  1  0.79505980  0.01728552  0.03602500  1
  Zn  Zn136  1  0.81058784  0.06371857  0.56508574  1
  Zn  Zn137  1  0.81279748  0.56530639  0.06091593  1
  Zn  Zn138  1  0.80957078  0.56097915  0.56282648  1
  Zn  Zn139  1  0.43638259  0.44223873  0.18657885  1
  Zn  Zn140  1  0.43506455  0.43438255  0.68832148  1
  Zn  Zn141  1  0.44024752  0.94030647  0.19451634  1
  Zn  Zn142  1  0.42212314  0.93647845  0.67803064  1
  Zn  Zn143  1  0.94189902  0.43934231  0.18675406  1
  Zn  Zn144  1  0.93853975  0.43676017  0.68561871  1
  Zn  Zn145  1  0.93557370  0.93132688  0.17937981  1
  Zn  Zn146  1  0.94087628  0.93524679  0.67943052  1
  Zn  Zn147  1  0.06047829  0.06175534  0.31166955  1
  Zn  Zn148  1  0.06556144  0.06938748  0.81226873  1
  Zn  Zn149  1  0.06385512  0.56239482  0.30524745  1
  Zn  Zn150  1  0.06095867  0.56553453  0.81560989  1
  Zn  Zn151  1  0.56079443  0.06414573  0.31725502  1
  Zn  Zn152  1  0.60025541  0.00911767  0.85198257  1
  Zn  Zn153  1  0.56116706  0.56471115  0.31478290  1
  Zn  Zn154  1  0.55660665  0.55819012  0.80434149  1
  Zn  Zn155  1  0.43945054  0.18600356  0.44346475  1
  Zn  Zn156  1  0.43442918  0.18697185  0.93679188  1
  Zn  Zn157  1  0.43719073  0.68782894  0.43710883  1
  Zn  Zn158  1  0.43997822  0.69116123  0.93010782  1
  Zn  Zn159  1  0.93725056  0.18787112  0.43533422  1
  Zn  Zn160  1  0.85506719  0.16860470  0.94856605  1
  Zn  Zn161  1  0.93647807  0.68857712  0.43234816  1
  Zn  Zn162  1  0.95540794  0.71887037  0.95741406  1
  Zn  Zn163  1  0.06319671  0.31865763  0.06193201  1
  Zn  Zn164  1  0.06303709  0.31293852  0.56173854  1
  Zn  Zn165  1  0.07237110  0.81293066  0.06145049  1
  Zn  Zn166  1  0.05943372  0.80842082  0.56040689  1
  Zn  Zn167  1  0.56313673  0.30680189  0.05612212  1
  Zn  Zn168  1  0.56029821  0.31257021  0.56638490  1
  Zn  Zn169  1  0.61885276  0.79552801  0.08103802  1
  Zn  Zn170  1  0.55899015  0.81315171  0.56040337  1
  O  O171  1  0.12321134  0.12072581  0.12184026  1
  O  O172  1  0.11549078  0.13638170  0.61104416  1
  O  O173  1  0.12968724  0.60813748  0.12616825  1
  O  O174  1  0.11957639  0.61847040  0.61623558  1
  O  O175  1  0.60635787  0.11432627  0.13733093  1
  O  O176  1  0.61170143  0.11491665  0.62438746  1
  O  O177  1  0.61920495  0.61339004  0.11155228  1
  O  O178  1  0.63634496  0.61018667  0.61532130  1
  O  O179  1  0.37873995  0.38499689  0.37943282  1
  O  O180  1  0.37827219  0.37902908  0.88925901  1
  O  O181  1  0.36834061  0.89122117  0.37009487  1
  O  O182  1  0.37214881  0.88947347  0.86621043  1
  O  O183  1  0.87935177  0.38201520  0.37852047  1
  O  O184  1  0.87933499  0.38250500  0.88432278  1
  O  O185  1  0.88074237  0.87339457  0.38277547  1
  O  O186  1  0.87566675  0.88198967  0.88394538  1
  O  O187  1  0.25665830  0.00633333  0.36959135  1
  O  O188  1  0.24823858  0.00774389  0.86266363  1
  O  O189  1  0.26328595  0.50828874  0.37909744  1
  O  O190  1  0.25015704  0.51076358  0.86934501  1
  O  O191  1  0.75488215  0.01166803  0.38270700  1
  O  O192  1  0.75636135  -0.00162404  0.84775281  1
  O  O193  1  0.75849567  0.50447996  0.37576967  1
  O  O194  1  0.75659831  0.49193381  0.85961052  1
  O  O195  1  0.24161156  0.49851427  0.11765083  1
  O  O196  1  0.24179861  0.50022810  0.63080500  1
  O  O197  1  0.24267334  0.99454696  0.13158890  1
  O  O198  1  0.24848467  0.98589668  0.62812171  1
  O  O199  1  0.73850547  0.48954448  0.12545196  1
  O  O200  1  0.74635302  0.48739899  0.63307690  1
  O  O201  1  0.72434947  1.01008529  0.13001505  1
  O  O202  1  0.74352582  0.98928781  0.62458195  1
  O  O203  1  0.00700305  0.36660466  0.25298185  1
  O  O204  1  0.00543658  0.36982052  0.75406042  1
  O  O205  1  0.00464177  0.86763351  0.25643252  1
  O  O206  1  -0.00416946  0.85829924  0.74156036  1
  O  O207  1  0.50096982  0.36990090  0.25525824  1
  O  O208  1  0.50722057  0.36827946  0.75192498  1
  O  O209  1  0.49619532  0.86409375  0.25941696  1
  O  O210  1  0.49098514  0.86425389  0.73942394  1
  O  O211  1  0.49112798  0.13354822  0.24906177  1
  O  O212  1  0.49975678  0.13726762  0.73519779  1
  O  O213  1  0.49723086  0.63396599  0.24282421  1
  O  O214  1  0.48191528  0.62784706  0.75147135  1
  O  O215  1  1.00453578  0.13856373  0.24114035  1
  O  O216  1  1.01095586  0.13976317  0.73788539  1
  O  O217  1  0.99859776  0.64272347  0.26059115  1
  O  O218  1  0.99013793  0.62573644  0.74204334  1
  O  O219  1  0.36605383  0.25891641  0.00214160  1
  O  O220  1  0.36863499  0.25606234  0.50762329  1
  O  O221  1  0.36030451  0.74541002  -0.00560400  1
  O  O222  1  0.36281273  0.74091763  0.51026859  1
  O  O223  1  0.88380966  0.26316652  0.01490899  1
  O  O224  1  0.87591749  0.25773349  0.50690128  1
  O  O225  1  0.85274783  0.75495438  -0.01306559  1
  O  O226  1  0.86932969  0.75653916  0.50376705  1
  O  O227  1  0.12884231  0.24518967  0.49178804  1
  O  O228  1  0.13154026  0.24667779  0.99661437  1
  O  O229  1  0.13044457  0.74347603  0.49178257  1
  O  O230  1  0.13756922  0.74861051  0.99097904  1
  O  O231  1  0.62460884  0.24109670  0.50372541  1
  O  O232  1  0.63997631  0.24245695  1.00907527  1
  O  O233  1  0.63045692  0.74168058  0.49800776  1
  O  O234  1  0.61726404  0.73326092  0.98400703  1
  O  O235  1  0.49691969  0.24120397  0.13649937  1
  O  O236  1  0.48883436  0.24517689  0.63161157  1
  O  O237  1  0.51788490  0.73814784  0.13503293  1
  O  O238  1  0.47966774  0.75289755  0.62625961  1
  O  O239  1  0.99688875  0.24837004  0.13286251  1
  O  O240  1  0.99399573  0.24829169  0.63156484  1
  O  O241  1  1.01151085  0.74771936  0.13911838  1
  O  O242  1  0.99535522  0.74148237  0.63147275  1
  O  O243  1  0.00563392  0.25707192  0.36579020  1
  O  O244  1  0.00661680  0.25997237  0.86154492  1
  O  O245  1  0.00346310  0.76116943  0.36916029  1
  O  O246  1  0.00499883  0.74380595  0.85534141  1
  O  O247  1  0.49669161  0.25845170  0.36914530  1
  O  O248  1  0.49066123  0.24904216  0.85954146  1
  O  O249  1  0.50679410  0.74754798  0.36727993  1
  O  O250  1  0.49994106  0.75264674  0.85572988  1
  O  O251  1  0.24051511  0.13136061  0.49658308  1
  O  O252  1  0.24320510  0.13423656  0.99347387  1
  O  O253  1  0.24295037  0.63551768  0.49194606  1
  O  O254  1  0.24978664  0.63620156  0.99247582  1
  O  O255  1  0.73389403  0.12958092  0.51088691  1
  O  O256  1  0.76490612  0.12157285  1.00562631  1
  O  O257  1  0.74129305  0.62778922  0.49330436  1
  O  O258  1  0.73042424  0.61460812  0.98766681  1
  O  O259  1  0.25664927  0.36574321  -0.00709758  1
  O  O260  1  0.25568033  0.36837026  0.50017476  1
  O  O261  1  0.24897337  0.86289689  0.00973139  1
  O  O262  1  0.24278568  0.86367847  0.50649090  1
  O  O263  1  0.76339003  0.38391277  0.00957778  1
  O  O264  1  0.75519205  0.37419452  0.50904763  1
  O  O265  1  0.77724069  0.90488631  0.00967690  1
  O  O266  1  0.75672433  0.86705661  0.50582467  1
  O  O267  1  0.12182192  0.49273643  0.23517368  1
  O  O268  1  0.12739226  0.49716811  0.74366312  1
  O  O269  1  0.13180920  0.99618800  0.24385806  1
  O  O270  1  0.14025965  1.00846904  0.74476608  1
  O  O271  1  0.61886979  0.49475759  0.23710610  1
  O  O272  1  0.63219914  0.49299803  0.74272534  1
  O  O273  1  0.61298479  0.98786835  0.24953615  1
  O  O274  1  0.63966643  0.99900321  0.73306041  1
  O  O275  1  0.36902354  0.01133697  0.26071318  1
  O  O276  1  0.35431069  0.00576640  0.73856003  1
  O  O277  1  0.38268185  0.51394450  0.26018945  1
  O  O278  1  0.36700347  0.50740572  0.74806747  1
  O  O279  1  0.88440644  0.01377492  0.24313384  1
  O  O280  1  0.86910050  -0.00312600  0.74238716  1
  O  O281  1  0.87558665  0.49502355  0.26377337  1
  O  O282  1  0.87042514  0.50415956  0.75348638  1
  O  O283  1  0.11947967  0.37319401  0.36467524  1
  O  O284  1  0.11877887  0.37244556  0.87111515  1
  O  O285  1  0.11673813  0.87032777  0.36955016  1
  O  O286  1  0.09826780  0.91278348  0.87100794  1
  O  O287  1  0.61732778  0.37658738  0.36876797  1
  O  O288  1  0.62514113  0.37757183  0.86024700  1
  O  O289  1  0.62246846  0.87269936  0.36909398  1
  O  O290  1  0.62199276  0.89701334  0.87143880  1
  O  O291  1  0.38215917  0.12890616  0.14086549  1
  O  O292  1  0.37970194  0.13781660  0.61675138  1
  O  O293  1  0.38960606  0.61997742  0.13424486  1
  O  O294  1  0.35958811  0.64065464  0.63362884  1
  O  O295  1  0.89010170  0.13738043  0.13664217  1
  O  O296  1  0.88707528  0.13938322  0.61519509  1
  O  O297  1  0.82580329  0.64565654  0.13354129  1
  O  O298  1  0.88020661  0.62743889  0.63017505  1
  O  O299  1  0.25189767  0.24447079  0.11146914  1
  O  O300  1  0.25678225  0.25088378  0.62069833  1
  O  O301  1  0.24513496  0.75612483  0.11133045  1
  O  O302  1  0.24984763  0.75888622  0.61723624  1
  O  O303  1  0.76450740  0.26095526  0.13083149  1
  O  O304  1  0.76414818  0.26422858  0.62684957  1
  O  O305  1  0.71928922  0.76973332  0.12571940  1
  O  O306  1  0.75553215  0.75609227  0.62434299  1
  O  O307  1  0.24491475  0.24472528  0.38136596  1
  O  O308  1  0.24450063  0.24266811  0.88229092  1
  O  O309  1  0.24472383  0.74688762  0.38143143  1
  O  O310  1  0.24680183  0.74792799  0.88139115  1
  O  O311  1  0.74475616  0.24025851  0.37681500  1
  O  O312  1  0.77950525  0.22289353  0.86788801  1
  O  O313  1  0.74468933  0.74059033  0.38192076  1
  O  O314  1  0.72861819  0.74851553  0.83577636  1
  O  O315  1  0.01485473  0.13484559  0.01750454  1
  O  O316  1  0.00783109  0.12618216  0.50485109  1
  O  O317  1  0.00356655  0.61781627  -0.00976243  1
  O  O318  1  0.00537085  0.62108776  0.50192895  1
  O  O319  1  0.49160581  0.13266718  0.02111329  1
  O  O320  1  0.50629462  0.12227874  0.51429897  1
  O  O321  1  0.50499126  0.61837913  0.00454184  1
  O  O322  1  0.51332471  0.62510933  0.49829890  1
  O  O323  1  0.49173815  0.37663126  0.49442906  1
  O  O324  1  0.49376201  0.38198151  0.99936305  1
  O  O325  1  0.49639863  0.87898644  0.49622715  1
  O  O326  1  0.49349226  0.88109160  1.01433709  1
  O  O327  1  0.99643146  0.38107916  0.49166259  1
  O  O328  1  0.98935733  0.38590487  0.99650896  1
  O  O329  1  0.99179865  0.87376405  0.49129545  1
  O  O330  1  0.98795155  0.83626358  0.98938252  1
  O  O331  1  0.48875924  0.49617019  0.37821785  1
  O  O332  1  0.49642916  0.49779321  0.88668339  1
  O  O333  1  0.48083650  1.00158020  0.37655897  1
  O  O334  1  0.49672421  1.00743411  0.90572924  1
  O  O335  1  0.99320362  0.49732646  0.37765902  1
  O  O336  1  0.99360514  0.49601196  0.88299922  1
  O  O337  1  0.99631934  0.98548988  0.37407026  1
  O  O338  1  1.04364173  0.96404747  0.87514599  1
  O  O339  1  0.01567762  0.01092417  0.13422157  1
  O  O340  1  -0.00303230  0.01655548  0.62202294  1
  O  O341  1  -0.00154977  0.50219719  0.11258381  1
  O  O342  1  0.00478842  0.50374257  0.61644134  1
  O  O343  1  0.49392917  0.01387545  0.12399088  1
  O  O344  1  0.50253941  0.00540121  0.62836300  1
  O  O345  1  0.50764056  0.50799542  0.11531511  1
  O  O346  1  0.51391249  0.49313212  0.62572131  1
  O  O347  1  0.23824581  0.36812733  0.25234698  1
  O  O348  1  0.24239132  0.38360661  0.75170504  1
  O  O349  1  0.24125521  0.87770178  0.24405507  1
  O  O350  1  0.24247265  0.88462364  0.73878883  1
  O  O351  1  0.74247211  0.37826917  0.23934782  1
  O  O352  1  0.74404950  0.38093318  0.74283147  1
  O  O353  1  0.73729381  0.87801501  0.25944691  1
  O  O354  1  0.76049591  0.88486210  0.73069627  1
  O  O355  1  0.25716824  0.12278933  0.25581585  1
  O  O356  1  0.24372799  0.11856906  0.76074606  1
  O  O357  1  0.26431741  0.63727155  0.25577014  1
  O  O358  1  0.25527321  0.62257542  0.75636899  1
  O  O359  1  0.77114168  0.12929913  0.24436627  1
  O  O360  1  0.75931073  0.10684386  0.72587087  1
  O  O361  1  0.73334585  0.61719726  0.27002326  1
  O  O362  1  0.76313494  0.61019628  0.73755482  1
  O  O363  1  0.36885039  0.12057340  0.36901664  1
  O  O364  1  0.36192067  0.11877096  0.87997497  1
  O  O365  1  0.37142904  0.61967074  0.36806225  1
  O  O366  1  0.36246792  0.62527878  0.86418687  1
  O  O367  1  0.88530464  0.12470160  0.35519868  1
  O  O368  1  0.91054774  0.10468983  0.86982522  1
  O  O369  1  0.86233653  0.61507236  0.38328750  1
  O  O370  1  0.86980639  0.62104131  0.86033577  1
  O  O371  1  0.12045470  0.38905053  0.13190157  1
  O  O372  1  0.12595499  0.38167173  0.63098172  1
  O  O373  1  0.13239429  0.88535797  0.12953571  1
  O  O374  1  0.13393971  0.87103291  0.61981046  1
  O  O375  1  0.62990712  0.38075712  0.12754788  1
  O  O376  1  0.63355237  0.38180234  0.63212847  1
  O  O377  1  0.61312362  0.88900208  0.14760164  1
  O  O378  1  0.63608382  0.88051989  0.61644797  1
  O  O379  1  0.11875227  0.25810750  0.25296170  1
  O  O380  1  0.11927087  0.25821352  0.75490567  1
  O  O381  1  0.11848707  0.75605694  0.25567760  1
  O  O382  1  0.11205585  0.74588572  0.74859024  1
  O  O383  1  0.60831964  0.25871405  0.25448439  1
  O  O384  1  0.61090641  0.26091434  0.74038640  1
  O  O385  1  0.61568457  0.76771026  0.26078857  1
  O  O386  1  0.59684506  0.74360396  0.73380645  1
  O  O387  1  0.38234823  0.24401848  0.25158966  1
  O  O388  1  0.38035036  0.26049785  0.73831738  1
  O  O389  1  0.38809750  0.73920706  0.25669736  1
  O  O390  1  0.37961939  0.74445301  0.73848079  1
  O  O391  1  0.88672724  0.24824285  0.24273627  1
  O  O392  1  0.88678274  0.25358090  0.73955121  1
  O  O393  1  0.88760058  0.75950309  0.24254560  1
  O  O394  1  0.88456480  0.74046308  0.74343717  1
  O  O395  1  0.37602873  0.49710825  0.49255141  1
  O  O396  1  0.38340096  0.49540998  1.00008505  1
  O  O397  1  0.36908356  1.00727403  0.48575927  1
  O  O398  1  0.37972574  0.99734371  1.01223089  1
  O  O399  1  0.88097857  0.49492406  0.49160319  1
  O  O400  1  0.87990544  0.49706498  0.99601042  1
  O  O401  1  0.87766848  0.98579942  0.50258051  1
  O  O402  1  0.90833289  0.98345381  1.00052880  1
  O  O403  1  0.13369795  0.01629278  0.01432026  1
  O  O404  1  0.12342658  0.01573362  0.49092383  1
  O  O405  1  0.11689224  0.50040391  0.01326036  1
  O  O406  1  0.11948363  0.50451826  0.50161497  1
  O  O407  1  0.60277350  -0.00567408  0.02709920  1
  O  O408  1  0.62154371  0.00909964  0.51442424  1
  O  O409  1  0.61545458  0.50231943  0.00530209  1
  O  O410  1  0.62262821  0.50564161  0.50822864  1
  O  O411  1  0.37970865  0.37665093  0.11132209  1
  O  O412  1  0.37182324  0.36617458  0.61781276  1
  O  O413  1  0.35941717  0.87795861  0.13879029  1
  O  O414  1  0.35451834  0.85728929  0.62549313  1
  O  O415  1  0.86907564  0.37122516  0.12118146  1
  O  O416  1  0.87116728  0.36951350  0.61865739  1
  O  O417  1  0.88597381  0.86389616  0.10522237  1
  O  O418  1  0.86936459  0.86752720  0.61291336  1
  O  O419  1  0.12817966  0.13278826  0.38001230  1
  O  O420  1  0.12978360  0.13255161  0.88625613  1
  O  O421  1  0.13142502  0.62843297  0.37694021  1
  O  O422  1  0.13939808  0.62632197  0.87472491  1
  O  O423  1  0.61885885  0.12675189  0.39237529  1
  O  O424  1  0.62843452  0.11794182  0.84773302  1
  O  O425  1  0.63056067  0.62781512  0.38719547  1
  O  O426  1  0.61518871  0.61579292  0.88337684  1
