# generated using pymatgen
data_V85Zn86O256
_symmetry_space_group_name_H-M   'P 1'
_cell_length_a   17.01620019
_cell_length_b   16.99214560
_cell_length_c   17.01417823
_cell_angle_alpha   90.01779047
_cell_angle_beta   89.99236726
_cell_angle_gamma   89.98731499
_symmetry_Int_Tables_number   1
_chemical_formula_structural   V85Zn86O256
_chemical_formula_sum   'V85 Zn86 O256'
_cell_volume   4919.50888718
_cell_formula_units_Z   1
loop_
 _symmetry_equiv_pos_site_id
 _symmetry_equiv_pos_as_xyz
  1  'x, y, z'
loop_
 _atom_site_type_symbol
 _atom_site_label
 _atom_site_symmetry_multiplicity
 _atom_site_fract_x
 _atom_site_fract_y
 _atom_site_fract_z
 _atom_site_occupancy
  V  V0  1  0.37605634  0.49658577  0.88291325  1
  V  V1  1  0.48890011  0.87424889  0.38074531  1
  V  V2  1  0.74455398  0.22710119  0.49353539  1
  V  V3  1  0.25238391  0.86957982  0.12027050  1
  V  V4  1  0.62625380  0.86773565  0.75410503  1
  V  V5  1  -0.00275692  -0.00001434  0.49767004  1
  V  V6  1  0.00646315  0.12420050  0.61704505  1
  V  V7  1  0.87649976  0.62532948  0.75109184  1
  V  V8  1  0.50694124  0.49991108  0.00419760  1
  V  V9  1  0.00012084  0.00166056  0.00043846  1
  V  V10  1  0.12689512  0.87448156  0.74999941  1
  V  V11  1  0.00755208  0.62472729  0.61614884  1
  V  V12  1  0.62727798  0.12319627  -0.00053955  1
  V  V13  1  0.62326551  0.62145474  0.49704078  1
  V  V14  1  0.37482800  0.62728745  0.75086067  1
  V  V15  1  0.50431732  0.86282872  0.87367837  1
  V  V16  1  0.75571974  -0.00048633  0.26495400  1
  V  V17  1  0.24712614  0.63195915  0.38658648  1
  V  V18  1  -0.00054431  0.49380035  0.00248532  1
  V  V19  1  0.37301755  0.75084005  0.12316389  1
  V  V20  1  0.50296937  0.12265059  0.62465149  1
  V  V21  1  0.74257368  0.63248456  0.87252084  1
  V  V22  1  0.25409273  0.00751302  0.25420614  1
  V  V23  1  0.75087912  0.00061458  0.74715157  1
  V  V24  1  0.87724447  0.12857883  0.74238139  1
  V  V25  1  0.73842994  0.75743495  -0.00540048  1
  V  V26  1  0.87558299  0.86943417  0.00360603  1
  V  V27  1  0.62445247  0.00284430  0.61938849  1
  V  V28  1  0.87654348  0.74911485  0.62454392  1
  V  V29  1  0.12631915  0.87282116  0.24872408  1
  V  V30  1  0.75050752  0.37515573  0.60831917  1
  V  V31  1  0.36691434  0.00713085  0.38598841  1
  V  V32  1  0.12744348  0.74795998  0.38576300  1
  V  V33  1  0.26032987  0.37311776  0.11949332  1
  V  V34  1  0.25088828  0.62891492  0.88018937  1
  V  V35  1  0.50201112  0.25102984  0.75626135  1
  V  V36  1  0.49623335  0.49425898  0.49658215  1
  V  V37  1  0.37223451  0.86849635  -0.00259532  1
  V  V38  1  0.59903555  0.36292367  0.25687558  1
  V  V39  1  -0.00906581  0.75287624  0.24812968  1
  V  V40  1  0.49915049  0.37459783  0.88283759  1
  V  V41  1  0.25721007  0.25306997  0.00063046  1
  V  V42  1  0.37617916  0.25002275  0.62515069  1
  V  V43  1  0.87249218  0.49516433  0.87629854  1
  V  V44  1  0.13219929  0.23136662  0.37553341  1
  V  V45  1  0.24990811  0.49844252  0.75414807  1
  V  V46  1  0.12602928  -0.00045469  0.12422135  1
  V  V47  1  0.12399546  0.12592839  0.00310496  1
  V  V48  1  0.75165747  0.12555892  0.87104677  1
  V  V49  1  0.50841181  0.62295335  0.12618209  1
  V  V50  1  0.87616547  -0.00087985  0.87324851  1
  V  V51  1  0.12500991  0.37346765  0.25343463  1
  V  V52  1  0.25221611  0.23481041  0.49621519  1
  V  V53  1  0.00121999  0.87503885  0.87546243  1
  V  V54  1  0.49790369  0.62571986  0.62328121  1
  V  V55  1  0.12960303  0.62942136  0.00193984  1
  V  V56  1  0.37010267  0.50008078  0.37489298  1
  V  V57  1  0.12383266  0.37513396  0.75385885  1
  V  V58  1  0.12745018  0.00140900  0.62187249  1
  V  V59  1  0.62459397  0.87635023  0.25381462  1
  V  V60  1  0.00128456  0.75038050  0.75210850  1
  V  V61  1  -0.01234465  0.26138228  0.26860486  1
  V  V62  1  0.86925336  0.61418510  0.24962063  1
  V  V63  1  0.49833309  0.75390483  0.24846347  1
  V  V64  1  0.75017913  0.87342437  0.62441278  1
  V  V65  1  0.37026719  0.75228504  0.61151674  1
  V  V66  1  0.61445194  0.01073077  0.13631851  1
  V  V67  1  0.00022128  0.25135825  0.74832235  1
  V  V68  1  0.75258086  0.87533759  0.12592135  1
  V  V69  1  -0.00516506  0.87743139  0.37532999  1
  V  V70  1  0.81876548  0.41854365  0.05545874  1
  V  V71  1  0.74889333  0.61647973  0.36995178  1
  V  V72  1  0.87708035  0.23827381  0.11614041  1
  V  V73  1  -0.00220120  0.63110591  0.12453473  1
  V  V74  1  0.24916576  0.12468421  0.87451533  1
  V  V75  1  0.37232399  0.62691384  0.24954196  1
  V  V76  1  0.12465135  0.50385778  0.62252732  1
  V  V77  1  0.75149532  0.74728865  0.49810684  1
  V  V78  1  0.37448535  0.12349893  0.75751440  1
  V  V79  1  0.37012540  0.37394038  0.49860052  1
  V  V80  1  0.50256846  -0.00148778  -0.00476557  1
  V  V81  1  0.12937185  0.74978249  0.87787394  1
  V  V82  1  0.75563936  0.24876373  -0.00172077  1
  V  V83  1  0.25241005  0.87008886  0.61409300  1
  V  V84  1  0.87091675  0.11849107  0.26821575  1
  Zn  Zn85  1  0.71293134  0.46183346  0.20299955  1
  Zn  Zn86  1  0.62531989  0.50022810  0.62634860  1
  Zn  Zn87  1  0.62212542  0.75072732  0.37561434  1
  Zn  Zn88  1  0.74812473  0.49487230  0.74739742  1
  Zn  Zn89  1  0.62871265  0.25326056  0.87544441  1
  Zn  Zn90  1  0.25129508  -0.00223822  0.74978591  1
  Zn  Zn91  1  0.87201852  0.87843243  0.49475984  1
  Zn  Zn92  1  0.50537287  0.74605095  0.75082115  1
  Zn  Zn93  1  0.62581499  0.37885684  0.74706922  1
  Zn  Zn94  1  0.12271350  0.25213983  0.87839607  1
  Zn  Zn95  1  -0.00534438  0.37073173  0.88240013  1
  Zn  Zn96  1  0.25013105  0.37446619  0.62716002  1
  Zn  Zn97  1  0.90653143  0.29075597  0.59048198  1
  Zn  Zn98  1  0.24679659  0.50354936  0.24649339  1
  Zn  Zn99  1  0.62302839  0.63025019  -0.00292662  1
  Zn  Zn100  1  -0.02690591  0.46701656  0.47817837  1
  Zn  Zn101  1  0.12543015  0.49788980  0.12570117  1
  Zn  Zn102  1  0.37464345  -0.00563655  0.87255530  1
  Zn  Zn103  1  0.00417896  0.12589853  0.13500923  1
  Zn  Zn104  1  0.61975336  0.24497142  0.37757958  1
  Zn  Zn105  1  0.49446543  -0.00609870  0.50421236  1
  Zn  Zn106  1  0.47502218  0.16184513  0.16168862  1
  Zn  Zn107  1  0.29602341  0.18258585  0.17906515  1
  Zn  Zn108  1  0.18913501  0.18943938  0.68511210  1
  Zn  Zn109  1  0.18603516  0.68759687  0.18981753  1
  Zn  Zn110  1  0.19021083  0.68888405  0.68930793  1
  Zn  Zn111  1  0.69247507  0.19247362  0.18971443  1
  Zn  Zn112  1  0.68813256  0.19312973  0.68115923  1
  Zn  Zn113  1  0.68970644  0.69402626  0.18596803  1
  Zn  Zn114  1  0.68872996  0.68447767  0.68446462  1
  Zn  Zn115  1  0.30168673  0.32244596  0.32087706  1
  Zn  Zn116  1  0.31267518  0.31067824  0.81732697  1
  Zn  Zn117  1  0.31049464  0.81412779  0.31199345  1
  Zn  Zn118  1  0.31156532  0.81135648  0.80847345  1
  Zn  Zn119  1  0.80347127  0.29843875  0.30352729  1
  Zn  Zn120  1  0.81050641  0.31381234  0.80399759  1
  Zn  Zn121  1  0.81209564  0.80837826  0.31395997  1
  Zn  Zn122  1  0.81344385  0.81318059  0.81248639  1
  Zn  Zn123  1  0.15252936  0.46489286  0.41528967  1
  Zn  Zn124  1  0.18468109  0.44016775  0.93968952  1
  Zn  Zn125  1  0.18283640  0.93813918  0.43765605  1
  Zn  Zn126  1  0.18805294  0.93928169  0.93585062  1
  Zn  Zn127  1  0.70536677  0.40992821  0.39667838  1
  Zn  Zn128  1  0.68129517  0.44231273  0.92998004  1
  Zn  Zn129  1  0.68270679  0.93571058  0.43993011  1
  Zn  Zn130  1  0.68737449  0.94044910  0.93536454  1
  Zn  Zn131  1  0.31600614  0.05693307  0.05725736  1
  Zn  Zn132  1  0.31598110  0.05868276  0.56971124  1
  Zn  Zn133  1  0.31409073  0.56056399  0.06533353  1
  Zn  Zn134  1  0.30761280  0.56168702  0.56520364  1
  Zn  Zn135  1  0.80961050  0.05748905  0.06483158  1
  Zn  Zn136  1  0.81718294  0.06247891  0.55973952  1
  Zn  Zn137  1  0.81583765  0.58774330  0.06070480  1
  Zn  Zn138  1  0.81243645  0.54996560  0.55887990  1
  Zn  Zn139  1  0.43763438  0.43889756  0.18830097  1
  Zn  Zn140  1  0.43710154  0.43674880  0.68847490  1
  Zn  Zn141  1  0.44847948  0.96834286  0.19780842  1
  Zn  Zn142  1  0.43681571  0.93392733  0.68895712  1
  Zn  Zn143  1  0.94134591  0.43889797  0.19217677  1
  Zn  Zn144  1  0.93851921  0.44322462  0.68657402  1
  Zn  Zn145  1  0.93785918  0.94013497  0.18672490  1
  Zn  Zn146  1  0.93822197  0.93690681  0.68505000  1
  Zn  Zn147  1  0.06010319  0.06508657  0.31313270  1
  Zn  Zn148  1  0.06407044  0.06172025  0.81084422  1
  Zn  Zn149  1  0.05642998  0.56401875  0.31222599  1
  Zn  Zn150  1  0.06166703  0.56191302  0.81512805  1
  Zn  Zn151  1  0.53577177  0.07984339  0.31714887  1
  Zn  Zn152  1  0.56422658  0.05847831  0.81270363  1
  Zn  Zn153  1  0.56146563  0.55894804  0.31265764  1
  Zn  Zn154  1  0.56249327  0.55939446  0.81084210  1
  Zn  Zn155  1  0.44132672  0.18545829  0.43372141  1
  Zn  Zn156  1  0.46194287  0.21433981  0.98323209  1
  Zn  Zn157  1  0.43654151  0.68709878  0.43339027  1
  Zn  Zn158  1  0.43782177  0.68568195  0.93964043  1
  Zn  Zn159  1  0.93553088  0.28630847  0.43445539  1
  Zn  Zn160  1  0.93853329  0.18582559  0.93270584  1
  Zn  Zn161  1  0.92040441  0.64671788  0.45249099  1
  Zn  Zn162  1  0.93694657  0.68773714  0.93705699  1
  Zn  Zn163  1  0.06849780  0.30723828  0.07452854  1
  Zn  Zn164  1  0.07629528  0.31594821  0.55802852  1
  Zn  Zn165  1  0.06245704  0.81235814  0.06253842  1
  Zn  Zn166  1  0.06163619  0.81418968  0.56386358  1
  Zn  Zn167  1  0.57522267  0.32030743  0.07911381  1
  Zn  Zn168  1  0.56704731  0.31213384  0.56193744  1
  Zn  Zn169  1  0.56015563  0.81906854  0.06738358  1
  Zn  Zn170  1  0.56276770  0.81088483  0.56490805  1
  O  O171  1  0.12328353  0.11635850  0.10993014  1
  O  O172  1  0.11806230  0.11264627  0.63460962  1
  O  O173  1  0.11673443  0.62400719  0.11877176  1
  O  O174  1  0.11706569  0.61524818  0.64263523  1
  O  O175  1  0.63887221  0.11520947  0.11211860  1
  O  O176  1  0.61423695  0.11317434  0.63913948  1
  O  O177  1  0.61132651  0.63141385  0.12631158  1
  O  O178  1  0.61390208  0.62608937  0.61582782  1
  O  O179  1  0.36869482  0.39037440  0.38406735  1
  O  O180  1  0.38451316  0.38757798  0.86986481  1
  O  O181  1  0.38377819  0.87944508  0.36964153  1
  O  O182  1  0.38238588  0.87248555  0.88019030  1
  O  O183  1  0.91568889  0.32081255  0.32693483  1
  O  O184  1  0.87614772  0.39104289  0.86767522  1
  O  O185  1  0.89101870  0.86797852  0.37528132  1
  O  O186  1  0.88147440  0.88028882  0.88166887  1
  O  O187  1  0.25607687  -0.01035846  0.36503270  1
  O  O188  1  0.25230573  0.01109917  0.87210167  1
  O  O189  1  0.25518549  0.51267232  0.37169371  1
  O  O190  1  0.25877369  0.50574374  0.87386002  1
  O  O191  1  0.74881531  -0.00975433  0.36401612  1
  O  O192  1  0.75658990  0.00541077  0.86653405  1
  O  O193  1  0.74585241  0.51940679  0.38193683  1
  O  O194  1  0.75928346  0.51247808  0.87644497  1
  O  O195  1  0.24626978  0.48892855  0.12464791  1
  O  O196  1  0.24529729  0.49930287  0.63958252  1
  O  O197  1  0.24573243  0.98817654  0.13560745  1
  O  O198  1  0.24230394  0.99193898  0.62865002  1
  O  O199  1  0.76670308  0.49385828  0.10957080  1
  O  O200  1  0.74612281  0.49259886  0.62592921  1
  O  O201  1  0.73976741  0.98926929  0.13128169  1
  O  O202  1  0.74426578  0.99401017  0.62881751  1
  O  O203  1  0.01874046  0.37063932  0.23833322  1
  O  O204  1  0.00564132  0.36642865  0.74825050  1
  O  O205  1  0.00685015  0.87255628  0.25381804  1
  O  O206  1  0.00533604  0.87004651  0.75597015  1
  O  O207  1  0.49985669  0.36256031  0.24212120  1
  O  O208  1  0.49838765  0.36511375  0.75897352  1
  O  O209  1  0.50783498  0.87544685  0.25660666  1
  O  O210  1  0.50856579  0.87220018  0.75778212  1
  O  O211  1  0.52355909  0.06671595  0.20763760  1
  O  O212  1  0.49191834  0.13141901  0.75095128  1
  O  O213  1  0.49310207  0.63171875  0.24363551  1
  O  O214  1  0.49209858  0.62364061  0.74080958  1
  O  O215  1  0.98612839  0.13410984  0.25387964  1
  O  O216  1  0.99583154  0.13228569  0.74436473  1
  O  O217  1  0.99089240  0.63233996  0.24515831  1
  O  O218  1  0.99049435  0.63127893  0.75131878  1
  O  O219  1  0.35473555  0.24931148  -0.01219547  1
  O  O220  1  0.37544615  0.25521240  0.50034481  1
  O  O221  1  0.37905767  0.76145378  0.00576921  1
  O  O222  1  0.37688001  0.74447055  0.51291134  1
  O  O223  1  0.86867654  0.24700782  0.00200672  1
  O  O224  1  0.85209879  0.24564860  0.50167263  1
  O  O225  1  0.86712678  0.76478827  -0.00407394  1
  O  O226  1  0.86232453  0.74182543  0.50558265  1
  O  O227  1  0.13848300  0.25343150  0.48545179  1
  O  O228  1  0.12971334  0.23981470  0.99918414  1
  O  O229  1  0.12239638  0.75720930  0.48344848  1
  O  O230  1  0.11709535  0.73717258  0.99381702  1
  O  O231  1  0.63959624  0.25116228  0.50034364  1
  O  O232  1  0.64155737  0.23922970  0.99766051  1
  O  O233  1  0.63338211  0.73964516  0.50117161  1
  O  O234  1  0.63507773  0.75647947  1.00094837  1
  O  O235  1  0.50023060  0.24015926  0.08668688  1
  O  O236  1  0.49642363  0.24230517  0.63637154  1
  O  O237  1  0.49308021  0.74460438  0.12951349  1
  O  O238  1  0.49094771  0.73976018  0.62696529  1
  O  O239  1  0.98874456  0.24883486  0.13859947  1
  O  O240  1  1.00452504  0.24123224  0.63279149  1
  O  O241  1  1.00670989  0.74057375  0.13420951  1
  O  O242  1  0.99750747  0.74600485  0.63488405  1
  O  O243  1  0.02409601  0.23891042  0.37654641  1
  O  O244  1  0.00287134  0.25272057  0.86342798  1
  O  O245  1  0.01556190  0.75996873  0.36251824  1
  O  O246  1  0.00629318  0.75594397  0.87136929  1
  O  O247  1  0.43308297  0.21809989  0.26887660  1
  O  O248  1  0.49880839  0.25971714  0.87464551  1
  O  O249  1  0.49942566  0.75749953  0.36623425  1
  O  O250  1  0.49918288  0.75838290  0.87227287  1
  O  O251  1  0.25827353  0.13623044  0.50763368  1
  O  O252  1  0.24245945  0.12927852  0.99296096  1
  O  O253  1  0.25289970  0.62430349  0.48572103  1
  O  O254  1  0.23770202  0.61861706  0.99642108  1
  O  O255  1  0.74236716  0.12807180  0.50908649  1
  O  O256  1  0.74680819  0.12806217  0.99071423  1
  O  O257  1  0.74003725  0.63169267  0.49306729  1
  O  O258  1  0.74636586  0.64084783  0.99174186  1
  O  O259  1  0.23921257  0.36805740  0.01057443  1
  O  O260  1  0.26657267  0.36352761  0.50506929  1
  O  O261  1  0.25993274  0.88365846  0.00888324  1
  O  O262  1  0.24349845  0.87776827  0.51554921  1
  O  O263  1  0.74935576  0.36658955  -0.00618871  1
  O  O264  1  0.74752944  0.38361893  0.50719220  1
  O  O265  1  0.75629601  0.87431666  0.00406676  1
  O  O266  1  0.75079017  0.86375598  0.50389453  1
  O  O267  1  0.12594833  0.48738287  0.24822852  1
  O  O268  1  0.12867195  0.49199797  0.74874116  1
  O  O269  1  0.13088844  0.98882643  0.24695450  1
  O  O270  1  0.12391067  0.99186339  0.73956396  1
  O  O271  1  0.61345892  0.47839505  0.25715332  1
  O  O272  1  0.62855466  0.49914092  0.74413554  1
  O  O273  1  0.63981016  0.98889845  0.24705413  1
  O  O274  1  0.63207395  0.98984704  0.74237410  1
  O  O275  1  0.35810830  -0.00676327  0.26028359  1
  O  O276  1  0.37444743  0.01099201  0.75221278  1
  O  O277  1  0.37441711  0.50728147  0.26150184  1
  O  O278  1  0.37248745  0.50966788  0.75898119  1
  O  O279  1  0.87089859  0.01052244  0.24729637  1
  O  O280  1  0.87130336  0.00675020  0.75325114  1
  O  O281  1  0.87947917  0.51534217  0.25121499  1
  O  O282  1  0.87523250  0.51240491  0.75957149  1
  O  O283  1  0.14430701  0.36656318  0.35537170  1
  O  O284  1  0.11852266  0.37713728  0.86413524  1
  O  O285  1  0.12057892  0.86703870  0.36528142  1
  O  O286  1  0.12026610  0.87037307  0.87171585  1
  O  O287  1  0.60454602  0.36245782  0.36640656  1
  O  O288  1  0.61192758  0.37328751  0.86952683  1
  O  O289  1  0.61576034  0.87480729  0.36530057  1
  O  O290  1  0.61835048  0.88042239  0.86445271  1
  O  O291  1  0.37318393  0.11889049  0.12817323  1
  O  O292  1  0.38136516  0.12912113  0.64034464  1
  O  O293  1  0.38129027  0.63256743  0.12960390  1
  O  O294  1  0.37871866  0.63034162  0.63199293  1
  O  O295  1  0.88394413  0.12903728  0.11588073  1
  O  O296  1  0.88748446  0.11875422  0.63714833  1
  O  O297  1  0.88536307  0.62996099  0.13846233  1
  O  O298  1  0.88629600  0.63006403  0.63637462  1
  O  O299  1  0.24816946  0.26313982  0.11463290  1
  O  O300  1  0.25804830  0.25201930  0.61673179  1
  O  O301  1  0.25465712  0.76279386  0.13017859  1
  O  O302  1  0.25854753  0.75715557  0.63072764  1
  O  O303  1  0.76366700  0.24263210  0.10867095  1
  O  O304  1  0.74626636  0.26464173  0.61225608  1
  O  O305  1  0.74536018  0.76768584  0.11415314  1
  O  O306  1  0.75531806  0.75255596  0.61619631  1
  O  O307  1  0.24297071  0.24708196  0.38239777  1
  O  O308  1  0.24265565  0.24133099  0.88005303  1
  O  O309  1  0.23579737  0.74799686  0.36857430  1
  O  O310  1  0.24236107  0.74116887  0.87040961  1
  O  O311  1  0.74322303  0.24342989  0.38978987  1
  O  O312  1  0.75310017  0.24402542  0.88141910  1
  O  O313  1  0.74550026  0.74355317  0.38348176  1
  O  O314  1  0.75539937  0.74432049  0.88305748  1
  O  O315  1  0.01048832  0.11879187  -0.00504436  1
  O  O316  1  -0.00012489  0.11604232  0.51639187  1
  O  O317  1  0.00241175  0.61978800  0.00843599  1
  O  O318  1  0.01385170  0.64227603  0.51874487  1
  O  O319  1  0.51556071  0.10887505  -0.01008505  1
  O  O320  1  0.48663166  0.11826998  0.52510894  1
  O  O321  1  0.50288251  0.62106941  0.00866797  1
  O  O322  1  0.50338468  0.62155318  0.50655537  1
  O  O323  1  0.48851240  0.38694139  0.50841692  1
  O  O324  1  0.50807002  0.38538437  0.99078895  1
  O  O325  1  0.50825931  0.87428735  0.48536366  1
  O  O326  1  0.49404654  0.87621819  0.98852658  1
  O  O327  1  0.98112243  0.35895637  0.51347104  1
  O  O328  1  1.00958053  0.39022233  1.00333141  1
  O  O329  1  0.99803761  0.88089024  0.49222234  1
  O  O330  1  0.99324091  0.87980561  0.99660371  1
  O  O331  1  0.48156524  0.51404119  0.38866794  1
  O  O332  1  0.49351466  0.49540085  0.88221610  1
  O  O333  1  0.48210528  0.99218113  0.37763276  1
  O  O334  1  0.50025878  0.98642606  0.88199904  1
  O  O335  1  1.04274631  0.49400556  0.39536512  1
  O  O336  1  0.98784207  0.50459106  0.88744910  1
  O  O337  1  1.01345201  0.98841566  0.38545931  1
  O  O338  1  0.99601210  0.99384635  0.87984782  1
  O  O339  1  0.00906445  0.00159340  0.11873601  1
  O  O340  1  0.00874229  0.00353337  0.61986306  1
  O  O341  1  -0.00032320  0.51289940  0.11779725  1
  O  O342  1  0.00956152  0.51064650  0.62623443  1
  O  O343  1  0.51189879  -0.02518045  0.10070541  1
  O  O344  1  0.50737256  0.00392655  0.62862807  1
  O  O345  1  0.48965200  0.51211596  0.11452515  1
  O  O346  1  0.49412255  0.51224970  0.61502075  1
  O  O347  1  0.24204136  0.37349047  0.23489771  1
  O  O348  1  0.24097014  0.37914889  0.75372305  1
  O  O349  1  0.24040339  0.87943677  0.24092744  1
  O  O350  1  0.24223712  0.87702933  0.74333597  1
  O  O351  1  0.74118663  0.38736553  0.28555065  1
  O  O352  1  0.74349037  0.37476845  0.73788138  1
  O  O353  1  0.74704433  0.87756181  0.24425675  1
  O  O354  1  0.74520568  0.87963056  0.74507582  1
  O  O355  1  0.24171765  0.10476448  0.24632407  1
  O  O356  1  0.25689057  0.12686216  0.75774730  1
  O  O357  1  0.25666152  0.62524551  0.25584090  1
  O  O358  1  0.25887915  0.61860366  0.75918878  1
  O  O359  1  0.76190047  0.11218044  0.24379335  1
  O  O360  1  0.75942418  0.12323000  0.74949366  1
  O  O361  1  0.76007336  0.62813733  0.24996542  1
  O  O362  1  0.76243050  0.62910475  0.75565531  1
  O  O363  1  0.37274994  0.10532691  0.37739464  1
  O  O364  1  0.36284899  0.12398019  0.86624488  1
  O  O365  1  0.36484351  0.62232270  0.36920393  1
  O  O366  1  0.37230800  0.61843057  0.86878120  1
  O  O367  1  0.87109240  0.12736450  0.36269466  1
  O  O368  1  0.87218237  0.11857407  0.86205788  1
  O  O369  1  0.86432527  0.63794115  0.35391884  1
  O  O370  1  0.86739918  0.61966591  0.86967136  1
  O  O371  1  0.13585416  0.37613354  0.13580678  1
  O  O372  1  0.12758096  0.38242161  0.64016447  1
  O  O373  1  0.13183165  0.87879439  0.12926360  1
  O  O374  1  0.13144871  0.87999949  0.63150133  1
  O  O375  1  0.63940555  0.37060649  0.15343708  1
  O  O376  1  0.63546711  0.38051745  0.62482253  1
  O  O377  1  0.63105522  0.88558244  0.13648952  1
  O  O378  1  0.63010714  0.88216125  0.63315604  1
  O  O379  1  0.10992665  0.25957454  0.26390203  1
  O  O380  1  0.11672708  0.25777960  0.75010010  1
  O  O381  1  0.11653306  0.76259375  0.24991341  1
  O  O382  1  0.11965660  0.75541383  0.75823586  1
  O  O383  1  0.62682701  0.25447778  0.25529487  1
  O  O384  1  0.61022306  0.24703055  0.75409005  1
  O  O385  1  0.61923821  0.76333914  0.24894548  1
  O  O386  1  0.62601638  0.76371558  0.74158415  1
  O  O387  1  0.36199628  0.24987585  0.25051231  1
  O  O388  1  0.38345410  0.24337038  0.74812792  1
  O  O389  1  0.37970265  0.74682452  0.24283943  1
  O  O390  1  0.37758972  0.73517266  0.74562832  1
  O  O391  1  0.86786112  0.22644101  0.23208019  1
  O  O392  1  0.88671661  0.24062436  0.75065830  1
  O  O393  1  0.88822038  0.74973836  0.24822142  1
  O  O394  1  0.88082377  0.74356677  0.74611542  1
  O  O395  1  0.37660319  0.49416215  0.49559813  1
  O  O396  1  0.38585693  0.50860846  0.98780897  1
  O  O397  1  0.37050002  0.99548951  0.48963246  1
  O  O398  1  0.38546946  0.98627786  0.99509398  1
  O  O399  1  0.89065051  0.54013080  0.48512200  1
  O  O400  1  0.87783822  0.49748436  0.99765975  1
  O  O401  1  0.89167144  0.99614435  0.50528178  1
  O  O402  1  0.87919550  0.99103639  0.99247343  1
  O  O403  1  0.12028690  0.00508300  0.00412520  1
  O  O404  1  0.11493220  -0.00571016  0.51415762  1
  O  O405  1  0.11407810  0.51392655  -0.00055373  1
  O  O406  1  0.14011213  0.49002401  0.52575323  1
  O  O407  1  0.62305429  0.00579067  0.00806853  1
  O  O408  1  0.62170565  -0.00413042  0.51607980  1
  O  O409  1  0.61113420  0.50791192  -0.00501952  1
  O  O410  1  0.61057040  0.51472986  0.49911408  1
  O  O411  1  0.35867277  0.38137157  0.12547489  1
  O  O412  1  0.37463993  0.36747506  0.61924652  1
  O  O413  1  0.36801755  0.87052737  0.11573276  1
  O  O414  1  0.36606513  0.86356698  0.63328078  1
  O  O415  1  0.87645775  0.36494855  0.12422947  1
  O  O416  1  0.85651979  0.38333663  0.63192899  1
  O  O417  1  0.86526483  0.88505467  0.11409554  1
  O  O418  1  0.86862637  0.86652430  0.62286613  1
  O  O419  1  0.13505795  0.13254113  0.36787538  1
  O  O420  1  0.13384327  0.12303784  0.88295005  1
  O  O421  1  0.13152849  0.64320546  0.36541790  1
  O  O422  1  0.13008102  0.62918893  0.88287158  1
  O  O423  1  0.53933307  0.16725070  0.38238509  1
  O  O424  1  0.63396953  0.12335166  0.88293041  1
  O  O425  1  0.62899780  0.62992312  0.38034317  1
  O  O426  1  0.63945021  0.62376006  0.87224112  1
