# generated using pymatgen
data_V85Zn86O256
_symmetry_space_group_name_H-M   'P 1'
_cell_length_a   16.96721523
_cell_length_b   16.94498015
_cell_length_c   16.95588995
_cell_angle_alpha   90.00845880
_cell_angle_beta   90.04036819
_cell_angle_gamma   89.84397584
_symmetry_Int_Tables_number   1
_chemical_formula_structural   V85Zn86O256
_chemical_formula_sum   'V85 Zn86 O256'
_cell_volume   4874.95374994
_cell_formula_units_Z   1
loop_
 _symmetry_equiv_pos_site_id
 _symmetry_equiv_pos_as_xyz
  1  'x, y, z'
loop_
 _atom_site_type_symbol
 _atom_site_label
 _atom_site_symmetry_multiplicity
 _atom_site_fract_x
 _atom_site_fract_y
 _atom_site_fract_z
 _atom_site_occupancy
  V  V0  1  0.74861986  0.13091667  0.88128459  1
  V  V1  1  0.25131655  0.87725163  0.62267989  1
  V  V2  1  0.62733470  0.37403594  0.74758556  1
  V  V3  1  0.48515108  0.88061790  0.37512194  1
  V  V4  1  0.00166754  0.61771618  0.12532675  1
  V  V5  1  0.74705035  -0.00360174  0.75021343  1
  V  V6  1  0.37428723  0.75031850  0.12531822  1
  V  V7  1  0.74926420  0.49903896  0.74926535  1
  V  V8  1  0.37493876  0.12678496  0.26730368  1
  V  V9  1  0.87399118  0.74244304  0.62414223  1
  V  V10  1  0.37506079  0.62224059  0.25052658  1
  V  V11  1  -0.00127890  0.74796979  0.74995533  1
  V  V12  1  0.25616493  0.25398554  0.01167193  1
  V  V13  1  0.87294812  0.74879613  0.12442282  1
  V  V14  1  0.00116989  0.24739940  0.74818542  1
  V  V15  1  0.37604917  0.62628924  0.75034947  1
  V  V16  1  0.25189852  0.61565692  0.37421635  1
  V  V17  1  0.25361726  0.36058949  0.62466011  1
  V  V18  1  0.37839151  0.49990291  0.87516358  1
  V  V19  1  0.50663596  0.76066456  0.75217966  1
  V  V20  1  0.24905767  0.00009682  0.75216254  1
  V  V21  1  0.62282847  0.75339632  0.37363720  1
  V  V22  1  0.00557461  0.00375377  0.01487470  1
  V  V23  1  0.49349884  0.37455936  0.37546791  1
  V  V24  1  0.62324024  0.12007746  0.01269765  1
  V  V25  1  0.49720674  0.62713166  0.62359067  1
  V  V26  1  0.38315572  0.00041790  0.88040779  1
  V  V27  1  0.12235034  0.88330178  0.24322306  1
  V  V28  1  0.12764015  0.61726330  0.00624413  1
  V  V29  1  -0.00117127  0.00284799  0.50411378  1
  V  V30  1  0.24891193  0.49906778  0.23340252  1
  V  V31  1  0.62188767  0.49962724  0.62184793  1
  V  V32  1  0.12112742  0.74938054  0.37275438  1
  V  V33  1  0.62175930  0.62208147  0.01195878  1
  V  V34  1  0.37004007  0.35530616  0.50204728  1
  V  V35  1  0.62495597  0.00122214  0.62262331  1
  V  V36  1  0.25269056  0.75518859  0.49910888  1
  V  V37  1  0.12206254  0.37526475  0.75411458  1
  V  V38  1  0.50533421  0.49968277  0.01351319  1
  V  V39  1  0.12352707  0.62284715  0.50167626  1
  V  V40  1  0.11779710  0.00493296  0.62883366  1
  V  V41  1  0.74909390  0.62513822  0.87623389  1
  V  V42  1  0.37306023  0.75409135  0.62354055  1
  V  V43  1  0.87715913  -0.00023379  0.87639317  1
  V  V44  1  0.25054612  0.12634101  0.87940220  1
  V  V45  1  0.74159664  0.01190791  0.25146405  1
  V  V46  1  0.25213637  0.62450175  0.87527022  1
  V  V47  1  0.62278956  0.88028619  0.24266185  1
  V  V48  1  0.62026371  0.62580636  0.49647952  1
  V  V49  1  0.48491274  0.12177816  0.12062866  1
  V  V50  1  0.12571263  0.74915635  0.87544406  1
  V  V51  1  -0.00490853  0.87514727  0.37762329  1
  V  V52  1  0.88015201  0.24150580  0.11872521  1
  V  V53  1  0.88454654  0.12625634  0.26019438  1
  V  V54  1  0.74806968  0.74788407  0.49914170  1
  V  V55  1  0.00154007  0.87432118  0.87740249  1
  V  V56  1  0.49690698  0.25065909  0.74342891  1
  V  V57  1  0.38191459  0.87833998  -0.00056941  1
  V  V58  1  0.13532795  0.25090421  0.38198846  1
  V  V59  1  0.74892150  0.62469830  0.37056070  1
  V  V60  1  0.37573508  0.13025094  0.74544573  1
  V  V61  1  0.63886200  0.13056720  0.49477991  1
  V  V62  1  0.12386537  0.12335820  0.01650831  1
  V  V63  1  0.00160269  0.37339628  0.37530663  1
  V  V64  1  0.48545319  0.50317342  0.49453487  1
  V  V65  1  -0.00165829  0.49662651  0.49859705  1
  V  V66  1  0.74513346  0.87353113  0.62601522  1
  V  V67  1  0.87460881  0.25501057  0.61685544  1
  V  V68  1  0.87881590  0.37281832  -0.00482736  1
  V  V69  1  0.87493652  0.87538844  0.00392477  1
  V  V70  1  0.74470805  0.37196974  0.11867685  1
  V  V71  1  0.00277089  0.49368676  -0.00564036  1
  V  V72  1  0.13072898  0.37885217  0.23941588  1
  V  V73  1  0.37614566  0.37043116  0.01291246  1
  V  V74  1  0.88086463  0.12352364  0.74455315  1
  V  V75  1  0.87503974  0.49487752  0.37040776  1
  V  V76  1  0.74256497  0.49873255  0.24306449  1
  V  V77  1  0.25123192  0.75031458  -0.00035126  1
  V  V78  1  0.49773459  0.74879918  0.24649445  1
  V  V79  1  0.25156727  0.49809773  0.74865213  1
  V  V80  1  0.48843222  0.00047541  0.49411619  1
  V  V81  1  0.12080549  0.25291792  0.87805901  1
  V  V82  1  0.50128236  0.37499971  0.87495841  1
  V  V83  1  0.63737978  0.25296708  0.37380363  1
  V  V84  1  0.12721295  0.12890636  0.50288363  1
  Zn  Zn85  1  0.49286925  0.25622934  0.24074490  1
  Zn  Zn86  1  0.63093615  0.25262196  0.87801268  1
  Zn  Zn87  1  -0.00330729  0.74679681  0.24995532  1
  Zn  Zn88  1  0.87556189  0.62031987  0.75353212  1
  Zn  Zn89  1  0.87473401  0.62389486  0.24621708  1
  Zn  Zn90  1  0.87955486  0.49276084  0.87125298  1
  Zn  Zn91  1  0.87152646  0.87571464  0.49900915  1
  Zn  Zn92  1  0.74288423  0.88041428  0.12313579  1
  Zn  Zn93  1  -0.00075435  0.62042519  0.62680914  1
  Zn  Zn94  1  0.25727397  0.00018231  0.25144044  1
  Zn  Zn95  1  0.51349534  0.88561288  0.87655738  1
  Zn  Zn96  1  0.49650658  0.13006734  0.61924995  1
  Zn  Zn97  1  0.74382972  0.35481157  0.59519747  1
  Zn  Zn98  1  0.01045874  0.24299104  0.24684204  1
  Zn  Zn99  1  0.24243916  0.88302511  0.12003711  1
  Zn  Zn100  1  0.62997570  0.75702220  0.87259212  1
  Zn  Zn101  1  0.86624213  0.00784468  0.38307523  1
  Zn  Zn102  1  0.74522222  0.75237860  -0.00099836  1
  Zn  Zn103  1  0.61920459  0.37658484  0.24179397  1
  Zn  Zn104  1  0.25505875  0.11775982  0.38362129  1
  Zn  Zn105  1  0.12471202  0.49601456  0.62493775  1
  Zn  Zn106  1  0.12488095  0.87535120  0.75196916  1
  Zn  Zn107  1  0.19539017  0.19237003  0.19383415  1
  Zn  Zn108  1  0.18632531  0.18448344  0.68968034  1
  Zn  Zn109  1  0.18904020  0.69077661  0.18644553  1
  Zn  Zn110  1  0.18687610  0.68702478  0.68750705  1
  Zn  Zn111  1  0.69071065  0.19377973  0.18808808  1
  Zn  Zn112  1  0.68940180  0.18504023  0.68809247  1
  Zn  Zn113  1  0.68811705  0.69091527  0.18694300  1
  Zn  Zn114  1  0.68641271  0.68237992  0.68598907  1
  Zn  Zn115  1  0.31299994  0.31055586  0.31002535  1
  Zn  Zn116  1  0.31183897  0.31289825  0.81816479  1
  Zn  Zn117  1  0.30623562  0.81131638  0.31238763  1
  Zn  Zn118  1  0.31518993  0.81496399  0.81222347  1
  Zn  Zn119  1  0.81383721  0.31325161  0.30649053  1
  Zn  Zn120  1  0.81465484  0.31218962  0.80726937  1
  Zn  Zn121  1  0.80908923  0.81496598  0.30902973  1
  Zn  Zn122  1  0.81310960  0.81201753  0.81399528  1
  Zn  Zn123  1  0.19014633  0.43403875  0.43692000  1
  Zn  Zn124  1  0.19252828  0.43658226  0.94025567  1
  Zn  Zn125  1  0.18641667  0.94054590  0.43487253  1
  Zn  Zn126  1  0.18815754  0.93870051  0.94091379  1
  Zn  Zn127  1  0.68108789  0.43892165  0.43185827  1
  Zn  Zn128  1  0.68867778  0.43973057  0.93845337  1
  Zn  Zn129  1  0.68360992  0.93784465  0.43337562  1
  Zn  Zn130  1  0.68607069  0.93986685  0.93729966  1
  Zn  Zn131  1  0.30683366  0.05835046  0.06805452  1
  Zn  Zn132  1  0.30780233  0.06428299  0.56466452  1
  Zn  Zn133  1  0.32047571  0.56233235  0.06145753  1
  Zn  Zn134  1  0.30798278  0.56229129  0.56629985  1
  Zn  Zn135  1  0.81109754  0.05933037  0.06682113  1
  Zn  Zn136  1  0.81498991  0.06567607  0.56447214  1
  Zn  Zn137  1  0.81341917  0.55795006  0.05962905  1
  Zn  Zn138  1  0.79554078  0.53211098  0.54450561  1
  Zn  Zn139  1  0.43587897  0.44017541  0.19152934  1
  Zn  Zn140  1  0.43608915  0.43663231  0.68334394  1
  Zn  Zn141  1  0.43723641  0.94486958  0.18419669  1
  Zn  Zn142  1  0.43508974  0.94276205  0.68557346  1
  Zn  Zn143  1  0.93755769  0.43342045  0.18470397  1
  Zn  Zn144  1  0.93733327  0.43430561  0.68567564  1
  Zn  Zn145  1  0.93474127  0.93887077  0.19365830  1
  Zn  Zn146  1  0.93354535  0.93108726  0.68776206  1
  Zn  Zn147  1  0.06523264  0.06087183  0.31952105  1
  Zn  Zn148  1  0.06287319  0.06291361  0.82056950  1
  Zn  Zn149  1  0.06486594  0.55985088  0.30948494  1
  Zn  Zn150  1  0.06466036  0.56235612  0.81534493  1
  Zn  Zn151  1  0.55882822  0.06789033  0.31116858  1
  Zn  Zn152  1  0.56488722  0.06480875  0.81028852  1
  Zn  Zn153  1  0.56025477  0.56112550  0.31136256  1
  Zn  Zn154  1  0.56405450  0.56580156  0.81560343  1
  Zn  Zn155  1  0.44861499  0.18828704  0.43729986  1
  Zn  Zn156  1  0.44218280  0.18887177  0.93838930  1
  Zn  Zn157  1  0.43449500  0.69195906  0.43291406  1
  Zn  Zn158  1  0.44162265  0.68819761  0.93799066  1
  Zn  Zn159  1  0.94547056  0.18904556  0.43673116  1
  Zn  Zn160  1  0.93987808  0.18361223  0.93642559  1
  Zn  Zn161  1  0.93301043  0.68300286  0.43764064  1
  Zn  Zn162  1  0.93702435  0.68382687  0.93871437  1
  Zn  Zn163  1  0.06124787  0.30727674  0.06291173  1
  Zn  Zn164  1  0.06106851  0.31299179  0.56684959  1
  Zn  Zn165  1  0.05802674  0.80653618  0.06106271  1
  Zn  Zn166  1  0.06357717  0.81517904  0.56408195  1
  Zn  Zn167  1  0.56462592  0.29884864  0.05653590  1
  Zn  Zn168  1  0.55971658  0.31387077  0.55938844  1
  Zn  Zn169  1  0.56166336  0.80913217  0.06066280  1
  Zn  Zn170  1  0.55921362  0.81658901  0.56102199  1
  O  O171  1  0.12841578  0.13572169  0.11499172  1
  O  O172  1  0.12653937  0.11316677  0.62108477  1
  O  O173  1  0.11722748  0.63265633  0.11410035  1
  O  O174  1  0.12486695  0.62228612  0.61250845  1
  O  O175  1  0.63549213  0.12607893  0.11318514  1
  O  O176  1  0.62475762  0.11926749  0.61275789  1
  O  O177  1  0.62841530  0.62700192  0.11104333  1
  O  O178  1  0.61582409  0.62054294  0.61612443  1
  O  O179  1  0.38052177  0.36818117  0.39056450  1
  O  O180  1  0.38689902  0.38099854  0.87900101  1
  O  O181  1  0.38569864  0.87183515  0.36855908  1
  O  O182  1  0.37652380  0.88482098  0.88145400  1
  O  O183  1  0.88815364  0.38391943  0.36470048  1
  O  O184  1  0.86834683  0.37044975  0.89054426  1
  O  O185  1  0.88622948  0.87282353  0.37568641  1
  O  O186  1  0.88037008  0.87902089  0.88514752  1
  O  O187  1  0.23444482  0.00740088  0.36297788  1
  O  O188  1  0.25646304  0.01006540  0.87237898  1
  O  O189  1  0.24600339  0.51302091  0.36970730  1
  O  O190  1  0.25822938  0.50511465  0.86934389  1
  O  O191  1  0.75412450  -0.00873361  0.35859436  1
  O  O192  1  0.75785126  0.00690633  0.86560614  1
  O  O193  1  0.75766430  0.50385517  0.36336636  1
  O  O194  1  0.74889353  0.50646239  0.86348256  1
  O  O195  1  0.25113965  0.50464754  0.13401687  1
  O  O196  1  0.24721118  0.48976211  0.63264475  1
  O  O197  1  0.25028979  0.99347920  0.13730421  1
  O  O198  1  0.24018171  0.99389845  0.63076912  1
  O  O199  1  0.75880373  0.48558451  0.13303872  1
  O  O200  1  0.73874157  0.51242193  0.64358772  1
  O  O201  1  0.75867816  0.99480606  0.14553776  1
  O  O202  1  0.74552946  0.99338398  0.63006686  1
  O  O203  1  0.01548667  0.37920579  0.25883262  1
  O  O204  1  0.01406369  0.36655243  0.74851953  1
  O  O205  1  0.00573832  0.86946160  0.25988759  1
  O  O206  1  0.00028391  0.86363734  0.75750788  1
  O  O207  1  0.50059075  0.37603162  0.25986204  1
  O  O208  1  0.50647739  0.37141439  0.75512018  1
  O  O209  1  0.50352281  0.87103723  0.25565664  1
  O  O210  1  0.49423245  0.86299190  0.74718398  1
  O  O211  1  0.48845815  0.13010308  0.24409923  1
  O  O212  1  0.49308188  0.13407904  0.74919117  1
  O  O213  1  0.48860777  0.63733228  0.26033334  1
  O  O214  1  0.49428064  0.63292709  0.74322411  1
  O  O215  1  0.98798913  0.12291906  0.25340707  1
  O  O216  1  0.99109495  0.13267400  0.75895531  1
  O  O217  1  0.99971547  0.62431014  0.23893206  1
  O  O218  1  0.99846046  0.63415523  0.74902652  1
  O  O219  1  0.36793904  0.25926677  -0.00954840  1
  O  O220  1  0.37999025  0.25713945  0.50488700  1
  O  O221  1  0.37177231  0.75380081  0.00691143  1
  O  O222  1  0.35948725  0.74544547  0.50500841  1
  O  O223  1  0.88339861  0.25323121  0.01191623  1
  O  O224  1  0.88752710  0.24172453  0.51886442  1
  O  O225  1  0.87674395  0.75982453  0.00656009  1
  O  O226  1  0.86679153  0.74945075  0.50778248  1
  O  O227  1  0.11313925  0.23942884  0.49531335  1
  O  O228  1  0.13207106  0.24539800  0.99363783  1
  O  O229  1  0.13055188  0.74216709  0.49328828  1
  O  O230  1  0.13048184  0.73997301  0.99439514  1
  O  O231  1  0.62192428  0.23947549  0.49385676  1
  O  O232  1  0.62764695  0.22959372  0.98959237  1
  O  O233  1  0.62714956  0.74566488  0.49423352  1
  O  O234  1  0.62397617  0.73508782  0.99712581  1
  O  O235  1  0.51306806  0.23020317  0.12983679  1
  O  O236  1  0.50316737  0.25010640  0.63887376  1
  O  O237  1  0.48970866  0.75430636  0.13866370  1
  O  O238  1  0.49336053  0.74844145  0.63059189  1
  O  O239  1  0.98442356  0.25512611  0.13326410  1
  O  O240  1  0.99207160  0.25156785  0.64005487  1
  O  O241  1  0.98972810  0.73643581  0.12401182  1
  O  O242  1  0.99226578  0.75087958  0.63232429  1
  O  O243  1  0.00833516  0.26083814  0.37019667  1
  O  O244  1  0.01339003  0.24633935  0.86792843  1
  O  O245  1  0.00679294  0.75467229  0.37850987  1
  O  O246  1  0.00409054  0.75250995  0.86900320  1
  O  O247  1  0.50926861  0.26418083  0.37532607  1
  O  O248  1  0.50354770  0.26126816  0.86475825  1
  O  O249  1  0.50242287  0.76029736  0.36646521  1
  O  O250  1  0.49828454  0.75121365  0.85791336  1
  O  O251  1  0.23273364  0.12057992  0.50092790  1
  O  O252  1  0.24466583  0.13160786  0.99405026  1
  O  O253  1  0.24194511  0.63155435  0.49344396  1
  O  O254  1  0.24584287  0.62828655  0.99601902  1
  O  O255  1  0.73767795  0.12127592  0.49862557  1
  O  O256  1  0.75028482  0.12028078  0.98525072  1
  O  O257  1  0.74035122  0.62655708  0.49120852  1
  O  O258  1  0.73813409  0.61998507  0.99327813  1
  O  O259  1  0.26416696  0.36641990  -0.00761344  1
  O  O260  1  0.26341852  0.37698655  0.50640167  1
  O  O261  1  0.26018196  0.86709083  -0.00099290  1
  O  O262  1  0.23827690  0.86426993  0.50795381  1
  O  O263  1  0.75932106  0.38222702  0.01241077  1
  O  O264  1  0.75465757  0.42537878  0.51280047  1
  O  O265  1  0.76446078  0.87823151  0.00340964  1
  O  O266  1  0.74887233  0.86787272  0.50737017  1
  O  O267  1  0.13394593  0.48744166  0.25240623  1
  O  O268  1  0.13097380  0.49044147  0.75240118  1
  O  O269  1  0.11259988  0.98317750  0.24848654  1
  O  O270  1  0.12899647  1.00122108  0.74515552  1
  O  O271  1  0.63714402  0.49561437  0.25554085  1
  O  O272  1  0.62643365  0.49161073  0.74473370  1
  O  O273  1  0.63436549  0.99718879  0.25581744  1
  O  O274  1  0.63574651  1.00998121  0.73502664  1
  O  O275  1  0.37860924  0.02083967  0.24942028  1
  O  O276  1  0.36867298  0.00896376  0.75942260  1
  O  O277  1  0.36674757  0.51404424  0.24576952  1
  O  O278  1  0.37234220  0.50556942  0.75474443  1
  O  O279  1  0.86929861  0.01449890  0.25414517  1
  O  O280  1  0.87004210  0.00555545  0.75339900  1
  O  O281  1  0.86775722  0.50039156  0.25621853  1
  O  O282  1  0.86555158  0.49813060  0.75180377  1
  O  O283  1  0.11968073  0.36828991  0.37191914  1
  O  O284  1  0.13616453  0.36333335  0.86552269  1
  O  O285  1  0.11352383  0.86594412  0.36856939  1
  O  O286  1  0.11996614  0.86735810  0.87562097  1
  O  O287  1  0.61381845  0.36439614  0.37897020  1
  O  O288  1  0.61783163  0.37596668  0.86651674  1
  O  O289  1  0.61364414  0.87088184  0.36380777  1
  O  O290  1  0.62462943  0.87052297  0.87706575  1
  O  O291  1  0.38389360  0.12800115  0.12101428  1
  O  O292  1  0.37475263  0.11925281  0.64180092  1
  O  O293  1  0.36967139  0.63928220  0.13562202  1
  O  O294  1  0.37735354  0.63316814  0.63044235  1
  O  O295  1  0.86853657  0.13824642  0.13220527  1
  O  O296  1  0.87224726  0.13327740  0.63894161  1
  O  O297  1  0.88224120  0.63199302  0.12092845  1
  O  O298  1  0.87453897  0.63738309  0.62710915  1
  O  O299  1  0.25048666  0.24973228  0.11018207  1
  O  O300  1  0.24771398  0.26095341  0.63088845  1
  O  O301  1  0.25873580  0.75634572  0.11942398  1
  O  O302  1  0.25114672  0.75753657  0.61848099  1
  O  O303  1  0.76573664  0.26434033  0.13125499  1
  O  O304  1  0.76586568  0.24834984  0.62969902  1
  O  O305  1  0.76082074  0.75407663  0.11974380  1
  O  O306  1  0.75307964  0.75480951  0.62149195  1
  O  O307  1  0.23738026  0.24855922  0.37810505  1
  O  O308  1  0.24233485  0.24057575  0.88134855  1
  O  O309  1  0.23920345  0.74315291  0.38241893  1
  O  O310  1  0.24707893  0.74367243  0.87896226  1
  O  O311  1  0.73626329  0.26358516  0.37738299  1
  O  O312  1  0.75291537  0.23297980  0.86548273  1
  O  O313  1  0.74330913  0.74576445  0.37863332  1
  O  O314  1  0.75131859  0.74007078  0.87858236  1
  O  O315  1  0.01195269  0.11566899  -0.00550101  1
  O  O316  1  0.00938478  0.11002010  0.49621902  1
  O  O317  1  0.00943734  0.61689735  0.00558240  1
  O  O318  1  0.01002431  0.61711547  0.49866670  1
  O  O319  1  0.51039014  0.12671987  0.01004712  1
  O  O320  1  0.51021939  0.11361351  0.50191220  1
  O  O321  1  0.51284372  0.61547512  -0.00652112  1
  O  O322  1  0.49941216  0.62279585  0.50134168  1
  O  O323  1  0.48584562  0.38217811  0.49752917  1
  O  O324  1  0.49859466  0.37815398  0.99142473  1
  O  O325  1  0.50472288  0.89071117  0.49074082  1
  O  O326  1  0.48526893  0.86685851  0.99572682  1
  O  O327  1  1.00891115  0.38589547  0.48868094  1
  O  O328  1  0.99379715  0.38362986  1.00759894  1
  O  O329  1  0.99968799  0.88243714  0.49312297  1
  O  O330  1  0.99419095  0.88166366  0.99623644  1
  O  O331  1  0.50422304  0.48724624  0.38335754  1
  O  O332  1  0.49766160  0.49014017  0.87954069  1
  O  O333  1  0.50427097  0.99634716  0.38730992  1
  O  O334  1  0.48711340  1.00231400  0.86737232  1
  O  O335  1  0.99549660  0.49379096  0.37798593  1
  O  O336  1  0.99865989  0.50383405  0.88884024  1
  O  O337  1  0.99826851  0.98968295  0.38653124  1
  O  O338  1  0.99466617  0.99292478  0.88274176  1
  O  O339  1  -0.00520441  -0.00343760  0.11347848  1
  O  O340  1  0.00852847  -0.01189977  0.61862561  1
  O  O341  1  -0.00563332  0.51062872  0.11417877  1
  O  O342  1  0.00162993  0.49996500  0.61332947  1
  O  O343  1  0.50474396  0.02216291  0.13181691  1
  O  O344  1  0.50985250  -0.00104130  0.61413071  1
  O  O345  1  0.50037929  0.49618896  0.11273537  1
  O  O346  1  0.50202078  0.50700664  0.61600144  1
  O  O347  1  0.24013026  0.38474437  0.25701286  1
  O  O348  1  0.24493880  0.37772087  0.74470580  1
  O  O349  1  0.22919825  0.87207724  0.25342874  1
  O  O350  1  0.24705032  0.88082479  0.74225744  1
  O  O351  1  0.74885355  0.38210328  0.23751771  1
  O  O352  1  0.73856738  0.38271365  0.75255986  1
  O  O353  1  0.73689454  0.88094617  0.24778640  1
  O  O354  1  0.75663626  0.88670107  0.74117865  1
  O  O355  1  0.26553092  0.12827183  0.25494546  1
  O  O356  1  0.25658165  0.12238713  0.76085736  1
  O  O357  1  0.25294385  0.61892519  0.25528013  1
  O  O358  1  0.25535496  0.62009873  0.75502256  1
  O  O359  1  0.75493701  0.11531093  0.25008368  1
  O  O360  1  0.75971084  0.11397064  0.75635606  1
  O  O361  1  0.74965053  0.61670126  0.25216968  1
  O  O362  1  0.74956198  0.61820439  0.75981171  1
  O  O363  1  0.37615271  0.12883554  0.37100878  1
  O  O364  1  0.36762300  0.11944129  0.87220069  1
  O  O365  1  0.36138861  0.63682367  0.36177367  1
  O  O366  1  0.37116770  0.62002613  0.87129084  1
  O  O367  1  0.87572440  0.12986240  0.36374812  1
  O  O368  1  0.86694133  0.11997392  0.86753940  1
  O  O369  1  0.86792790  0.61588622  0.36869014  1
  O  O370  1  0.86247867  0.61941125  0.87716994  1
  O  O371  1  0.12345838  0.36758520  0.14152997  1
  O  O372  1  0.13380634  0.37472603  0.63583341  1
  O  O373  1  0.11993142  0.86077318  0.14131663  1
  O  O374  1  0.13424570  0.88400664  0.62888219  1
  O  O375  1  0.64142404  0.36413958  0.12151729  1
  O  O376  1  0.62507725  0.37989941  0.63228451  1
  O  O377  1  0.62080490  0.87115434  0.13804640  1
  O  O378  1  0.63612942  0.88595170  0.61821140  1
  O  O379  1  0.12791744  0.26195721  0.26065882  1
  O  O380  1  0.11967493  0.25358956  0.75775035  1
  O  O381  1  0.12183526  0.75180039  0.26303144  1
  O  O382  1  0.11523048  0.74894930  0.75560268  1
  O  O383  1  0.62423349  0.25188846  0.26562618  1
  O  O384  1  0.61893053  0.25906301  0.75165234  1
  O  O385  1  0.61517409  0.75705946  0.25302913  1
  O  O386  1  0.60867642  0.74639272  0.74510642  1
  O  O387  1  0.37671259  0.23631298  0.25222073  1
  O  O388  1  0.38387337  0.24098803  0.76023668  1
  O  O389  1  0.37796054  0.74600418  0.24337756  1
  O  O390  1  0.38248124  0.74564576  0.74322928  1
  O  O391  1  0.87560051  0.23718972  0.24355071  1
  O  O392  1  0.88518982  0.24292764  0.74706805  1
  O  O393  1  0.87515183  0.74804689  0.23795416  1
  O  O394  1  0.88358105  0.74878276  0.74332801  1
  O  O395  1  0.38352386  0.50274174  0.50090196  1
  O  O396  1  0.38535394  0.49263033  0.99466549  1
  O  O397  1  0.39025883  1.00804323  0.50573488  1
  O  O398  1  0.36852856  0.99098160  0.99063891  1
  O  O399  1  0.89052471  0.50980613  0.48303969  1
  O  O400  1  0.88453997  0.48925625  0.99703729  1
  O  O401  1  0.88359399  0.99844257  0.50100040  1
  O  O402  1  0.88335883  0.99377077  0.99730096  1
  O  O403  1  0.11852030  0.01041235  -0.00262364  1
  O  O404  1  0.11710400  0.00525387  0.51034308  1
  O  O405  1  0.12120954  0.50928331  -0.00441385  1
  O  O406  1  0.11785534  0.50830374  0.49686851  1
  O  O407  1  0.63103871  0.02083267  -0.00622571  1
  O  O408  1  0.62212364  0.01207713  0.50481290  1
  O  O409  1  0.61829745  0.51160504  -0.00463231  1
  O  O410  1  0.60699173  0.50841762  0.50227458  1
  O  O411  1  0.38315703  0.37513260  0.11178184  1
  O  O412  1  0.36883937  0.37695714  0.61153197  1
  O  O413  1  0.37570902  0.86612596  0.11779568  1
  O  O414  1  0.35860479  0.87346222  0.62780008  1
  O  O415  1  0.86941329  0.36492806  0.11642298  1
  O  O416  1  0.87285078  0.35823359  0.62898986  1
  O  O417  1  0.88021150  0.86553598  0.11741388  1
  O  O418  1  0.86233430  0.86347511  0.62268064  1
  O  O419  1  0.12148144  0.13687030  0.38440814  1
  O  O420  1  0.13607747  0.13350366  0.88115980  1
  O  O421  1  0.13051014  0.63108116  0.38176675  1
  O  O422  1  0.13264749  0.62960756  0.88497040  1
  O  O423  1  0.62052475  0.13954694  0.38525914  1
  O  O424  1  0.64150281  0.12364925  0.87300170  1
  O  O425  1  0.62785201  0.63296654  0.37705761  1
  O  O426  1  0.63555829  0.62986053  0.88022981  1
