# generated using pymatgen
data_V85Zn86O256
_symmetry_space_group_name_H-M   'P 1'
_cell_length_a   16.96288683
_cell_length_b   16.97678404
_cell_length_c   16.94534311
_cell_angle_alpha   90.04662971
_cell_angle_beta   89.94295013
_cell_angle_gamma   90.07179587
_symmetry_Int_Tables_number   1
_chemical_formula_structural   V85Zn86O256
_chemical_formula_sum   'V85 Zn86 O256'
_cell_volume   4879.83183609
_cell_formula_units_Z   1
loop_
 _symmetry_equiv_pos_site_id
 _symmetry_equiv_pos_as_xyz
  1  'x, y, z'
loop_
 _atom_site_type_symbol
 _atom_site_label
 _atom_site_symmetry_multiplicity
 _atom_site_fract_x
 _atom_site_fract_y
 _atom_site_fract_z
 _atom_site_occupancy
  V  V0  1  0.87238515  0.87769740  0.50346691  1
  V  V1  1  0.37716532  0.74692575  0.63591926  1
  V  V2  1  0.49865647  0.62505761  0.63114324  1
  V  V3  1  0.00150266  0.00028119  0.50455224  1
  V  V4  1  0.50327513  -0.00237741  0.50117102  1
  V  V5  1  0.12459815  -0.00329388  0.12773771  1
  V  V6  1  0.38033623  0.38104139  0.00091279  1
  V  V7  1  0.63228639  0.00010202  0.63326326  1
  V  V8  1  -0.00020327  0.13013220  0.63001844  1
  V  V9  1  0.86891639  0.36826794  -0.00147111  1
  V  V10  1  0.74606108  0.49836369  0.24805666  1
  V  V11  1  0.01102128  0.87430041  0.37049011  1
  V  V12  1  0.00469769  0.37640227  0.36768233  1
  V  V13  1  0.12706748  0.00061693  0.62907190  1
  V  V14  1  0.62620767  0.86742737  0.75239117  1
  V  V15  1  0.86545148  0.12936817  0.75075743  1
  V  V16  1  0.74224201  0.63123245  0.86916456  1
  V  V17  1  0.25185389  0.12433701  0.37642955  1
  V  V18  1  0.25363289  0.25071754  0.50266246  1
  V  V19  1  0.87582684  0.37600162  0.49936594  1
  V  V20  1  0.37373661  0.49965761  0.37707701  1
  V  V21  1  -0.00235862  0.75249987  0.75478077  1
  V  V22  1  0.74739693  0.38881320  0.62761657  1
  V  V23  1  0.00212499  0.37639793  0.87024095  1
  V  V24  1  0.37839254  -0.00214941  0.37579260  1
  V  V25  1  0.49786747  0.61535555  0.12260420  1
  V  V26  1  0.62531160  0.38425760  0.74450626  1
  V  V27  1  0.25232869  0.87465762  0.62848627  1
  V  V28  1  0.38139722  0.50578162  0.87062411  1
  V  V29  1  0.75357928  0.87800313  0.63656322  1
  V  V30  1  0.62735531  0.75346079  0.37242268  1
  V  V31  1  0.12690659  0.25435860  0.36825538  1
  V  V32  1  0.74763191  0.36730390  0.12066484  1
  V  V33  1  0.12017556  0.87608223  0.75762146  1
  V  V34  1  0.62795363  0.12272743  0.49939528  1
  V  V35  1  -0.00187192  0.50674938  0.00371205  1
  V  V36  1  0.25012141  0.12539150  0.87612517  1
  V  V37  1  0.87620893  0.50486809  0.37284492  1
  V  V38  1  0.51068730  0.87585051  0.88227105  1
  V  V39  1  0.12908018  0.74571660  0.87857083  1
  V  V40  1  0.24861721  0.74888073  0.50098984  1
  V  V41  1  0.24178478  0.37422730  0.12958000  1
  V  V42  1  0.24830879  0.62501919  0.37667771  1
  V  V43  1  0.87354286  0.24649926  0.13112903  1
  V  V44  1  0.24799942  -0.00714678  0.25048348  1
  V  V45  1  0.38257325  0.12367015  0.24657837  1
  V  V46  1  0.37949527  0.13014339  0.75168435  1
  V  V47  1  0.62514449  0.62703795  0.50344726  1
  V  V48  1  0.61903550  0.62327415  -0.00721199  1
  V  V49  1  0.50058315  0.37340026  0.37577614  1
  V  V50  1  0.50366268  0.75383054  0.24866773  1
  V  V51  1  0.74998809  0.13137814  0.88626058  1
  V  V52  1  0.75046727  0.24898560  0.50100066  1
  V  V53  1  0.37577170  0.37398342  0.50321823  1
  V  V54  1  0.87120659  0.75076374  0.61724323  1
  V  V55  1  0.62256665  0.37155050  0.24969475  1
  V  V56  1  0.24224139  0.50597642  0.75465451  1
  V  V57  1  0.50240784  0.12978570  0.63156725  1
  V  V58  1  0.49839264  0.36735604  0.87056735  1
  V  V59  1  0.87463991  0.00470241  0.36852053  1
  V  V60  1  0.24858179  0.25129530  0.00159557  1
  V  V61  1  0.37904765  0.87485216  0.50133947  1
  V  V62  1  0.37976656  0.24718711  0.12592299  1
  V  V63  1  0.62518848  0.24765617  0.37459865  1
  V  V64  1  0.12547692  0.12623634  0.00072433  1
  V  V65  1  0.74462254  0.62600280  0.37812507  1
  V  V66  1  0.00164472  0.62514093  0.61827904  1
  V  V67  1  0.61795484  -0.02289898  0.12710446  1
  V  V68  1  0.62665015  0.24793092  0.87028753  1
  V  V69  1  0.86505271  0.49934334  0.87140724  1
  V  V70  1  0.24786721  0.86902202  0.12170195  1
  V  V71  1  -0.00516901  0.12619845  0.13090767  1
  V  V72  1  0.12405969  0.25705836  0.87015501  1
  V  V73  1  0.12828318  0.12617384  0.50220491  1
  V  V74  1  0.60610206  0.12217436  0.00617666  1
  V  V75  1  -0.00371841  -0.00157168  -0.00618642  1
  V  V76  1  0.25199993  0.00106448  0.75383281  1
  V  V77  1  0.37593032  0.88135807  0.00044898  1
  V  V78  1  0.86745234  0.62093659  0.74786530  1
  V  V79  1  0.87129888  -0.00189023  0.87142721  1
  V  V80  1  0.37108765  0.74729061  0.12019701  1
  V  V81  1  0.50512699  0.49982618  0.50667243  1
  V  V82  1  0.11926386  0.50411194  0.12663830  1
  V  V83  1  0.24212555  0.49450933  0.25337990  1
  V  V84  1  0.24399069  0.37507166  0.63292392  1
  Zn  Zn85  1  0.12501056  0.62458575  0.50223189  1
  Zn  Zn86  1  0.87957082  0.62658660  0.22970031  1
  Zn  Zn87  1  0.50357716  0.24486621  0.24681165  1
  Zn  Zn88  1  0.26179603  0.63365516  0.87914296  1
  Zn  Zn89  1  0.12813704  0.63111697  0.00450155  1
  Zn  Zn90  1  0.74695978  -0.00385682  0.23498712  1
  Zn  Zn91  1  0.87212787  0.87002056  0.00661936  1
  Zn  Zn92  1  0.38072985  0.25361181  0.63106993  1
  Zn  Zn93  1  0.00336703  0.25787881  0.74650211  1
  Zn  Zn94  1  0.12091338  0.49808103  0.62931094  1
  Zn  Zn95  1  0.00086081  0.24927494  0.24969783  1
  Zn  Zn96  1  0.50859132  0.87676706  0.37029903  1
  Zn  Zn97  1  0.61204960  0.48996189  0.11719145  1
  Zn  Zn98  1  0.75930364  0.12844810  0.36247140  1
  Zn  Zn99  1  0.37414442  0.62289547  0.24821303  1
  Zn  Zn100  1  0.00159196  0.73635832  0.23162928  1
  Zn  Zn101  1  0.38136249  0.00455336  0.88256103  1
  Zn  Zn102  1  0.00537521  0.50016035  0.50003389  1
  Zn  Zn103  1  0.75093146  0.75522731  0.00513741  1
  Zn  Zn104  1  0.50181765  0.74287200  0.75825845  1
  Zn  Zn105  1  0.87462211  0.25326855  0.62767303  1
  Zn  Zn106  1  0.12949881  0.75765392  0.35836411  1
  Zn  Zn107  1  0.19141289  0.18191989  0.18803063  1
  Zn  Zn108  1  0.19066093  0.18915302  0.68958927  1
  Zn  Zn109  1  0.18399207  0.68482258  0.19192601  1
  Zn  Zn110  1  0.18908819  0.68630817  0.69215707  1
  Zn  Zn111  1  0.68879762  0.17748368  0.18718641  1
  Zn  Zn112  1  0.68591301  0.19477677  0.68934839  1
  Zn  Zn113  1  0.68161939  0.67908939  0.18650516  1
  Zn  Zn114  1  0.68808001  0.68727215  0.68345462  1
  Zn  Zn115  1  0.31438117  0.31137346  0.31343558  1
  Zn  Zn116  1  0.31047036  0.31469018  0.81287262  1
  Zn  Zn117  1  0.31858468  0.81074377  0.31077516  1
  Zn  Zn118  1  0.31304960  0.81716785  0.81713475  1
  Zn  Zn119  1  0.81256323  0.31382425  0.31151341  1
  Zn  Zn120  1  0.81005429  0.31099085  0.81004796  1
  Zn  Zn121  1  0.82094586  0.80378916  0.21078903  1
  Zn  Zn122  1  0.82742382  0.79787363  0.83870690  1
  Zn  Zn123  1  0.18593193  0.43821130  0.44524335  1
  Zn  Zn124  1  0.18930757  0.44136557  0.94198151  1
  Zn  Zn125  1  0.19220997  0.93885334  0.44234456  1
  Zn  Zn126  1  0.18791499  0.93683320  0.93997001  1
  Zn  Zn127  1  0.68685934  0.43709602  0.43815957  1
  Zn  Zn128  1  0.68225224  0.43850151  0.93592195  1
  Zn  Zn129  1  0.69339615  0.93444108  0.44043841  1
  Zn  Zn130  1  0.69302225  0.94221112  0.94758789  1
  Zn  Zn131  1  0.31378472  0.06224929  0.06390073  1
  Zn  Zn132  1  0.31639295  0.06237873  0.56600149  1
  Zn  Zn133  1  0.30639188  0.56357547  0.05882474  1
  Zn  Zn134  1  0.31494002  0.56161379  0.56677859  1
  Zn  Zn135  1  0.80547775  0.06266620  0.06083947  1
  Zn  Zn136  1  0.81291157  0.06366098  0.56359996  1
  Zn  Zn137  1  0.79929617  0.55840133  0.05385399  1
  Zn  Zn138  1  0.81467076  0.56465998  0.55859685  1
  Zn  Zn139  1  0.43061153  0.43384565  0.19214796  1
  Zn  Zn140  1  0.43572048  0.43797527  0.69037410  1
  Zn  Zn141  1  0.44081305  0.93893582  0.18328311  1
  Zn  Zn142  1  0.44199235  0.93939536  0.69305183  1
  Zn  Zn143  1  0.93431794  0.43712795  0.18768946  1
  Zn  Zn144  1  0.93498328  0.43931222  0.68607249  1
  Zn  Zn145  1  0.94405550  0.93653228  0.18953214  1
  Zn  Zn146  1  0.93719271  0.94142565  0.69316088  1
  Zn  Zn147  1  0.06397399  0.06318098  0.31401601  1
  Zn  Zn148  1  0.06165952  0.06745191  0.81337596  1
  Zn  Zn149  1  0.05997852  0.57011372  0.31019353  1
  Zn  Zn150  1  0.05606385  0.56365026  0.81119286  1
  Zn  Zn151  1  0.56960842  0.05851900  0.30876014  1
  Zn  Zn152  1  0.56372529  0.05740237  0.81630894  1
  Zn  Zn153  1  0.55971677  0.56242242  0.31113218  1
  Zn  Zn154  1  0.56018008  0.55567555  0.81163250  1
  Zn  Zn155  1  0.43990910  0.18501957  0.43969678  1
  Zn  Zn156  1  0.43528643  0.19273038  0.93649504  1
  Zn  Zn157  1  0.43823128  0.68813195  0.43920601  1
  Zn  Zn158  1  0.44058056  0.69329033  0.93907223  1
  Zn  Zn159  1  0.94137301  0.18937125  0.43861329  1
  Zn  Zn160  1  0.93891047  0.18683727  0.93999444  1
  Zn  Zn161  1  0.89553617  0.72769732  0.38951577  1
  Zn  Zn162  1  0.93668793  0.68640881  0.94166640  1
  Zn  Zn163  1  0.05781786  0.31545477  0.05851974  1
  Zn  Zn164  1  0.06562187  0.31384413  0.55715549  1
  Zn  Zn165  1  0.05828639  0.82006275  0.05747451  1
  Zn  Zn166  1  0.06290171  0.81129919  0.56608298  1
  Zn  Zn167  1  0.56386344  0.30624686  0.05617978  1
  Zn  Zn168  1  0.56475150  0.31213896  0.56307228  1
  Zn  Zn169  1  0.56140979  0.80283638  0.05868023  1
  Zn  Zn170  1  0.56547367  0.80956740  0.56272115  1
  O  O171  1  0.12024276  0.11596224  0.11981725  1
  O  O172  1  0.11930706  0.12123359  0.62308515  1
  O  O173  1  0.12950863  0.60775093  0.12276400  1
  O  O174  1  0.11308379  0.62621569  0.62920299  1
  O  O175  1  0.61673620  0.14274988  0.10490066  1
  O  O176  1  0.62247454  0.11803941  0.62331705  1
  O  O177  1  0.61373738  0.61592902  0.11690807  1
  O  O178  1  0.61533530  0.63211419  0.61303293  1
  O  O179  1  0.38020934  0.37925893  0.38282696  1
  O  O180  1  0.38105502  0.37810771  0.88129912  1
  O  O181  1  0.37818990  0.88093258  0.38294687  1
  O  O182  1  0.37966787  0.87826713  0.88650620  1
  O  O183  1  0.88089615  0.38369096  0.38068429  1
  O  O184  1  0.87701266  0.38067543  0.88050899  1
  O  O185  1  0.89506261  0.89103217  0.39277504  1
  O  O186  1  0.87497072  0.89988987  0.85912528  1
  O  O187  1  0.25607096  0.00350943  0.36887938  1
  O  O188  1  0.25025439  0.00824749  0.87147086  1
  O  O189  1  0.25246370  0.50435146  0.37195467  1
  O  O190  1  0.26000705  0.49262966  0.86400915  1
  O  O191  1  0.77063760  -0.00160758  0.38237146  1
  O  O192  1  0.76516501  0.01444897  0.87861850  1
  O  O193  1  0.75607199  0.49966723  0.36683870  1
  O  O194  1  0.76073224  0.50519178  0.87687906  1
  O  O195  1  0.24276113  0.49167624  0.13359558  1
  O  O196  1  0.25289043  0.49512499  0.64031582  1
  O  O197  1  0.24317134  0.99310697  0.13176694  1
  O  O198  1  0.24555899  0.99549391  0.63205755  1
  O  O199  1  0.75081481  0.48671609  0.13528054  1
  O  O200  1  0.75297600  0.48760572  0.61917865  1
  O  O201  1  0.72640561  1.00889424  0.11863147  1
  O  O202  1  0.74218061  0.99293242  0.62373192  1
  O  O203  1  -0.00412899  0.37358677  0.26424403  1
  O  O204  1  -0.00659069  0.37654410  0.76543800  1
  O  O205  1  0.00387165  0.87986545  0.27060114  1
  O  O206  1  0.01073312  0.86706630  0.74240421  1
  O  O207  1  0.50450635  0.37241666  0.25768683  1
  O  O208  1  0.51279979  0.37839003  0.75573814  1
  O  O209  1  0.49368696  0.85787782  0.25054277  1
  O  O210  1  0.50974035  0.87146101  0.75873993  1
  O  O211  1  0.48566340  0.12455132  0.25545984  1
  O  O212  1  0.49222744  0.11593264  0.74268381  1
  O  O213  1  0.49602977  0.63153621  0.24077297  1
  O  O214  1  0.50946643  0.62474179  0.73640414  1
  O  O215  1  1.00535386  0.12519790  0.23481325  1
  O  O216  1  0.99528895  0.13011298  0.74001614  1
  O  O217  1  0.99313927  0.61864741  0.23685835  1
  O  O218  1  0.98775822  0.63263566  0.74166942  1
  O  O219  1  0.36776514  0.25811866  0.00756412  1
  O  O220  1  0.37023101  0.25541997  0.50234408  1
  O  O221  1  0.37924479  0.76084611  0.01370643  1
  O  O222  1  0.36657928  0.75520601  0.50821913  1
  O  O223  1  0.87961921  0.26303518  0.00840585  1
  O  O224  1  0.86792671  0.26093053  0.49809879  1
  O  O225  1  0.86202367  0.76555644  -0.04611959  1
  O  O226  1  0.88273595  0.76423369  0.50730529  1
  O  O227  1  0.13332138  0.24389242  0.49089381  1
  O  O228  1  0.12957852  0.24581874  0.99391624  1
  O  O229  1  0.14210239  0.75070854  0.50415575  1
  O  O230  1  0.11196314  0.75235804  0.98224856  1
  O  O231  1  0.63392285  0.24516846  0.49528591  1
  O  O232  1  0.61778684  0.23940431  0.98015914  1
  O  O233  1  0.61804533  0.73562478  0.48855394  1
  O  O234  1  0.63328426  0.72815876  1.00914521  1
  O  O235  1  0.48279779  0.25807724  0.12625086  1
  O  O236  1  0.50212643  0.23381949  0.62089306  1
  O  O237  1  0.49200133  0.73842011  0.13096820  1
  O  O238  1  0.49199275  0.74235943  0.62570236  1
  O  O239  1  0.99399917  0.24404347  0.12601338  1
  O  O240  1  1.00114144  0.24128514  0.62302657  1
  O  O241  1  0.96952247  0.78213658  0.12217687  1
  O  O242  1  0.99059064  0.74487021  0.63338349  1
  O  O243  1  0.00898479  0.25674719  0.37368679  1
  O  O244  1  0.00811466  0.25912060  0.87791901  1
  O  O245  1  0.00500221  0.77207270  0.38912760  1
  O  O246  1  0.00779379  0.74571490  0.85913638  1
  O  O247  1  0.50727959  0.25600922  0.37612401  1
  O  O248  1  0.50373650  0.26211598  0.87185909  1
  O  O249  1  0.50775281  0.74820674  0.36642677  1
  O  O250  1  0.49396468  0.76733639  0.87100128  1
  O  O251  1  0.24788576  0.12863408  0.49673431  1
  O  O252  1  0.24582637  0.13096753  0.99653311  1
  O  O253  1  0.25265857  0.63303681  0.49467773  1
  O  O254  1  0.23951459  0.61586855  0.98836826  1
  O  O255  1  0.74701356  0.13606329  0.50064108  1
  O  O256  1  0.74086245  0.13023315  0.98847001  1
  O  O257  1  0.73546533  0.61159930  0.49080902  1
  O  O258  1  0.73856219  0.62673362  0.98432617  1
  O  O259  1  0.25779935  0.37028745  0.00976019  1
  O  O260  1  0.25778530  0.37104759  0.50982411  1
  O  O261  1  0.25770282  0.87775142  0.01321131  1
  O  O262  1  0.25800759  0.86859493  0.50832624  1
  O  O263  1  0.75783246  0.38264394  0.00921943  1
  O  O264  1  0.75573664  0.36891017  0.50519120  1
  O  O265  1  0.75726687  0.87030465  0.00237776  1
  O  O266  1  0.76614443  0.88083093  0.51520903  1
  O  O267  1  0.13565197  0.50072260  0.24484517  1
  O  O268  1  0.13814231  0.50069953  0.75371822  1
  O  O269  1  0.13640143  1.00706908  0.24010602  1
  O  O270  1  0.12868015  0.99470053  0.74908766  1
  O  O271  1  0.63153051  0.49033803  0.24899289  1
  O  O272  1  0.62978324  0.48289076  0.75637785  1
  O  O273  1  0.62231307  0.99304547  0.23406109  1
  O  O274  1  0.62268450  0.98842086  0.73860562  1
  O  O275  1  0.36881955  0.00531419  0.25335312  1
  O  O276  1  0.36819979  0.01010569  0.75232841  1
  O  O277  1  0.36185409  0.50073680  0.25892565  1
  O  O278  1  0.36778339  0.49664554  0.76542370  1
  O  O279  1  0.88602799  -0.00107104  0.26828679  1
  O  O280  1  0.88473649  0.01803493  0.76189096  1
  O  O281  1  0.86381682  0.49962693  0.25745890  1
  O  O282  1  0.88059172  0.51057312  0.75991540  1
  O  O283  1  0.11653530  0.36552065  0.38416703  1
  O  O284  1  0.11465351  0.36755403  0.88590316  1
  O  O285  1  0.11539630  0.87836767  0.38566578  1
  O  O286  1  0.12887324  0.86638770  0.86471809  1
  O  O287  1  0.62029655  0.36806219  0.37066099  1
  O  O288  1  0.61903261  0.36895610  0.86793044  1
  O  O289  1  0.62801207  0.85789346  0.38515778  1
  O  O290  1  0.61697269  0.88241467  0.87009346  1
  O  O291  1  0.36605326  0.13570211  0.13446116  1
  O  O292  1  0.38535524  0.12549853  0.63373560  1
  O  O293  1  0.37913685  0.63125345  0.12102219  1
  O  O294  1  0.38635615  0.63566510  0.61973384  1
  O  O295  1  0.88309041  0.13586497  0.11379937  1
  O  O296  1  0.88324159  0.12732526  0.63212184  1
  O  O297  1  0.83604966  0.65092247  0.12113227  1
  O  O298  1  0.87814071  0.63259482  0.62825205  1
  O  O299  1  0.25545456  0.25692322  0.12282767  1
  O  O300  1  0.25246988  0.25781189  0.62066286  1
  O  O301  1  0.25807564  0.75951482  0.13448232  1
  O  O302  1  0.25808136  0.75302757  0.62098592  1
  O  O303  1  0.75726954  0.26164776  0.12996857  1
  O  O304  1  0.75075349  0.25934305  0.61265193  1
  O  O305  1  0.77770075  0.71743517  0.12686509  1
  O  O306  1  0.76531856  0.75866115  0.62707389  1
  O  O307  1  0.24528605  0.24559295  0.38173573  1
  O  O308  1  0.24267119  0.24751660  0.88189246  1
  O  O309  1  0.25174375  0.74375927  0.38250210  1
  O  O310  1  0.23397304  0.74905317  0.86676996  1
  O  O311  1  0.74654089  0.25085123  0.38540703  1
  O  O312  1  0.74035638  0.24280655  0.87181340  1
  O  O313  1  0.74220439  0.72900316  0.37224645  1
  O  O314  1  0.73593117  0.73152769  0.86150529  1
  O  O315  1  0.00608377  0.11972522  0.01115652  1
  O  O316  1  0.00642730  0.11865592  0.51056875  1
  O  O317  1  0.00043822  0.61093451  -0.00404256  1
  O  O318  1  -0.00019380  0.62693442  0.51521332  1
  O  O319  1  0.50686813  0.12362632  -0.01045295  1
  O  O320  1  0.50752080  0.11703547  0.50960826  1
  O  O321  1  0.51096124  0.62865744  0.00667797  1
  O  O322  1  0.50550875  0.61711653  0.50664340  1
  O  O323  1  0.49734779  0.38198389  0.49781359  1
  O  O324  1  0.48824191  0.37082546  0.99046566  1
  O  O325  1  0.49600887  0.88081269  0.50119494  1
  O  O326  1  0.49476906  0.86955139  0.98781354  1
  O  O327  1  0.98951889  0.37444061  0.49097844  1
  O  O328  1  0.98765260  0.38394307  0.99017441  1
  O  O329  1  0.99694655  0.88914252  0.50743914  1
  O  O330  1  0.99430935  0.89546838  0.99611910  1
  O  O331  1  0.49345373  0.49447899  0.38358874  1
  O  O332  1  0.48635532  0.48721267  0.87177414  1
  O  O333  1  0.49735394  0.99713183  0.38211777  1
  O  O334  1  0.49549183  0.98138840  0.86999177  1
  O  O335  1  0.99197733  0.49399543  0.37647096  1
  O  O336  1  0.98988721  0.49437434  0.88233706  1
  O  O337  1  0.99964107  0.99764457  0.38833749  1
  O  O338  1  0.98606150  1.01863595  0.88471243  1
  O  O339  1  0.00555450  0.00674525  0.11843485  1
  O  O340  1  0.00591759  0.01042892  0.62222867  1
  O  O341  1  0.00764748  0.48719032  0.11549110  1
  O  O342  1  -0.00027539  0.51038671  0.62489447  1
  O  O343  1  0.51600742  -0.00484730  0.12120602  1
  O  O344  1  0.51108090  0.00744495  0.62083223  1
  O  O345  1  0.49262168  0.51041211  0.13084897  1
  O  O346  1  0.49137741  0.50901431  0.61465980  1
  O  O347  1  0.25533947  0.38267018  0.24218096  1
  O  O348  1  0.25536328  0.38477535  0.74103233  1
  O  O349  1  0.25766148  0.88647337  0.24089407  1
  O  O350  1  0.24171878  0.88150230  0.74678235  1
  O  O351  1  0.74313070  0.38021661  0.24270576  1
  O  O352  1  0.73796056  0.36878671  0.74024111  1
  O  O353  1  0.76260367  0.88648141  0.24666829  1
  O  O354  1  0.74527913  0.87179799  0.73992626  1
  O  O355  1  0.26001028  0.11339752  0.25620872  1
  O  O356  1  0.25747199  0.11973337  0.75575886  1
  O  O357  1  0.25212472  0.61420937  0.26044677  1
  O  O358  1  0.25180130  0.61053125  0.75651686  1
  O  O359  1  0.74796124  0.11069195  0.25254532  1
  O  O360  1  0.76066266  0.13120505  0.75493542  1
  O  O361  1  0.74515065  0.60880141  0.26065504  1
  O  O362  1  0.76050540  0.62484634  0.74912927  1
  O  O363  1  0.37031893  0.11840119  0.36905133  1
  O  O364  1  0.36892427  0.12428579  0.86937076  1
  O  O365  1  0.36378438  0.61897542  0.37707170  1
  O  O366  1  0.38119641  0.60890799  0.88330359  1
  O  O367  1  0.87985529  0.10921770  0.38579485  1
  O  O368  1  0.86693485  0.12777473  0.86999656  1
  O  O369  1  0.86238339  0.61075068  0.38457775  1
  O  O370  1  0.86422224  0.61774282  0.86566141  1
  O  O371  1  0.13609632  0.38125338  0.11941811  1
  O  O372  1  0.13881119  0.37670190  0.62040017  1
  O  O373  1  0.13269760  0.88814778  0.11729981  1
  O  O374  1  0.13207761  0.88025971  0.63574844  1
  O  O375  1  0.63077659  0.37184123  0.12705715  1
  O  O376  1  0.62996652  0.37164020  0.63696416  1
  O  O377  1  0.62509858  0.87785641  0.11536040  1
  O  O378  1  0.63436822  0.88026280  0.62989889  1
  O  O379  1  0.12800443  0.24338827  0.26484103  1
  O  O380  1  0.12434200  0.24709099  0.76586638  1
  O  O381  1  0.11327864  0.75023002  0.24635013  1
  O  O382  1  0.11777357  0.75820585  0.75559358  1
  O  O383  1  0.62375374  0.25423032  0.25614668  1
  O  O384  1  0.62357487  0.25902935  0.76206830  1
  O  O385  1  0.61618649  0.74042524  0.25930956  1
  O  O386  1  0.62322173  0.76389854  0.74199445  1
  O  O387  1  0.37432103  0.24070123  0.24356237  1
  O  O388  1  0.36979622  0.23480850  0.75075082  1
  O  O389  1  0.38262970  0.74480923  0.23865458  1
  O  O390  1  0.37477883  0.75552738  0.73867840  1
  O  O391  1  0.87822315  0.25519736  0.23617929  1
  O  O392  1  0.88162351  0.24276493  0.74752124  1
  O  O393  1  0.88789765  0.73687927  0.27354600  1
  O  O394  1  0.88121815  0.74236913  0.74373090  1
  O  O395  1  0.38316460  0.49392175  0.49599801  1
  O  O396  1  0.36546176  0.48669590  0.98701583  1
  O  O397  1  0.38154021  0.99511820  0.49617701  1
  O  O398  1  0.37437438  0.98684964  1.00377135  1
  O  O399  1  0.87554574  0.48894922  0.49087966  1
  O  O400  1  0.87892232  0.49271639  0.99339298  1
  O  O401  1  0.88716811  0.99618466  0.50272976  1
  O  O402  1  0.87989306  1.00301981  0.98846200  1
  O  O403  1  0.11811080  0.00615218  0.00669297  1
  O  O404  1  0.12032563  0.00636309  0.50888832  1
  O  O405  1  0.11271675  0.49782726  0.00828831  1
  O  O406  1  0.12234513  0.50678988  0.50886097  1
  O  O407  1  0.62478242  0.01691065  0.00627425  1
  O  O408  1  0.62368509  0.00318800  0.50997079  1
  O  O409  1  0.63022674  0.51426204  0.00436933  1
  O  O410  1  0.61147988  0.50720974  0.49368399  1
  O  O411  1  0.36449415  0.36903524  0.11925059  1
  O  O412  1  0.36815378  0.37242348  0.62115823  1
  O  O413  1  0.36825905  0.86803966  0.11955265  1
  O  O414  1  0.37201666  0.86875271  0.62212999  1
  O  O415  1  0.86777939  0.36800310  0.11757175  1
  O  O416  1  0.86807163  0.37425060  0.61581485  1
  O  O417  1  0.90543968  0.84359217  0.12636141  1
  O  O418  1  0.87242826  0.87133184  0.62423607  1
  O  O419  1  0.13151606  0.13164187  0.38245914  1
  O  O420  1  0.12993439  0.13507453  0.88153543  1
  O  O421  1  0.13890595  0.62837095  0.37871419  1
  O  O422  1  0.12185355  0.64080168  0.87030589  1
  O  O423  1  0.62748722  0.12936067  0.38366419  1
  O  O424  1  0.63151484  0.12848749  0.87736389  1
  O  O425  1  0.62742728  0.62836544  0.38211563  1
  O  O426  1  0.62579979  0.61541322  0.88446730  1
