# generated using pymatgen
data_V85Zn86O256
_symmetry_space_group_name_H-M   'P 1'
_cell_length_a   16.98311288
_cell_length_b   16.99495119
_cell_length_c   16.97417902
_cell_angle_alpha   89.86265587
_cell_angle_beta   89.93401737
_cell_angle_gamma   90.02875545
_symmetry_Int_Tables_number   1
_chemical_formula_structural   V85Zn86O256
_chemical_formula_sum   'V85 Zn86 O256'
_cell_volume   4899.19138093
_cell_formula_units_Z   1
loop_
 _symmetry_equiv_pos_site_id
 _symmetry_equiv_pos_as_xyz
  1  'x, y, z'
loop_
 _atom_site_type_symbol
 _atom_site_label
 _atom_site_symmetry_multiplicity
 _atom_site_fract_x
 _atom_site_fract_y
 _atom_site_fract_z
 _atom_site_occupancy
  V  V0  1  0.75023161  0.87506665  0.62510106  1
  V  V1  1  0.25607379  0.87637207  0.62346525  1
  V  V2  1  0.37028902  0.24757574  0.61834565  1
  V  V3  1  0.12207837  0.37335849  0.25118558  1
  V  V4  1  0.87628783  0.13235404  0.74837607  1
  V  V5  1  0.86971616  0.26141794  0.62260143  1
  V  V6  1  0.62998906  0.37219683  0.74477926  1
  V  V7  1  0.37690220  -0.00177654  0.37359340  1
  V  V8  1  0.13040652  0.13276780  0.50192866  1
  V  V9  1  0.62559858  0.75063511  0.37370934  1
  V  V10  1  0.25827696  0.74232061  -0.00142912  1
  V  V11  1  -0.00133053  0.13200769  0.62834124  1
  V  V12  1  0.49839231  0.37081020  0.87060342  1
  V  V13  1  -0.00115034  0.00135852  0.49943631  1
  V  V14  1  0.51790554  0.11645047  0.12256526  1
  V  V15  1  0.75078760  0.62637119  0.37182436  1
  V  V16  1  -0.00623336  0.37651452  0.37961335  1
  V  V17  1  0.50142534  0.75193299  0.24653027  1
  V  V18  1  0.74151959  0.49412518  0.24197540  1
  V  V19  1  0.87472191  0.75032629  0.62491550  1
  V  V20  1  -0.00104517  0.87197321  0.87546654  1
  V  V21  1  -0.00381697  0.36836376  0.87199416  1
  V  V22  1  0.49718829  -0.00333047  0.50177075  1
  V  V23  1  0.62513999  0.87855655  0.24593588  1
  V  V24  1  0.37648486  0.63072436  0.74650377  1
  V  V25  1  0.12473287  0.00198165  0.62758001  1
  V  V26  1  -0.00712674  0.24333516  0.25333514  1
  V  V27  1  0.50346643  0.25214376  0.24463913  1
  V  V28  1  -0.00290004  0.50013134  0.00569286  1
  V  V29  1  0.87413746  0.86901592  0.00544271  1
  V  V30  1  0.00623429  0.01057034  0.00331764  1
  V  V31  1  0.25485212  0.13472465  0.38257187  1
  V  V32  1  -0.00080439  0.75093215  0.75069595  1
  V  V33  1  0.62635709  0.24529217  0.87794216  1
  V  V34  1  0.24789576  0.61717343  0.87245081  1
  V  V35  1  0.00340789  0.86968918  0.36564563  1
  V  V36  1  0.74801594  -0.00198175  0.74749614  1
  V  V37  1  0.50687894  0.49415731  0.00680984  1
  V  V38  1  0.12247879  0.24726459  0.88501337  1
  V  V39  1  0.49780646  0.62847594  0.62824816  1
  V  V40  1  0.50912250  -0.00440800  -0.01528961  1
  V  V41  1  0.62465676  0.62558323  0.50093260  1
  V  V42  1  0.37232561  0.36476715  0.01038256  1
  V  V43  1  0.37625957  0.13127351  0.24477120  1
  V  V44  1  0.50657451  0.62166974  0.12475650  1
  V  V45  1  0.86884855  0.37203139  0.00491250  1
  V  V46  1  0.37557489  0.49395281  0.87232693  1
  V  V47  1  0.62929320  0.49513352  0.62360574  1
  V  V48  1  0.75226380  0.26876763  0.50174072  1
  V  V49  1  0.62849642  0.24828639  0.37357939  1
  V  V50  1  0.12413705  0.87624374  0.75088730  1
  V  V51  1  0.12322538  0.49992619  0.62498508  1
  V  V52  1  0.25271777  0.50020711  0.25121767  1
  V  V53  1  0.74796756  0.50325796  0.75314077  1
  V  V54  1  0.49795105  0.49790799  0.49910584  1
  V  V55  1  0.37423047  0.12306659  0.75483462  1
  V  V56  1  0.25247656  0.75536701  0.49743385  1
  V  V57  1  0.37160614  0.50137365  0.37409136  1
  V  V58  1  -0.00397771  0.50096509  0.49927581  1
  V  V59  1  0.87358174  0.50003486  0.37673717  1
  V  V60  1  0.24562521  0.12538615  0.88126159  1
  V  V61  1  0.88103587  0.63102787  0.23645736  1
  V  V62  1  0.87132765  0.01333037  0.37218111  1
  V  V63  1  0.00003961  0.62600042  0.62515156  1
  V  V64  1  0.12525542  0.63151560  0.49297421  1
  V  V65  1  0.74572815  0.12564073  0.88097640  1
  V  V66  1  0.87234452  -0.00023933  0.87670792  1
  V  V67  1  0.25212989  -0.00466890  0.76534746  1
  V  V68  1  0.62845658  0.62211678  -0.00857954  1
  V  V69  1  0.74851321  0.87083424  0.12617962  1
  V  V70  1  0.87525516  0.87599463  0.49831854  1
  V  V71  1  0.75167084  0.01137207  0.25080179  1
  V  V72  1  0.61355767  0.86876494  0.75507978  1
  V  V73  1  0.50471301  0.37456038  0.37110219  1
  V  V74  1  0.12038831  0.36644694  0.75008553  1
  V  V75  1  0.74765450  0.74721069  -0.00693999  1
  V  V76  1  0.24757622  0.36861236  0.61628875  1
  V  V77  1  0.12309355  0.49690019  0.12472410  1
  V  V78  1  0.75006683  0.75046186  0.49907090  1
  V  V79  1  0.87382825  0.24025224  0.12892168  1
  V  V80  1  0.63493130  0.12368519  0.49865036  1
  V  V81  1  0.24962929  0.49582003  0.74649114  1
  V  V82  1  0.86995251  0.50665101  0.87639273  1
  V  V83  1  0.12294241  0.61884875  -0.00280190  1
  V  V84  1  0.87168747  0.62531054  0.75245554  1
  Zn  Zn85  1  0.74409861  0.24305247  0.00764742  1
  Zn  Zn86  1  0.61352303  0.74920390  0.87260378  1
  Zn  Zn87  1  0.00885642  0.11869364  0.13087727  1
  Zn  Zn88  1  0.50173290  0.12848082  0.62433417  1
  Zn  Zn89  1  0.37512527  0.62484182  0.24603751  1
  Zn  Zn90  1  0.24982523  0.24142359  0.01148378  1
  Zn  Zn91  1  0.24985027  0.87910743  0.13065026  1
  Zn  Zn92  1  0.12568365  0.74923348  0.87414888  1
  Zn  Zn93  1  0.49884232  0.86998645  0.38027193  1
  Zn  Zn94  1  0.12807217  0.25429250  0.38013646  1
  Zn  Zn95  1  0.37957085  0.75662096  0.62113461  1
  Zn  Zn96  1  0.73232286  0.37169890  0.12591055  1
  Zn  Zn97  1  0.37748735  0.74803178  0.12078067  1
  Zn  Zn98  1  0.24685972  0.63733376  0.36868254  1
  Zn  Zn99  1  0.62327687  0.00060117  0.62324355  1
  Zn  Zn100  1  0.25929769  0.36349625  0.13416430  1
  Zn  Zn101  1  0.23453241  -0.00554419  0.24623324  1
  Zn  Zn102  1  0.49938897  0.24605260  0.74717937  1
  Zn  Zn103  1  0.00445018  0.75088307  0.22810403  1
  Zn  Zn104  1  0.36950796  0.36769812  0.49570862  1
  Zn  Zn105  1  0.37983147  0.88643073  -0.01762785  1
  Zn  Zn106  1  0.16290918  0.80833965  0.31100794  1
  Zn  Zn107  1  0.18854767  0.18611120  0.19481725  1
  Zn  Zn108  1  0.18895387  0.18644933  0.69276748  1
  Zn  Zn109  1  0.18255306  0.68257995  0.18113405  1
  Zn  Zn110  1  0.18858137  0.69026859  0.68581392  1
  Zn  Zn111  1  0.68742455  0.19241062  0.18882893  1
  Zn  Zn112  1  0.68894738  0.18656917  0.68387684  1
  Zn  Zn113  1  0.68908138  0.68638729  0.18184322  1
  Zn  Zn114  1  0.68635479  0.68612703  0.68767188  1
  Zn  Zn115  1  0.31618204  0.31363054  0.31249829  1
  Zn  Zn116  1  0.30916037  0.30623644  0.81065196  1
  Zn  Zn117  1  0.32250258  0.81719198  0.30795347  1
  Zn  Zn118  1  0.43197117  0.81615600  0.82236120  1
  Zn  Zn119  1  0.81032404  0.31205161  0.31357035  1
  Zn  Zn120  1  0.80909878  0.31458652  0.81214025  1
  Zn  Zn121  1  0.81699753  0.81486588  0.31135910  1
  Zn  Zn122  1  0.81012765  0.81087992  0.81472831  1
  Zn  Zn123  1  0.18241928  0.44211789  0.43722014  1
  Zn  Zn124  1  0.18793995  0.43160390  0.93698557  1
  Zn  Zn125  1  0.18857319  0.94494415  0.44050790  1
  Zn  Zn126  1  0.17810058  0.92735362  0.95969706  1
  Zn  Zn127  1  0.68642773  0.43937952  0.43298892  1
  Zn  Zn128  1  0.68554807  0.43374430  0.93569933  1
  Zn  Zn129  1  0.68657254  0.93831328  0.43285363  1
  Zn  Zn130  1  0.68242900  0.93823345  0.94052122  1
  Zn  Zn131  1  0.31456371  0.06391429  0.06066609  1
  Zn  Zn132  1  0.31324710  0.06089019  0.56571127  1
  Zn  Zn133  1  0.31729047  0.55445218  0.06546073  1
  Zn  Zn134  1  0.30934591  0.56284728  0.55937094  1
  Zn  Zn135  1  0.80815796  0.05706146  0.06683386  1
  Zn  Zn136  1  0.81366105  0.06445791  0.56075996  1
  Zn  Zn137  1  0.80612712  0.55977072  0.06161950  1
  Zn  Zn138  1  0.81083890  0.56224973  0.56325271  1
  Zn  Zn139  1  0.56325411  0.43576386  0.18831612  1
  Zn  Zn140  1  0.43660910  0.43609909  0.68437539  1
  Zn  Zn141  1  0.40548335  0.95715513  0.14399768  1
  Zn  Zn142  1  0.43455189  0.94352264  0.68855024  1
  Zn  Zn143  1  0.93153353  0.43619727  0.19059749  1
  Zn  Zn144  1  0.93760788  0.44013848  0.68959235  1
  Zn  Zn145  1  0.93452833  0.94003154  0.18669020  1
  Zn  Zn146  1  0.93662946  0.94062895  0.68670315  1
  Zn  Zn147  1  0.06071822  0.06424110  0.31956731  1
  Zn  Zn148  1  0.06231489  0.06345053  0.81437775  1
  Zn  Zn149  1  0.06213664  0.56660774  0.30919963  1
  Zn  Zn150  1  0.05702427  0.55581028  0.81246421  1
  Zn  Zn151  1  0.56419607  0.06349112  0.31339361  1
  Zn  Zn152  1  0.56257956  0.06120648  0.80921915  1
  Zn  Zn153  1  0.56094139  0.56693659  0.31587585  1
  Zn  Zn154  1  0.56038430  0.56084368  0.81336035  1
  Zn  Zn155  1  0.44400934  0.18438423  0.43910233  1
  Zn  Zn156  1  0.43885170  0.18046192  0.93952973  1
  Zn  Zn157  1  0.43534371  0.68556636  0.43743941  1
  Zn  Zn158  1  0.44221910  0.67584420  0.93287292  1
  Zn  Zn159  1  0.93656528  0.19108397  0.44243919  1
  Zn  Zn160  1  0.93187291  0.18902769  0.93869027  1
  Zn  Zn161  1  0.93600276  0.68655641  0.43401235  1
  Zn  Zn162  1  0.93899405  0.68992234  1.05469172  1
  Zn  Zn163  1  0.05730559  0.31152219  0.06631775  1
  Zn  Zn164  1  0.05811436  0.31327904  0.56287916  1
  Zn  Zn165  1  0.07719048  0.82075030  0.07108284  1
  Zn  Zn166  1  0.06436524  0.81488361  0.56006205  1
  Zn  Zn167  1  0.55652786  0.30301839  0.05980482  1
  Zn  Zn168  1  0.55852386  0.31011850  0.56003958  1
  Zn  Zn169  1  0.56336966  0.81430431  0.05962258  1
  Zn  Zn170  1  0.56522536  0.81456163  0.56581788  1
  O  O171  1  0.12400567  0.09388137  0.16471316  1
  O  O172  1  0.11753041  0.12350900  0.62317421  1
  O  O173  1  0.12926230  0.60425948  0.11102694  1
  O  O174  1  0.11873482  0.61935232  0.61876444  1
  O  O175  1  0.61693262  0.12684885  0.12727588  1
  O  O176  1  0.62283568  0.12060869  0.61638755  1
  O  O177  1  0.61400040  0.62735261  0.11230945  1
  O  O178  1  0.61717509  0.61599432  0.62156204  1
  O  O179  1  0.38378264  0.38264677  0.37718921  1
  O  O180  1  0.38428431  0.37572692  0.87199676  1
  O  O181  1  0.38092111  0.89455765  0.37106088  1
  O  O182  1  0.36584881  0.88643307  0.87071790  1
  O  O183  1  0.88347521  0.38861663  0.36758619  1
  O  O184  1  0.87931688  0.37972114  0.88130431  1
  O  O185  1  0.88455502  0.88363101  0.38064424  1
  O  O186  1  0.87880113  0.88338264  0.87982892  1
  O  O187  1  0.26374434  0.00900239  0.37374242  1
  O  O188  1  0.23754992  0.00767798  0.86888219  1
  O  O189  1  0.25556270  0.49968480  0.36835188  1
  O  O190  1  0.25361974  0.50084827  0.86758356  1
  O  O191  1  0.75926830  -0.00732138  0.36206108  1
  O  O192  1  0.75537751  0.00517806  0.86704480  1
  O  O193  1  0.75586415  0.50576950  0.36691808  1
  O  O194  1  0.75730377  0.49324298  0.86444137  1
  O  O195  1  0.24268726  0.48955381  0.13441541  1
  O  O196  1  0.24273880  0.49002888  0.62768679  1
  O  O197  1  0.28963592  0.99289180  0.14488975  1
  O  O198  1  0.24303831  0.99389267  0.63128691  1
  O  O199  1  0.75044398  0.49596954  0.13887561  1
  O  O200  1  0.73700354  0.50362510  0.63263469  1
  O  O201  1  0.75371290  0.98789857  0.14139356  1
  O  O202  1  0.75280796  0.99475974  0.63453976  1
  O  O203  1  0.00584116  0.37207986  0.25933326  1
  O  O204  1  0.00823135  0.38282856  0.76200668  1
  O  O205  1  -0.00723098  0.87367203  0.26227492  1
  O  O206  1  0.00270578  0.87368184  0.75590995  1
  O  O207  1  0.50163555  0.36671261  0.26160831  1
  O  O208  1  0.50986663  0.37621542  0.75806326  1
  O  O209  1  0.51207941  0.86087636  0.25040989  1
  O  O210  1  0.51046073  0.87639619  0.74440746  1
  O  O211  1  0.49620019  0.13380686  0.24765572  1
  O  O212  1  0.48752263  0.12310083  0.74646576  1
  O  O213  1  0.50404155  0.63319193  0.24118733  1
  O  O214  1  0.49021230  0.61221129  0.73807537  1
  O  O215  1  0.99689711  0.14153001  0.25807838  1
  O  O216  1  0.98721156  0.11890954  0.74075337  1
  O  O217  1  0.98240065  0.61896891  0.24730397  1
  O  O218  1  0.99335546  0.62906354  0.74538714  1
  O  O219  1  0.37556662  0.26242083  -0.00728674  1
  O  O220  1  0.37893689  0.24789465  0.51308004  1
  O  O221  1  0.36006927  0.72520420  -0.00413351  1
  O  O222  1  0.35876347  0.74423771  0.50163842  1
  O  O223  1  0.87134418  0.25812974  0.00868683  1
  O  O224  1  0.85880133  0.24842021  0.50572782  1
  O  O225  1  0.86515545  0.76181960  -0.00332285  1
  O  O226  1  0.86911546  0.75440390  0.50514996  1
  O  O227  1  0.11846787  0.23684420  0.49914677  1
  O  O228  1  0.12483487  0.25804856  0.98827479  1
  O  O229  1  0.13410749  0.74039764  0.50609048  1
  O  O230  1  0.13434833  0.72842471  0.99338717  1
  O  O231  1  0.63583342  0.24548145  0.49692556  1
  O  O232  1  0.62708497  0.25297569  0.98185574  1
  O  O233  1  0.63083647  0.74540752  0.49521132  1
  O  O234  1  0.63057899  0.74117025  0.99654191  1
  O  O235  1  0.50333965  0.23654411  0.13829614  1
  O  O236  1  0.48821796  0.24907444  0.62883399  1
  O  O237  1  0.50247560  0.74065523  0.13151391  1
  O  O238  1  0.49832455  0.73347935  0.61576792  1
  O  O239  1  0.99430809  0.24250055  0.13450761  1
  O  O240  1  0.98814790  0.23761852  0.61738863  1
  O  O241  1  0.99913181  0.76100097  0.11534402  1
  O  O242  1  0.99384840  0.74625950  0.63082646  1
  O  O243  1  -0.00471095  0.26226070  0.37124202  1
  O  O244  1  0.00334496  0.26149206  0.88027939  1
  O  O245  1  -0.00391537  0.76902942  0.37908342  1
  O  O246  1  -0.00048162  0.76654566  0.86876163  1
  O  O247  1  0.50786367  0.25741083  0.37065793  1
  O  O248  1  0.50806555  0.25501920  0.87062934  1
  O  O249  1  0.50583631  0.74817557  0.36683156  1
  O  O250  1  0.50071543  0.74300751  0.86872871  1
  O  O251  1  0.24079314  0.11871383  0.49515350  1
  O  O252  1  0.25570437  0.12380896  0.98603620  1
  O  O253  1  0.24045576  0.63430363  0.49814829  1
  O  O254  1  0.24177958  0.61438923  0.99134982  1
  O  O255  1  0.73851919  0.12763595  0.50127773  1
  O  O256  1  0.75513478  0.12223781  0.98428391  1
  O  O257  1  0.74437277  0.63057821  0.49421732  1
  O  O258  1  0.73954193  0.63378174  1.00718811  1
  O  O259  1  0.26554007  0.37490766  -0.00104712  1
  O  O260  1  0.24546990  0.37806324  0.51220567  1
  O  O261  1  0.25609500  0.84008406  -0.02693742  1
  O  O262  1  0.23908982  0.86868579  0.51185791  1
  O  O263  1  0.76041270  0.37420081  0.00057539  1
  O  O264  1  0.74655706  0.36748747  0.50232587  1
  O  O265  1  0.75401891  0.87127508  0.00608089  1
  O  O266  1  0.75417561  0.87011503  0.50464645  1
  O  O267  1  0.12937999  0.49365610  0.24394749  1
  O  O268  1  0.12832878  0.48936471  0.74422563  1
  O  O269  1  0.12339783  1.03174784  0.22670599  1
  O  O270  1  0.13111944  0.99660031  0.74652102  1
  O  O271  1  0.63666485  0.50380903  0.25423284  1
  O  O272  1  0.63035353  0.49362248  0.74423913  1
  O  O273  1  0.63891537  0.98795923  0.26258785  1
  O  O274  1  0.63430275  0.99084414  0.74731466  1
  O  O275  1  0.38933928  0.02020390  0.26999499  1
  O  O276  1  0.36148765  0.01191472  0.74493751  1
  O  O277  1  0.36162611  0.49755499  0.26123514  1
  O  O278  1  0.36800956  0.50248356  0.75259227  1
  O  O279  1  0.86148769  -0.00299350  0.25757618  1
  O  O280  1  0.86682536  0.00683090  0.75787970  1
  O  O281  1  0.86468143  0.50970326  0.25620693  1
  O  O282  1  0.86626801  0.50282591  0.75599121  1
  O  O283  1  0.11388835  0.37742110  0.36692546  1
  O  O284  1  0.11658591  0.36853153  0.86876195  1
  O  O285  1  0.10831498  0.88796328  0.37620173  1
  O  O286  1  0.11317357  0.87585548  0.86986173  1
  O  O287  1  0.61385997  0.36502118  0.38206264  1
  O  O288  1  0.61760273  0.36661474  0.86507060  1
  O  O289  1  0.62335369  0.86643014  0.36531393  1
  O  O290  1  0.62824069  0.87761419  0.85652337  1
  O  O291  1  0.38339223  0.12812626  0.14443932  1
  O  O292  1  0.37079045  0.13289266  0.63508632  1
  O  O293  1  0.39087104  0.62346963  0.12584803  1
  O  O294  1  0.38235229  0.61961632  0.63063846  1
  O  O295  1  0.87293685  0.13822668  0.12084335  1
  O  O296  1  0.88031113  0.13141442  0.63076779  1
  O  O297  1  0.87356119  0.62429976  0.13153380  1
  O  O298  1  0.87983682  0.63023621  0.63115751  1
  O  O299  1  0.23984846  0.25270942  0.12329182  1
  O  O300  1  0.25570337  0.25900276  0.63124711  1
  O  O301  1  0.24843976  0.73934979  0.10515203  1
  O  O302  1  0.25146123  0.76012036  0.61819297  1
  O  O303  1  0.75813250  0.25489517  0.12531053  1
  O  O304  1  0.75519903  0.24876028  0.61094679  1
  O  O305  1  0.74632418  0.76204942  0.11233435  1
  O  O306  1  0.75575215  0.75405851  0.61918304  1
  O  O307  1  0.24942007  0.23917451  0.37357793  1
  O  O308  1  0.23904224  0.24237585  0.87814003  1
  O  O309  1  0.24890992  0.75608323  0.38210716  1
  O  O310  1  0.24433253  0.72078437  0.88062904  1
  O  O311  1  0.74185658  0.25798275  0.38875333  1
  O  O312  1  0.74366134  0.24152357  0.87524839  1
  O  O313  1  0.74663220  0.74569064  0.37982067  1
  O  O314  1  0.74251389  0.75726935  0.88925001  1
  O  O315  1  -0.01209610  0.11302497  0.00108396  1
  O  O316  1  0.00687861  0.12035824  0.50865861  1
  O  O317  1  0.00743453  0.60886618  -0.00112017  1
  O  O318  1  0.00523887  0.62241258  0.50503279  1
  O  O319  1  0.49781171  0.11909720  0.01743398  1
  O  O320  1  0.51288353  0.11505055  0.50221969  1
  O  O321  1  0.50766671  0.61165287  0.00560075  1
  O  O322  1  0.50516081  0.61697289  0.50611243  1
  O  O323  1  0.49641904  0.38092316  0.48970492  1
  O  O324  1  0.49117798  0.37615566  0.98897881  1
  O  O325  1  0.50774346  0.89122982  0.49924786  1
  O  O326  1  0.50383231  0.88901224  0.99866792  1
  O  O327  1  1.00532961  0.38389439  0.48768187  1
  O  O328  1  0.98927464  0.38108533  0.99250149  1
  O  O329  1  0.99459904  0.88304969  0.49457900  1
  O  O330  1  0.98939129  0.88920079  0.98954417  1
  O  O331  1  0.49336715  0.49375369  0.37729531  1
  O  O332  1  0.49667054  0.48747640  0.88216411  1
  O  O333  1  0.49367017  1.00208773  0.38621071  1
  O  O334  1  0.49753225  1.01053630  0.88607650  1
  O  O335  1  0.99160793  0.49543403  0.37741903  1
  O  O336  1  0.99045798  0.48778355  0.88446876  1
  O  O337  1  0.99123315  0.99288823  0.37911752  1
  O  O338  1  0.98721647  0.99581084  0.87788400  1
  O  O339  1  -0.00951042  0.00196365  0.10802876  1
  O  O340  1  0.00309252  0.01119273  0.62067072  1
  O  O341  1  0.00720962  0.48878219  0.11450755  1
  O  O342  1  0.00238313  0.50618270  0.61979099  1
  O  O343  1  0.50438603  0.01642722  0.13916989  1
  O  O344  1  0.49880726  0.00303752  0.61112295  1
  O  O345  1  0.50248684  0.50554989  0.11480825  1
  O  O346  1  0.50853118  0.50570709  0.61853783  1
  O  O347  1  0.23835379  0.38070616  0.25447644  1
  O  O348  1  0.23915026  0.37796610  0.74182867  1
  O  O349  1  0.23995507  0.87416565  0.25108061  1
  O  O350  1  0.23848445  0.88611335  0.73966698  1
  O  O351  1  0.75257722  0.39190429  0.25133088  1
  O  O352  1  0.73790227  0.38552006  0.75121312  1
  O  O353  1  0.74361061  0.87304805  0.24223568  1
  O  O354  1  0.74804961  0.88426253  0.74525659  1
  O  O355  1  0.26793541  0.12579190  0.26281578  1
  O  O356  1  0.25344879  0.11519456  0.75942150  1
  O  O357  1  0.25038127  0.61173921  0.24999230  1
  O  O358  1  0.25461298  0.61549888  0.75259976  1
  O  O359  1  0.74370479  0.10917726  0.24770057  1
  O  O360  1  0.75731692  0.11474783  0.75461426  1
  O  O361  1  0.75803106  0.61686589  0.25112584  1
  O  O362  1  0.75492511  0.61242005  0.74623655  1
  O  O363  1  0.37055760  0.12058212  0.37574224  1
  O  O364  1  0.36202590  0.13508716  0.86275852  1
  O  O365  1  0.37230450  0.61261459  0.37017604  1
  O  O366  1  0.36754874  0.61128470  0.86446135  1
  O  O367  1  0.87877105  0.11227029  0.38188798  1
  O  O368  1  0.86731257  0.11947069  0.86598990  1
  O  O369  1  0.87011281  0.61736485  0.36408845  1
  O  O370  1  0.87880793  0.60690641  0.86927363  1
  O  O371  1  0.12160918  0.38229436  0.13693290  1
  O  O372  1  0.12671762  0.37735918  0.63179938  1
  O  O373  1  0.15441861  0.89512551  0.07234376  1
  O  O374  1  0.12733519  0.88285254  0.63236633  1
  O  O375  1  0.62043474  0.37181835  0.11861652  1
  O  O376  1  0.61554846  0.38513720  0.63291439  1
  O  O377  1  0.63415497  0.87169486  0.13665878  1
  O  O378  1  0.63250289  0.87862869  0.63606832  1
  O  O379  1  0.11297118  0.26041690  0.25634124  1
  O  O380  1  0.12580907  0.26203097  0.75892094  1
  O  O381  1  0.11258492  0.72814150  0.25394269  1
  O  O382  1  0.11711118  0.75587646  0.75275389  1
  O  O383  1  0.61716341  0.24615908  0.26321239  1
  O  O384  1  0.62639314  0.25876448  0.75392345  1
  O  O385  1  0.62108954  0.75414507  0.25430980  1
  O  O386  1  0.63247834  0.76572983  0.74948819  1
  O  O387  1  0.38903316  0.23860941  0.26141673  1
  O  O388  1  0.37416110  0.24041583  0.73995308  1
  O  O389  1  0.38885702  0.74609875  0.24715238  1
  O  O390  1  0.37530543  0.73188158  0.74532858  1
  O  O391  1  0.88260861  0.26223832  0.24010146  1
  O  O392  1  0.86230980  0.23783658  0.74098384  1
  O  O393  1  0.87771760  0.73373631  0.25254318  1
  O  O394  1  0.87827640  0.74541275  0.74539866  1
  O  O395  1  0.37816364  0.49810551  0.48913348  1
  O  O396  1  0.38620044  0.48790314  0.99261741  1
  O  O397  1  0.38874954  1.00900416  0.49021884  1
  O  O398  1  0.40022633  0.99985220  1.01709228  1
  O  O399  1  0.87892078  0.50950113  0.48591292  1
  O  O400  1  0.87795290  0.49300105  0.99546613  1
  O  O401  1  0.87842253  0.99505881  0.49356248  1
  O  O402  1  0.87226973  0.99203173  0.98815272  1
  O  O403  1  0.10277622  0.01255549  -0.01599193  1
  O  O404  1  0.11882043  0.01253204  0.50820780  1
  O  O405  1  0.11644145  0.49668526  0.00488561  1
  O  O406  1  0.11659812  0.50951474  0.50688287  1
  O  O407  1  0.61123054  0.00290750  -0.00108810  1
  O  O408  1  0.61717690  0.00691181  0.49723136  1
  O  O409  1  0.61476322  0.50424073  -0.00778704  1
  O  O410  1  0.62104085  0.50506437  0.50613285  1
  O  O411  1  0.37858612  0.37268570  0.10865806  1
  O  O412  1  0.36422945  0.36712414  0.62336892  1
  O  O413  1  0.36550275  0.85908498  0.10087179  1
  O  O414  1  0.36087899  0.87491010  0.63122178  1
  O  O415  1  0.87643854  0.36676460  0.11459800  1
  O  O416  1  0.88247820  0.35981423  0.63230584  1
  O  O417  1  0.86446893  0.88068492  0.11252641  1
  O  O418  1  0.87077581  0.87007763  0.61962370  1
  O  O419  1  0.13573093  0.12526174  0.38583294  1
  O  O420  1  0.13132548  0.13810104  0.86647258  1
  O  O421  1  0.12561655  0.61790337  0.38929138  1
  O  O422  1  0.13027445  0.61220875  0.88221459  1
  O  O423  1  0.61916759  0.13946093  0.38504034  1
  O  O424  1  0.63598357  0.13498173  0.86093028  1
  O  O425  1  0.63072237  0.63107935  0.38197056  1
  O  O426  1  0.62087001  0.62466777  0.88684399  1
