# generated using pymatgen
data_V85Zn86O256
_symmetry_space_group_name_H-M   'P 1'
_cell_length_a   16.97951151
_cell_length_b   16.99780902
_cell_length_c   16.99435998
_cell_angle_alpha   89.80057944
_cell_angle_beta   89.88930870
_cell_angle_gamma   90.00873613
_symmetry_Int_Tables_number   1
_chemical_formula_structural   V85Zn86O256
_chemical_formula_sum   'V85 Zn86 O256'
_cell_volume   4904.77968182
_cell_formula_units_Z   1
loop_
 _symmetry_equiv_pos_site_id
 _symmetry_equiv_pos_as_xyz
  1  'x, y, z'
loop_
 _atom_site_type_symbol
 _atom_site_label
 _atom_site_symmetry_multiplicity
 _atom_site_fract_x
 _atom_site_fract_y
 _atom_site_fract_z
 _atom_site_occupancy
  V  V0  1  0.74911489  0.62390169  0.37622811  1
  V  V1  1  0.75823443  0.74760859  0.00162939  1
  V  V2  1  0.87904850  0.62557232  0.74425455  1
  V  V3  1  0.24205486  0.88678138  0.62566379  1
  V  V4  1  0.49334900  0.12791770  0.62758346  1
  V  V5  1  0.87541454  0.14247902  0.24039414  1
  V  V6  1  0.49989684  0.50193925  0.00182808  1
  V  V7  1  0.48697856  -0.00546660  -0.00265747  1
  V  V8  1  0.49439734  0.74947536  0.24440785  1
  V  V9  1  0.87609250  0.75087200  0.62153178  1
  V  V10  1  0.87672751  0.49605663  0.87692524  1
  V  V11  1  0.87606991  0.25483477  0.62566541  1
  V  V12  1  0.87910271  -0.00562616  0.87654417  1
  V  V13  1  0.24376118  0.49844506  0.25305587  1
  V  V14  1  0.87872419  0.88258139  0.49544822  1
  V  V15  1  0.25341109  0.72982198  -0.00729137  1
  V  V16  1  0.75222242  0.00006692  0.74969253  1
  V  V17  1  0.01138228  0.37592482  0.87322163  1
  V  V18  1  0.11606353  0.74553837  0.37787183  1
  V  V19  1  0.26516984  0.86547797  0.11650702  1
  V  V20  1  0.49952146  -0.00082255  0.49940588  1
  V  V21  1  -0.00112246  0.13900896  0.11926753  1
  V  V22  1  0.37496285  0.00238944  0.37130642  1
  V  V23  1  0.75249991  0.62446563  0.87628923  1
  V  V24  1  0.48756145  0.87749848  0.87806771  1
  V  V25  1  0.37594244  0.25089006  0.12509211  1
  V  V26  1  0.62597399  0.00018025  0.11983621  1
  V  V27  1  0.62389828  0.25020065  0.37666315  1
  V  V28  1  0.75070850  0.87605157  0.62345801  1
  V  V29  1  0.11967982  0.86716952  0.24532075  1
  V  V30  1  0.37402944  0.37556294  0.00067227  1
  V  V31  1  0.75519418  -0.00098428  0.24975985  1
  V  V32  1  0.62582176  0.87419592  0.75159788  1
  V  V33  1  0.00668086  0.50545606  0.00015016  1
  V  V34  1  0.37103160  0.75050267  0.62458592  1
  V  V35  1  0.75002695  0.12565946  0.87402150  1
  V  V36  1  0.62559009  0.12504721  0.50140199  1
  V  V37  1  0.00030764  0.62927670  0.13092386  1
  V  V38  1  0.87660859  0.62994599  0.25255349  1
  V  V39  1  0.62365596  0.50097591  0.62673392  1
  V  V40  1  0.62336549  0.62509588  0.50158832  1
  V  V41  1  0.49838924  0.62618706  0.62638296  1
  V  V42  1  0.37102215  0.49685661  0.38101490  1
  V  V43  1  0.24459549  0.74263216  0.49904414  1
  V  V44  1  0.62322346  0.37636758  0.25125374  1
  V  V45  1  0.62315428  0.24970894  0.87474337  1
  V  V46  1  0.24048217  0.49550948  0.75718933  1
  V  V47  1  0.62291813  0.74918712  0.37589341  1
  V  V48  1  0.49894035  0.24790022  0.25040035  1
  V  V49  1  0.74884014  0.50113566  0.25048486  1
  V  V50  1  0.49194711  0.37296927  0.38182439  1
  V  V51  1  0.37222200  0.50731624  0.87735274  1
  V  V52  1  0.37387565  0.62746914  0.24768275  1
  V  V53  1  0.49951998  0.87406088  0.37619372  1
  V  V54  1  0.49538467  0.49735713  0.50237982  1
  V  V55  1  0.12399410  0.50483373  0.12686960  1
  V  V56  1  0.37245844  0.10466502  0.75789478  1
  V  V57  1  0.75019755  0.75032220  0.49944385  1
  V  V58  1  0.62374183  0.37503796  0.75034875  1
  V  V59  1  0.24427192  0.37630318  0.12914740  1
  V  V60  1  0.12620246  0.49909695  0.61116104  1
  V  V61  1  0.75000988  0.49981138  0.75011178  1
  V  V62  1  0.26399148  0.37177489  0.61415760  1
  V  V63  1  0.00652730  0.36236115  0.35111753  1
  V  V64  1  0.00782029  0.25397256  0.75366910  1
  V  V65  1  0.75070551  0.37551441  0.62312170  1
  V  V66  1  0.75532716  0.25246464  0.00454642  1
  V  V67  1  0.36816743  0.62595899  0.75361519  1
  V  V68  1  -0.01229357  0.49101005  0.49928148  1
  V  V69  1  0.49826442  0.12353594  0.12375716  1
  V  V70  1  0.62583195  0.75105058  0.87536981  1
  V  V71  1  0.00032993  0.75662133  0.75546749  1
  V  V72  1  0.62520554  -0.00015023  0.62602007  1
  V  V73  1  0.75542617  0.25461314  0.50061780  1
  V  V74  1  0.75051396  0.12600609  0.37284060  1
  V  V75  1  0.12316163  0.88731931  0.75268010  1
  V  V76  1  0.75484663  0.87210648  0.12197092  1
  V  V77  1  0.62514428  0.87335584  0.25012601  1
  V  V78  1  0.62250023  0.50074028  0.12663764  1
  V  V79  1  0.24855096  0.10821239  0.88017696  1
  V  V80  1  0.49007253  0.25015800  0.74868714  1
  V  V81  1  0.87979083  0.12572948  0.74809380  1
  V  V82  1  0.00705280  -0.00622154  0.00142626  1
  V  V83  1  0.24903081  -0.00030252  0.25062421  1
  V  V84  1  0.62581309  0.62410019  0.00097001  1
  Zn  Zn85  1  0.01602268  0.63254032  0.61395163  1
  Zn  Zn86  1  0.01465814  0.12834110  0.61186237  1
  Zn  Zn87  1  0.88142672  0.36804456  0.00850760  1
  Zn  Zn88  1  0.13137653  0.74106718  0.87682453  1
  Zn  Zn89  1  0.87098585  0.49240795  0.38035151  1
  Zn  Zn90  1  0.49678404  0.37467386  0.87435061  1
  Zn  Zn91  1  0.12829921  0.00207516  0.11907134  1
  Zn  Zn92  1  0.13086300  0.13691306  0.46815259  1
  Zn  Zn93  1  0.75471957  0.36691031  0.13250579  1
  Zn  Zn94  1  0.37121163  0.87557036  0.49929300  1
  Zn  Zn95  1  0.49769568  0.75125991  0.75356694  1
  Zn  Zn96  1  0.62284826  0.12526091  -0.00220067  1
  Zn  Zn97  1  0.88547470  0.75165661  0.12883435  1
  Zn  Zn98  1  0.24612888  0.24336122  -0.00382393  1
  Zn  Zn99  1  0.24379471  0.62191875  0.37911869  1
  Zn  Zn100  1  0.88642432  0.00652741  0.37356499  1
  Zn  Zn101  1  0.88304868  0.86787166  -0.00948589  1
  Zn  Zn102  1  0.02529472  0.00771926  0.49773446  1
  Zn  Zn103  1  -0.00059218  0.87842110  0.37017161  1
  Zn  Zn104  1  0.12762892  0.24278170  0.88378963  1
  Zn  Zn105  1  0.49558779  0.63120227  0.12196696  1
  Zn  Zn106  1  0.36914234  0.12654602  0.24966091  1
  Zn  Zn107  1  0.19182061  0.17826116  0.16850466  1
  Zn  Zn108  1  0.20061692  0.19626946  0.69724734  1
  Zn  Zn109  1  0.19023526  0.68789415  0.18645091  1
  Zn  Zn110  1  0.18542024  0.68737503  0.68902769  1
  Zn  Zn111  1  0.68396624  0.18583354  0.18781184  1
  Zn  Zn112  1  0.68616647  0.18708345  0.68827718  1
  Zn  Zn113  1  0.68518383  0.68635383  0.18709129  1
  Zn  Zn114  1  0.68915591  0.68845717  0.68844761  1
  Zn  Zn115  1  0.30893251  0.31086439  0.31079598  1
  Zn  Zn116  1  0.30605632  0.31264791  0.81372771  1
  Zn  Zn117  1  0.30848796  0.81482581  0.31259383  1
  Zn  Zn118  1  0.30382120  0.81277077  0.81247156  1
  Zn  Zn119  1  0.81839053  0.31786028  0.31860631  1
  Zn  Zn120  1  0.81420631  0.31370474  0.81367423  1
  Zn  Zn121  1  0.81352013  0.81190478  0.31426907  1
  Zn  Zn122  1  0.81385866  0.81057100  0.81043584  1
  Zn  Zn123  1  0.18368936  0.42476412  0.43709552  1
  Zn  Zn124  1  0.18845065  0.44155577  0.94164683  1
  Zn  Zn125  1  0.18637802  0.93594211  0.43512678  1
  Zn  Zn126  1  0.18769856  0.92791127  0.93563262  1
  Zn  Zn127  1  0.68264773  0.43675980  0.43769464  1
  Zn  Zn128  1  0.68650859  0.43559130  0.93733359  1
  Zn  Zn129  1  0.68844820  0.93814631  0.43690543  1
  Zn  Zn130  1  0.68837252  0.93516430  0.93586167  1
  Zn  Zn131  1  0.31050477  0.05829921  0.06460170  1
  Zn  Zn132  1  0.31468604  0.06409642  0.56158291  1
  Zn  Zn133  1  0.31226460  0.56450769  0.06501368  1
  Zn  Zn134  1  0.30916644  0.56165223  0.56673554  1
  Zn  Zn135  1  0.81581783  0.06464149  0.05780360  1
  Zn  Zn136  1  0.81727705  0.06516093  0.56325507  1
  Zn  Zn137  1  0.81752399  0.55747421  0.06757141  1
  Zn  Zn138  1  0.81288650  0.56184992  0.56198107  1
  Zn  Zn139  1  0.43531199  0.43899650  0.19076942  1
  Zn  Zn140  1  0.43520457  0.43768359  0.69115496  1
  Zn  Zn141  1  0.43822043  0.93557503  0.18599606  1
  Zn  Zn142  1  0.43848158  0.93266889  0.68766978  1
  Zn  Zn143  1  0.93382583  0.43460633  0.18841203  1
  Zn  Zn144  1  0.94202949  0.43587212  0.68734889  1
  Zn  Zn145  1  0.93902471  0.94114112  0.18223147  1
  Zn  Zn146  1  0.94575332  0.94375279  0.67730108  1
  Zn  Zn147  1  0.05919021  0.06283905  0.30344175  1
  Zn  Zn148  1  0.06290579  0.06354734  0.81586731  1
  Zn  Zn149  1  0.05973307  0.55860960  0.31737481  1
  Zn  Zn150  1  0.06437998  0.57022957  0.81338170  1
  Zn  Zn151  1  0.56335107  0.06221907  0.31050338  1
  Zn  Zn152  1  0.56121288  0.06041023  0.81424858  1
  Zn  Zn153  1  0.55880831  0.56315058  0.31443101  1
  Zn  Zn154  1  0.55867267  0.56453675  0.81439992  1
  Zn  Zn155  1  0.43410150  0.18278697  0.43694860  1
  Zn  Zn156  1  0.43436716  0.18355809  0.93846968  1
  Zn  Zn157  1  0.43296949  0.68530818  0.43634263  1
  Zn  Zn158  1  0.43557972  0.69404793  0.94100710  1
  Zn  Zn159  1  0.94089959  0.19105838  0.43052988  1
  Zn  Zn160  1  0.94016784  0.18430722  0.93699644  1
  Zn  Zn161  1  0.93934847  0.68053165  0.44020789  1
  Zn  Zn162  1  0.96234810  0.67727828  0.92594971  1
  Zn  Zn163  1  0.06618964  0.31708198  0.05786003  1
  Zn  Zn164  1  0.07061858  0.31647025  0.57288465  1
  Zn  Zn165  1  0.07165286  0.81022790  0.06002706  1
  Zn  Zn166  1  0.06046852  0.81607204  0.56284478  1
  Zn  Zn167  1  0.56430845  0.31461841  0.06331442  1
  Zn  Zn168  1  0.56304766  0.31167265  0.56426934  1
  Zn  Zn169  1  0.56395627  0.81360821  0.05919673  1
  Zn  Zn170  1  0.56080808  0.81277712  0.56360177  1
  O  O171  1  0.10392912  0.11856087  0.13860159  1
  O  O172  1  0.13133580  0.16131085  0.61058509  1
  O  O173  1  0.11552216  0.61328448  0.13541298  1
  O  O174  1  0.12763599  0.60543525  0.63407117  1
  O  O175  1  0.61856843  0.11364131  0.12416595  1
  O  O176  1  0.61676728  0.11857343  0.62243384  1
  O  O177  1  0.62072158  0.61895618  0.11837366  1
  O  O178  1  0.61988078  0.62092499  0.62135003  1
  O  O179  1  0.38226188  0.38203876  0.37042099  1
  O  O180  1  0.37385833  0.38613796  0.88617028  1
  O  O181  1  0.38216097  0.88372116  0.37554916  1
  O  O182  1  0.38954342  0.87031533  0.86465253  1
  O  O183  1  0.89459011  0.38142352  0.36854473  1
  O  O184  1  0.88124884  0.38603694  0.87656954  1
  O  O185  1  0.87731735  0.87648585  0.38211171  1
  O  O186  1  0.86883346  0.89055450  0.87182867  1
  O  O187  1  0.26182736  -0.01185177  0.35773829  1
  O  O188  1  0.24978803  0.00891783  0.87929071  1
  O  O189  1  0.25428748  0.49681528  0.36960201  1
  O  O190  1  0.25882658  0.49830422  0.86691355  1
  O  O191  1  0.74508902  0.00716838  0.36136712  1
  O  O192  1  0.75683939  0.00622092  0.86972358  1
  O  O193  1  0.74638235  0.50517688  0.36779754  1
  O  O194  1  0.75779193  0.50360179  0.87032516  1
  O  O195  1  0.24329936  0.49598209  0.13337954  1
  O  O196  1  0.24171266  0.49705722  0.63561332  1
  O  O197  1  0.24820385  0.98749529  0.13386863  1
  O  O198  1  0.25624505  0.98476394  0.61910658  1
  O  O199  1  0.73883186  0.50603941  0.13855641  1
  O  O200  1  0.74327038  0.49561091  0.63035215  1
  O  O201  1  0.74535481  0.99267714  0.12957836  1
  O  O202  1  0.74536495  0.99615097  0.63012120  1
  O  O203  1  0.00954170  0.38332311  0.25167268  1
  O  O204  1  -0.00680730  0.36520202  0.76191294  1
  O  O205  1  0.01616773  0.87996004  0.24550008  1
  O  O206  1  0.01527250  0.86848759  0.73287137  1
  O  O207  1  0.50321832  0.36902285  0.26046353  1
  O  O208  1  0.50556449  0.36696668  0.75051678  1
  O  O209  1  0.50571324  0.86804190  0.25579518  1
  O  O210  1  0.50917445  0.87333955  0.75813036  1
  O  O211  1  0.50014893  0.13076227  0.24169039  1
  O  O212  1  0.49138978  0.12917281  0.74687338  1
  O  O213  1  0.49261090  0.63366935  0.25147835  1
  O  O214  1  0.48847119  0.62755102  0.74443686  1
  O  O215  1  0.98115138  0.12325986  0.23741953  1
  O  O216  1  0.98942471  0.13397040  0.75316585  1
  O  O217  1  0.98722405  0.61257241  0.24297162  1
  O  O218  1  0.98735471  0.63400460  0.74305964  1
  O  O219  1  0.37424404  0.26171574  0.00576354  1
  O  O220  1  0.33462050  0.21509550  0.49266279  1
  O  O221  1  0.35547293  0.74442990  0.00097382  1
  O  O222  1  0.36696272  0.75130830  0.50913979  1
  O  O223  1  0.85845512  0.24938952  -0.00838229  1
  O  O224  1  0.86239357  0.24259761  0.51050566  1
  O  O225  1  0.86458778  0.74757762  -0.00045481  1
  O  O226  1  0.86945462  0.75754687  0.50245257  1
  O  O227  1  0.13824348  0.22334051  0.54721752  1
  O  O228  1  0.13289488  0.25250771  0.99788160  1
  O  O229  1  0.13054185  0.75723353  0.48672958  1
  O  O230  1  0.14753544  0.76586299  0.99250119  1
  O  O231  1  0.63294786  0.24350112  0.49640052  1
  O  O232  1  0.63011967  0.24922883  0.98847276  1
  O  O233  1  0.62910532  0.74458005  0.49636357  1
  O  O234  1  0.63688568  0.74405845  0.99564194  1
  O  O235  1  0.49645283  0.24538547  0.12995566  1
  O  O236  1  0.50823367  0.23754824  0.63513481  1
  O  O237  1  0.50655590  0.75212417  0.14053463  1
  O  O238  1  0.48768593  0.74595407  0.62632623  1
  O  O239  1  0.99945565  0.23800636  0.11456860  1
  O  O240  1  0.98902481  0.25192260  0.63620958  1
  O  O241  1  1.00325457  0.73417104  0.11781721  1
  O  O242  1  0.99278314  0.74735383  0.62982327  1
  O  O243  1  -0.00570323  0.26258025  0.36225718  1
  O  O244  1  -0.00042574  0.25900551  0.87103084  1
  O  O245  1  0.01292124  0.75275285  0.38101119  1
  O  O246  1  -0.02299217  0.76812455  0.85316849  1
  O  O247  1  0.50169001  0.25514132  0.37367253  1
  O  O248  1  0.50865678  0.24962929  0.86859209  1
  O  O249  1  0.50451774  0.75430503  0.36902021  1
  O  O250  1  0.50830884  0.75898277  0.87631153  1
  O  O251  1  0.28224954  0.15554445  0.49695030  1
  O  O252  1  0.26193062  0.12424750  0.98498443  1
  O  O253  1  0.25203103  0.63787132  0.49939542  1
  O  O254  1  0.24265887  0.63031211  1.00612617  1
  O  O255  1  0.74481340  0.13360016  0.49479433  1
  O  O256  1  0.74683251  0.13566297  0.99281685  1
  O  O257  1  0.74366539  0.62986073  0.49624527  1
  O  O258  1  0.74727398  0.62981472  0.99642913  1
  O  O259  1  0.26180618  0.38227059  0.01239792  1
  O  O260  1  0.24684252  0.37229331  0.51390773  1
  O  O261  1  0.25347629  0.88340894  0.01704582  1
  O  O262  1  0.25012343  0.86415221  0.51208882  1
  O  O263  1  0.74842051  0.35894119  -0.00271682  1
  O  O264  1  0.74120074  0.36263148  0.50570080  1
  O  O265  1  0.75194479  0.86527081  0.00741196  1
  O  O266  1  0.75476637  0.86863605  0.50369245  1
  O  O267  1  0.13741320  0.50444546  0.24554345  1
  O  O268  1  0.13905907  0.50494841  0.75756704  1
  O  O269  1  0.13836462  0.98733799  0.25284883  1
  O  O270  1  0.11712776  0.98625156  0.75003381  1
  O  O271  1  0.62914745  0.49696643  0.24833032  1
  O  O272  1  0.62941761  0.49668983  0.74670041  1
  O  O273  1  0.63348345  0.99499803  0.23921072  1
  O  O274  1  0.63226123  0.99563153  0.74513788  1
  O  O275  1  0.36630890  -0.00251140  0.25347295  1
  O  O276  1  0.38007759  0.00648258  0.75382341  1
  O  O277  1  0.36722388  0.50591928  0.26156278  1
  O  O278  1  0.36961973  0.50837726  0.76017160  1
  O  O279  1  0.86252695  0.00208668  0.24907517  1
  O  O280  1  0.87311248  0.00839394  0.75474091  1
  O  O281  1  0.85969467  0.51054748  0.25186815  1
  O  O282  1  0.87166731  0.50670927  0.75517220  1
  O  O283  1  0.10474623  0.37524169  0.37878960  1
  O  O284  1  0.11274290  0.37940494  0.87892730  1
  O  O285  1  0.12534088  0.86417606  0.36235433  1
  O  O286  1  0.13188932  0.86893307  0.85444535  1
  O  O287  1  0.61290394  0.36943320  0.37080881  1
  O  O288  1  0.62199601  0.36608369  0.86866984  1
  O  O289  1  0.62047061  0.86931714  0.36974697  1
  O  O290  1  0.62341598  0.86844613  0.86845668  1
  O  O291  1  0.38090462  0.13276763  0.12562545  1
  O  O292  1  0.38729892  0.11855932  0.63957386  1
  O  O293  1  0.37870365  0.61648585  0.14305716  1
  O  O294  1  0.37839098  0.63182699  0.63291901  1
  O  O295  1  0.87983228  0.12301622  0.13403666  1
  O  O296  1  0.86945417  0.13892037  0.63663636  1
  O  O297  1  0.88170893  0.62557430  0.13617167  1
  O  O298  1  0.86901091  0.63096324  0.63540019  1
  O  O299  1  0.25572992  0.26060800  0.12721352  1
  O  O300  1  0.26063291  0.27658867  0.64563931  1
  O  O301  1  0.24503436  0.75998943  0.11502752  1
  O  O302  1  0.25597741  0.75230616  0.61852962  1
  O  O303  1  0.74034194  0.24791290  0.10782923  1
  O  O304  1  0.75386931  0.25492285  0.61953827  1
  O  O305  1  0.74842744  0.75683633  0.11713907  1
  O  O306  1  0.75483712  0.75629632  0.61855710  1
  O  O307  1  0.22488600  0.24307211  0.36138606  1
  O  O308  1  0.24827142  0.23965199  0.87493486  1
  O  O309  1  0.24186324  0.75059985  0.38449617  1
  O  O310  1  0.25079334  0.74353136  0.88470206  1
  O  O311  1  0.74503010  0.24711985  0.38274014  1
  O  O312  1  0.74080210  0.24610611  0.87972350  1
  O  O313  1  0.74211232  0.74402395  0.38038253  1
  O  O314  1  0.74771564  0.74443828  0.88297308  1
  O  O315  1  -0.00979238  0.11438712  0.01354932  1
  O  O316  1  0.01042644  0.13057859  0.49267363  1
  O  O317  1  -0.01435232  0.60951733  0.01856850  1
  O  O318  1  -0.00616925  0.60395967  0.50513259  1
  O  O319  1  0.50270325  0.11430782  0.00535659  1
  O  O320  1  0.50423872  0.12123744  0.50925408  1
  O  O321  1  0.50657132  0.62053472  0.00156956  1
  O  O322  1  0.50391904  0.61902900  0.50609306  1
  O  O323  1  0.50451332  0.37916142  0.48959143  1
  O  O324  1  0.48868517  0.38186026  1.00090645  1
  O  O325  1  0.49823217  0.88174994  0.49480567  1
  O  O326  1  0.50681923  0.88230966  0.99027212  1
  O  O327  1  1.00625777  0.39004045  0.50955291  1
  O  O328  1  0.99686649  0.38818142  0.99219392  1
  O  O329  1  0.98734166  0.88011775  0.49941211  1
  O  O330  1  0.99629402  0.88834512  1.01003948  1
  O  O331  1  0.49122162  0.49137240  0.38053430  1
  O  O332  1  0.49007048  0.49718457  0.88209099  1
  O  O333  1  0.49688054  0.99344625  0.37837907  1
  O  O334  1  0.50910152  0.98995147  0.88660019  1
  O  O335  1  0.99929016  0.49355489  0.39086352  1
  O  O336  1  0.99441142  0.49420006  0.87975106  1
  O  O337  1  1.00149385  0.99715690  0.37732369  1
  O  O338  1  0.99044014  1.01002528  0.89083008  1
  O  O339  1  0.00019596  0.00811548  0.11221214  1
  O  O340  1  -0.00808929  0.01731493  0.60936824  1
  O  O341  1  0.00902546  0.50392329  0.11929438  1
  O  O342  1  0.01260915  0.49836861  0.61991233  1
  O  O343  1  0.50915909  0.00036540  0.11846785  1
  O  O344  1  0.50525113  0.00661585  0.62050261  1
  O  O345  1  0.50586222  0.50088684  0.12035183  1
  O  O346  1  0.50491739  0.50611109  0.62213054  1
  O  O347  1  0.25774958  0.38712535  0.23883594  1
  O  O348  1  0.25810658  0.39483382  0.74616675  1
  O  O349  1  0.24324728  0.87947301  0.23883659  1
  O  O350  1  0.23721056  0.86912090  0.73486470  1
  O  O351  1  0.74198382  0.38556316  0.25483909  1
  O  O352  1  0.74379401  0.38074285  0.74508058  1
  O  O353  1  0.74546312  0.88010520  0.24248355  1
  O  O354  1  0.74620109  0.88037598  0.74287360  1
  O  O355  1  0.25063144  0.10331586  0.23657007  1
  O  O356  1  0.26813988  0.12328773  0.75575545  1
  O  O357  1  0.25747275  0.61587986  0.25266808  1
  O  O358  1  0.26206236  0.61339655  0.74574121  1
  O  O359  1  0.75704094  0.11787979  0.24976559  1
  O  O360  1  0.75865717  0.12051898  0.75412267  1
  O  O361  1  0.75235768  0.61892543  0.25692067  1
  O  O362  1  0.75812974  0.61985935  0.75582023  1
  O  O363  1  0.38265941  0.10697105  0.36661903  1
  O  O364  1  0.37087887  0.12336613  0.86289414  1
  O  O365  1  0.37174418  0.61352943  0.36615822  1
  O  O366  1  0.38146170  0.61577186  0.86734308  1
  O  O367  1  0.86735721  0.12607194  0.35697430  1
  O  O368  1  0.86982710  0.11740527  0.86554519  1
  O  O369  1  0.86703691  0.62018835  0.36902214  1
  O  O370  1  0.87297212  0.61623063  0.86339836  1
  O  O371  1  0.13665807  0.38803179  0.12271791  1
  O  O372  1  0.13890195  0.39395492  0.62969906  1
  O  O373  1  0.13269674  0.87657045  0.13773226  1
  O  O374  1  0.13729057  0.87295136  0.62883336  1
  O  O375  1  0.62910682  0.38203005  0.13362213  1
  O  O376  1  0.62966546  0.38150056  0.63109256  1
  O  O377  1  0.63568969  0.88156213  0.12933163  1
  O  O378  1  0.63017057  0.88028962  0.63009148  1
  O  O379  1  0.16625394  0.21568128  0.31297194  1
  O  O380  1  0.10898440  0.24442747  0.75557271  1
  O  O381  1  0.13193452  0.76137035  0.25974865  1
  O  O382  1  0.11322036  0.75186813  0.75167677  1
  O  O383  1  0.61947649  0.25487930  0.25728617  1
  O  O384  1  0.61821515  0.25396022  0.75808419  1
  O  O385  1  0.61729886  0.75356083  0.25705555  1
  O  O386  1  0.62509066  0.75527863  0.75699627  1
  O  O387  1  0.38104829  0.24785650  0.24413632  1
  O  O388  1  0.38966550  0.24953279  0.75683176  1
  O  O389  1  0.38386786  0.74006797  0.26127456  1
  O  O390  1  0.37158927  0.74174514  0.74097255  1
  O  O391  1  0.86166882  0.24007322  0.24243387  1
  O  O392  1  0.87938206  0.24238914  0.74623259  1
  O  O393  1  0.86786283  0.73503758  0.24845369  1
  O  O394  1  0.87672684  0.74363478  0.73982986  1
  O  O395  1  0.37856825  0.50942262  0.48736891  1
  O  O396  1  0.37864685  0.49664833  0.99518870  1
  O  O397  1  0.38147461  0.99814927  0.48974635  1
  O  O398  1  0.38906908  0.99768338  1.00625390  1
  O  O399  1  0.88237290  0.49301731  0.50377263  1
  O  O400  1  0.88095516  0.50296445  0.98526854  1
  O  O401  1  0.86179325  0.98852126  0.49163571  1
  O  O402  1  0.87984836  0.99593247  0.99104473  1
  O  O403  1  0.11002667  -0.00511719  -0.00230804  1
  O  O404  1  0.14077002  0.02379052  0.48389475  1
  O  O405  1  0.11580263  0.50029343  0.01102587  1
  O  O406  1  0.12353858  0.50260065  0.50999467  1
  O  O407  1  0.62574505  0.00030749  0.01172527  1
  O  O408  1  0.62045907  0.00596974  0.50531042  1
  O  O409  1  0.62070879  0.50409263  0.00465909  1
  O  O410  1  0.61728658  0.50577509  0.50704867  1
  O  O411  1  0.36809708  0.37253708  0.11893949  1
  O  O412  1  0.36366779  0.39494472  0.61795033  1
  O  O413  1  0.36380449  0.87011472  0.13230074  1
  O  O414  1  0.36426659  0.86447529  0.62734879  1
  O  O415  1  0.86128392  0.39659202  0.11506345  1
  O  O416  1  0.86641095  0.36225834  0.63454061  1
  O  O417  1  0.86339175  0.87038820  0.12560354  1
  O  O418  1  0.86881911  0.87142042  0.61530444  1
  O  O419  1  0.12837220  0.14974546  0.35078109  1
  O  O420  1  0.14490111  0.12356506  0.86577935  1
  O  O421  1  0.12599624  0.64215970  0.36547954  1
  O  O422  1  0.07072721  0.64662203  0.89115728  1
  O  O423  1  0.62942672  0.13103569  0.38004255  1
  O  O424  1  0.63084005  0.13458170  0.87299339  1
  O  O425  1  0.62799122  0.62921764  0.38265801  1
  O  O426  1  0.63216793  0.62930260  0.88044597  1
