# generated using pymatgen
data_V85Zn86O256
_symmetry_space_group_name_H-M   'P 1'
_cell_length_a   16.96341364
_cell_length_b   16.96475924
_cell_length_c   16.95529104
_cell_angle_alpha   89.93346810
_cell_angle_beta   90.09180824
_cell_angle_gamma   90.00234191
_symmetry_Int_Tables_number   1
_chemical_formula_structural   V85Zn86O256
_chemical_formula_sum   'V85 Zn86 O256'
_cell_volume   4879.38796896
_cell_formula_units_Z   1
loop_
 _symmetry_equiv_pos_site_id
 _symmetry_equiv_pos_as_xyz
  1  'x, y, z'
loop_
 _atom_site_type_symbol
 _atom_site_label
 _atom_site_symmetry_multiplicity
 _atom_site_fract_x
 _atom_site_fract_y
 _atom_site_fract_z
 _atom_site_occupancy
  V  V0  1  0.74597103  0.24645542  0.00039117  1
  V  V1  1  0.87838386  0.62548617  0.75027591  1
  V  V2  1  0.12380065  0.00167361  0.12525034  1
  V  V3  1  0.87959474  0.24343058  0.62539576  1
  V  V4  1  0.00498097  0.25020883  0.25114187  1
  V  V5  1  0.62304637  0.24992307  0.87269512  1
  V  V6  1  0.11648450  0.27032588  0.87690757  1
  V  V7  1  0.37500020  0.25381392  0.11997203  1
  V  V8  1  0.01431026  0.75032716  0.75403219  1
  V  V9  1  0.12560445  0.12596689  -0.00564643  1
  V  V10  1  0.49250878  0.50043113  -0.00159940  1
  V  V11  1  0.25416107  0.12042338  0.37701634  1
  V  V12  1  0.25459450  0.48662934  0.75457863  1
  V  V13  1  0.62699995  0.50145682  0.62353889  1
  V  V14  1  0.62607292  0.50136180  0.12808362  1
  V  V15  1  0.37045613  0.62291120  0.26731759  1
  V  V16  1  0.87497295  0.25023155  0.12628215  1
  V  V17  1  0.74965732  0.61974173  0.36794834  1
  V  V18  1  0.12619151  0.49948114  0.12757820  1
  V  V19  1  0.00406971  0.26198098  0.75517609  1
  V  V20  1  0.48859506  0.50104868  0.49792848  1
  V  V21  1  0.87512276  0.87489084  -0.00523259  1
  V  V22  1  -0.00081619  0.86119718  0.36294503  1
  V  V23  1  0.00636476  0.37323863  0.37209106  1
  V  V24  1  0.49757430  0.62457146  0.12729638  1
  V  V25  1  0.24661528  0.37875923  0.12819864  1
  V  V26  1  0.87451233  0.87263727  0.49953204  1
  V  V27  1  0.74730759  0.13068285  0.38106293  1
  V  V28  1  0.74969441  0.38032125  0.13067532  1
  V  V29  1  0.74934003  0.87341916  0.12534472  1
  V  V30  1  0.00006225  0.12518846  0.12531528  1
  V  V31  1  0.87279888  0.36824256  0.49962597  1
  V  V32  1  0.24878540  0.87495433  0.12467618  1
  V  V33  1  0.37541602  0.00314520  0.87499257  1
  V  V34  1  0.24552948  0.62979649  0.87159144  1
  V  V35  1  0.01381227  -0.00150883  0.49876329  1
  V  V36  1  0.62564829  0.87479508  0.74969096  1
  V  V37  1  0.62479263  0.37766616  0.25230729  1
  V  V38  1  0.01557629  0.87033714  0.87238532  1
  V  V39  1  0.61809513  0.74864910  0.86946438  1
  V  V40  1  0.37457664  0.12373811  0.25102126  1
  V  V41  1  0.62355711  0.37208669  0.75084721  1
  V  V42  1  0.13189355  0.48647969  0.63180662  1
  V  V43  1  0.87867425  0.74879904  0.13229060  1
  V  V44  1  0.23653881  0.87696344  0.62546125  1
  V  V45  1  0.12252433  0.85978038  0.24960410  1
  V  V46  1  0.13845332  0.63384395  0.48998908  1
  V  V47  1  0.24952576  -0.00092897  0.25385402  1
  V  V48  1  0.49634049  0.14277484  0.62531277  1
  V  V49  1  0.49619692  0.75022366  0.25402157  1
  V  V50  1  0.24384941  0.75001909  -0.00597064  1
  V  V51  1  0.62356970  0.74949982  0.37585758  1
  V  V52  1  0.74977271  0.62532709  0.87444595  1
  V  V53  1  0.37354699  0.74988078  0.12741928  1
  V  V54  1  0.61554131  -0.00139531  0.61642797  1
  V  V55  1  0.50134110  0.87965069  0.87495285  1
  V  V56  1  0.50074688  0.63102660  0.63039192  1
  V  V57  1  0.23249165  -0.00361287  0.75019467  1
  V  V58  1  0.24446242  0.25181106  -0.00110193  1
  V  V59  1  0.37502279  0.75433268  0.62057584  1
  V  V60  1  0.00403364  0.62619874  0.62587135  1
  V  V61  1  0.87640984  0.37521314  -0.00496833  1
  V  V62  1  0.00408428  0.49854165  0.50062427  1
  V  V63  1  0.62209311  0.87465840  0.25013026  1
  V  V64  1  0.75120764  0.74719476  0.50067937  1
  V  V65  1  0.38305481  0.89268951  0.50230934  1
  V  V66  1  0.25784915  0.25447764  0.51570350  1
  V  V67  1  0.87729909  0.49901421  0.87520577  1
  V  V68  1  0.74883450  0.74803548  -0.00078848  1
  V  V69  1  0.87393904  0.00112809  0.37363654  1
  V  V70  1  0.87227305  0.49758944  0.36770634  1
  V  V71  1  0.00050856  0.62730121  0.13149469  1
  V  V72  1  0.37504827  0.63263717  0.75446017  1
  V  V73  1  0.75164753  0.36809249  0.62145888  1
  V  V74  1  0.38003196  0.87811292  0.00080455  1
  V  V75  1  0.49784390  0.89139036  0.37917906  1
  V  V76  1  0.25162174  0.50128898  0.26381604  1
  V  V77  1  0.00089013  0.49765787  -0.00427819  1
  V  V78  1  0.74582031  0.00179550  0.24598719  1
  V  V79  1  0.49702882  0.38179402  0.87525310  1
  V  V80  1  0.62715463  0.25411634  0.38461972  1
  V  V81  1  0.12833397  0.24802883  0.37660425  1
  V  V82  1  0.48566643  0.37765405  0.37681736  1
  V  V83  1  0.50129264  0.12269331  0.11349574  1
  V  V84  1  0.75383116  0.50025925  0.74888180  1
  Zn  Zn85  1  0.49786901  0.25207370  0.25190798  1
  Zn  Zn86  1  -0.00061008  -0.00003079  -0.00347625  1
  Zn  Zn87  1  0.75405887  0.00415841  0.74557904  1
  Zn  Zn88  1  0.87670252  0.62433434  0.25112016  1
  Zn  Zn89  1  0.37196191  0.37140354  0.53407644  1
  Zn  Zn90  1  0.61623027  0.11439405  -0.01162077  1
  Zn  Zn91  1  0.26241284  0.15015642  0.85167096  1
  Zn  Zn92  1  0.62255716  0.62469810  -0.00092251  1
  Zn  Zn93  1  0.75082466  0.87735984  0.62567059  1
  Zn  Zn94  1  0.12024153  0.62977237  -0.00568522  1
  Zn  Zn95  1  0.13447824  0.11559768  0.50684117  1
  Zn  Zn96  1  0.36781769  0.38108886  -0.01449581  1
  Zn  Zn97  1  0.87414598  -0.00189255  0.86751647  1
  Zn  Zn98  1  0.87353404  0.12600512  0.24905622  1
  Zn  Zn99  1  0.38008871  0.12295622  0.73880490  1
  Zn  Zn100  1  0.87539019  0.75002079  0.62779605  1
  Zn  Zn101  1  0.87771263  0.12234375  0.75731334  1
  Zn  Zn102  1  0.62287124  0.62341837  0.49957937  1
  Zn  Zn103  1  0.61164002  -0.00759627  0.11581315  1
  Zn  Zn104  1  0.00700053  0.11050932  0.63513178  1
  Zn  Zn105  1  0.61773094  0.11922069  0.49544102  1
  Zn  Zn106  1  0.75030898  0.11949294  0.87057018  1
  Zn  Zn107  1  0.18626665  0.18775112  0.18740134  1
  Zn  Zn108  1  0.17830059  0.18299924  0.68813460  1
  Zn  Zn109  1  0.19114125  0.68171054  0.18488906  1
  Zn  Zn110  1  0.19202483  0.68713434  0.67883888  1
  Zn  Zn111  1  0.68522348  0.19143607  0.19069706  1
  Zn  Zn112  1  0.68695517  0.18285519  0.68660659  1
  Zn  Zn113  1  0.68668838  0.68867748  0.18862376  1
  Zn  Zn114  1  0.68819528  0.68906606  0.68793164  1
  Zn  Zn115  1  0.30689503  0.31004101  0.30873594  1
  Zn  Zn116  1  0.34311127  0.30497375  0.72731698  1
  Zn  Zn117  1  0.31242125  0.80895501  0.32156803  1
  Zn  Zn118  1  0.31167357  0.81373885  0.80856399  1
  Zn  Zn119  1  0.81347594  0.31197173  0.31167708  1
  Zn  Zn120  1  0.81139409  0.30823863  0.81058733  1
  Zn  Zn121  1  0.80934248  0.81155150  0.31308501  1
  Zn  Zn122  1  0.81306808  0.81008297  0.81032052  1
  Zn  Zn123  1  0.18821391  0.43450231  0.44623949  1
  Zn  Zn124  1  0.19019759  0.44418330  0.93760148  1
  Zn  Zn125  1  0.19780435  0.90851597  0.42979718  1
  Zn  Zn126  1  0.19172747  0.94011125  0.93801544  1
  Zn  Zn127  1  0.68477233  0.43904028  0.43954574  1
  Zn  Zn128  1  0.68711696  0.43873694  0.94046950  1
  Zn  Zn129  1  0.68732031  0.93691746  0.43560010  1
  Zn  Zn130  1  0.69030803  0.93992148  0.93617432  1
  Zn  Zn131  1  0.31229590  0.06387824  0.06151216  1
  Zn  Zn132  1  0.31330073  0.06259534  0.56807381  1
  Zn  Zn133  1  0.31309057  0.56673791  0.06327308  1
  Zn  Zn134  1  0.31271419  0.56388346  0.56781684  1
  Zn  Zn135  1  0.81241093  0.06173215  0.05926481  1
  Zn  Zn136  1  0.80855549  0.05944585  0.56412729  1
  Zn  Zn137  1  0.81314456  0.56425153  0.06214625  1
  Zn  Zn138  1  0.81558161  0.55965405  0.55907559  1
  Zn  Zn139  1  0.43490182  0.43924493  0.18974807  1
  Zn  Zn140  1  0.44024202  0.44896248  0.69056725  1
  Zn  Zn141  1  0.43552518  0.93909575  0.18945201  1
  Zn  Zn142  1  0.43943557  0.93919380  0.69373189  1
  Zn  Zn143  1  0.94077094  0.43556601  0.18582369  1
  Zn  Zn144  1  0.93956825  0.43645311  0.68653471  1
  Zn  Zn145  1  0.93574661  0.93828763  0.18465291  1
  Zn  Zn146  1  0.94260031  0.93475639  0.68822763  1
  Zn  Zn147  1  0.06471187  0.06060638  0.31473807  1
  Zn  Zn148  1  0.05526105  0.06559265  0.81491599  1
  Zn  Zn149  1  0.06664353  0.56260211  0.31201147  1
  Zn  Zn150  1  0.06727699  0.56004573  0.81161675  1
  Zn  Zn151  1  0.56370698  0.06892907  0.30497586  1
  Zn  Zn152  1  0.56266099  0.06095384  0.80686389  1
  Zn  Zn153  1  0.55982758  0.56145293  0.31484869  1
  Zn  Zn154  1  0.56386677  0.56067290  0.81030341  1
  Zn  Zn155  1  0.43966951  0.18785117  0.44111092  1
  Zn  Zn156  1  0.41605346  0.21354990  0.89944787  1
  Zn  Zn157  1  0.43693137  0.69423050  0.44408882  1
  Zn  Zn158  1  0.43486172  0.68850179  0.93837802  1
  Zn  Zn159  1  0.93767444  0.18270945  0.43828332  1
  Zn  Zn160  1  0.93622549  0.18648588  0.93692942  1
  Zn  Zn161  1  0.93889313  0.68244789  0.43748204  1
  Zn  Zn162  1  0.93882238  0.68858083  0.93895066  1
  Zn  Zn163  1  0.06172732  0.31535552  0.06524274  1
  Zn  Zn164  1  0.06503164  0.30423847  0.56276779  1
  Zn  Zn165  1  0.06145258  0.81303512  0.06314077  1
  Zn  Zn166  1  0.05940746  0.81044934  0.55754327  1
  Zn  Zn167  1  0.56042268  0.31237838  0.05945170  1
  Zn  Zn168  1  0.55912464  0.31757224  0.56170656  1
  Zn  Zn169  1  0.56187632  0.80985482  0.06085317  1
  Zn  Zn170  1  0.56199275  0.81277525  0.56163566  1
  O  O171  1  0.11929096  0.12230085  0.11785969  1
  O  O172  1  0.11641546  0.12654512  0.61574772  1
  O  O173  1  0.11794181  0.61629329  0.12047945  1
  O  O174  1  0.11547732  0.61502703  0.61834746  1
  O  O175  1  0.60582871  0.13149608  0.13008032  1
  O  O176  1  0.61896851  0.11290436  0.62208114  1
  O  O177  1  0.61819492  0.61662323  0.12770860  1
  O  O178  1  0.61778810  0.62059857  0.62566814  1
  O  O179  1  0.38654564  0.36826528  0.36798125  1
  O  O180  1  0.39665770  0.37098476  0.86889755  1
  O  O181  1  0.38471847  0.87457055  0.39338893  1
  O  O182  1  0.38302286  0.87970830  0.88070502  1
  O  O183  1  0.88231620  0.37773623  0.38208394  1
  O  O184  1  0.86614571  0.38061226  0.88870285  1
  O  O185  1  0.88090496  0.88125543  0.37737277  1
  O  O186  1  0.87854539  0.87028052  0.88650619  1
  O  O187  1  0.24317122  0.00879864  0.36454874  1
  O  O188  1  0.25862826  -0.00854692  0.86033474  1
  O  O189  1  0.24335746  0.49017847  0.36125872  1
  O  O190  1  0.24687477  0.50970036  0.86109550  1
  O  O191  1  0.75411789  0.00561462  0.36492492  1
  O  O192  1  0.75432120  0.00075195  0.86665357  1
  O  O193  1  0.76060498  0.50788853  0.38456911  1
  O  O194  1  0.75585782  0.50534597  0.87015196  1
  O  O195  1  0.24291159  0.49479804  0.12411149  1
  O  O196  1  0.23805051  0.50165039  0.63607044  1
  O  O197  1  0.24349199  0.99613943  0.13251287  1
  O  O198  1  0.25357799  0.99033825  0.63993838  1
  O  O199  1  0.74020620  0.49084274  0.11827341  1
  O  O200  1  0.74901723  0.49099078  0.62817701  1
  O  O201  1  0.75600684  0.99333034  0.13735437  1
  O  O202  1  0.73652496  0.99510897  0.62543939  1
  O  O203  1  -0.00370742  0.36365829  0.26102412  1
  O  O204  1  -0.00223610  0.36196867  0.74996103  1
  O  O205  1  0.00355472  0.87577179  0.25588770  1
  O  O206  1  -0.00199676  0.86521398  0.76404114  1
  O  O207  1  0.50728462  0.37617778  0.25796692  1
  O  O208  1  0.51901189  0.39183716  0.76004851  1
  O  O209  1  0.50076150  0.87019334  0.25810146  1
  O  O210  1  0.51172814  0.87586897  0.76346248  1
  O  O211  1  0.48661179  0.13097164  0.24387133  1
  O  O212  1  0.50197458  0.12044764  0.73133997  1
  O  O213  1  0.49013431  0.62905823  0.24774596  1
  O  O214  1  0.48887095  0.61351352  0.73980036  1
  O  O215  1  0.99863689  0.13374179  0.24637865  1
  O  O216  1  0.99533057  0.13680240  0.74836338  1
  O  O217  1  0.99899680  0.61719160  0.23572386  1
  O  O218  1  0.99833846  0.62873743  0.74402238  1
  O  O219  1  0.36166750  0.25376612  0.00421078  1
  O  O220  1  0.35980089  0.25074010  0.49778455  1
  O  O221  1  0.36685037  0.75938545  0.00609253  1
  O  O222  1  0.37534814  0.75901806  0.51527561  1
  O  O223  1  0.86810321  0.25899511  0.00583561  1
  O  O224  1  0.88719689  0.26171336  0.50751763  1
  O  O225  1  0.86867116  0.75572022  0.00876189  1
  O  O226  1  0.86829678  0.75607684  0.49772600  1
  O  O227  1  0.13730873  0.24776190  0.49009879  1
  O  O228  1  0.12480837  0.24602454  0.99704868  1
  O  O229  1  0.11900771  0.73169139  0.50397600  1
  O  O230  1  0.13987018  0.74811663  1.00776857  1
  O  O231  1  0.62652671  0.25660896  0.48635651  1
  O  O232  1  0.63319156  0.25127091  0.99251343  1
  O  O233  1  0.63569053  0.74901102  0.49450593  1
  O  O234  1  0.63136739  0.74789257  0.99062963  1
  O  O235  1  0.48831331  0.24556951  0.12603594  1
  O  O236  1  0.51105603  0.24163982  0.63034816  1
  O  O237  1  0.49369776  0.74546999  0.13351841  1
  O  O238  1  0.49606633  0.73701642  0.62165161  1
  O  O239  1  0.99690040  0.24746989  0.13415585  1
  O  O240  1  0.99370740  0.25170722  0.63701210  1
  O  O241  1  0.99027083  0.73875393  0.11651765  1
  O  O242  1  0.99743285  0.74088545  0.63139865  1
  O  O243  1  0.00693308  0.25332722  0.37139979  1
  O  O244  1  0.00283698  0.24968909  0.86466708  1
  O  O245  1  -0.00967260  0.76276548  0.37322701  1
  O  O246  1  -0.00076968  0.75912553  0.86936948  1
  O  O247  1  0.50891628  0.26037478  0.37402591  1
  O  O248  1  0.51671628  0.26504470  0.88152958  1
  O  O249  1  0.50551501  0.75726351  0.37109510  1
  O  O250  1  0.51107900  0.75871768  0.88166374  1
  O  O251  1  0.25399784  0.13145980  0.49140276  1
  O  O252  1  0.23833308  0.13871040  1.00881375  1
  O  O253  1  0.23723924  0.62130655  0.50693867  1
  O  O254  1  0.25317998  0.63310541  0.98961403  1
  O  O255  1  0.74382634  0.11747941  0.48371538  1
  O  O256  1  0.74749975  0.14093006  1.00449126  1
  O  O257  1  0.75160162  0.63262063  0.49121325  1
  O  O258  1  0.74753875  0.62999567  0.99283701  1
  O  O259  1  0.25054138  0.37080179  0.00905434  1
  O  O260  1  0.25455888  0.35966044  0.50027839  1
  O  O261  1  0.25652789  0.86721301  0.00516167  1
  O  O262  1  0.26970470  0.88916526  0.52218075  1
  O  O263  1  0.75600651  0.36853725  0.01077989  1
  O  O264  1  0.76235888  0.38098527  0.50875049  1
  O  O265  1  0.75770955  0.86687122  0.00574679  1
  O  O266  1  0.75977573  0.86391994  0.49372141  1
  O  O267  1  0.13953598  0.50607190  0.23830330  1
  O  O268  1  0.13501157  0.49995696  0.73944661  1
  O  O269  1  0.13302593  0.99501677  0.24415748  1
  O  O270  1  0.13397541  0.99778570  0.75823049  1
  O  O271  1  0.61892768  0.49021746  0.23972965  1
  O  O272  1  0.63587964  0.49379921  0.74325762  1
  O  O273  1  0.63307529  0.99504255  0.24352881  1
  O  O274  1  0.62780026  0.98837777  0.73989131  1
  O  O275  1  0.36049788  0.01165952  0.24269986  1
  O  O276  1  0.37280495  0.00434151  0.76297385  1
  O  O277  1  0.36154383  0.50879153  0.24720991  1
  O  O278  1  0.35804455  0.51602117  0.74048915  1
  O  O279  1  0.86582059  -0.00045212  0.25901798  1
  O  O280  1  0.87467325  0.00188874  0.74655590  1
  O  O281  1  0.88048681  0.49635150  0.26474487  1
  O  O282  1  0.87369408  0.50420380  0.75542374  1
  O  O283  1  0.11328939  0.36523657  0.38280784  1
  O  O284  1  0.11948000  0.36901195  0.88563098  1
  O  O285  1  0.10267732  0.88028098  0.36272788  1
  O  O286  1  0.11361056  0.87404681  0.88223604  1
  O  O287  1  0.62193135  0.37234412  0.36776269  1
  O  O288  1  0.62486504  0.37074169  0.86829877  1
  O  O289  1  0.61789399  0.86965331  0.36958258  1
  O  O290  1  0.61936697  0.86826389  0.87029479  1
  O  O291  1  0.38007286  0.13417714  0.12864378  1
  O  O292  1  0.39090749  0.12682537  0.62249757  1
  O  O293  1  0.37957970  0.63222181  0.13422873  1
  O  O294  1  0.38058315  0.63533858  0.63162132  1
  O  O295  1  0.88147219  0.13251489  0.12490385  1
  O  O296  1  0.87979786  0.13801441  0.61411681  1
  O  O297  1  0.88123406  0.63050346  0.12779375  1
  O  O298  1  0.88953951  0.62018843  0.62927379  1
  O  O299  1  0.25173162  0.25951924  0.11931293  1
  O  O300  1  0.24913071  0.24497832  0.61567075  1
  O  O301  1  0.25634559  0.75441327  0.11757822  1
  O  O302  1  0.26047892  0.76888387  0.63228980  1
  O  O303  1  0.75312979  0.25971671  0.12004828  1
  O  O304  1  0.76090062  0.26251798  0.62955230  1
  O  O305  1  0.75658362  0.75349069  0.11997955  1
  O  O306  1  0.75335049  0.75121955  0.61231100  1
  O  O307  1  0.24196784  0.24121892  0.37599459  1
  O  O308  1  0.23230598  0.25402181  0.89282183  1
  O  O309  1  0.22971754  0.80542220  0.39147951  1
  O  O310  1  0.25506626  0.74551271  0.88399472  1
  O  O311  1  0.74181720  0.24066979  0.36634089  1
  O  O312  1  0.74061836  0.25319324  0.88569074  1
  O  O313  1  0.74557784  0.74149745  0.38188695  1
  O  O314  1  0.74137650  0.74412339  0.87961395  1
  O  O315  1  0.01005285  0.12470927  0.00656079  1
  O  O316  1  0.00330748  0.10395425  0.49093294  1
  O  O317  1  -0.00147088  0.61444322  0.01021154  1
  O  O318  1  0.00291106  0.61315986  0.50715075  1
  O  O319  1  0.49819564  0.13193288  0.01378849  1
  O  O320  1  0.50424204  0.13000345  0.51526088  1
  O  O321  1  0.49968547  0.61829625  0.00762788  1
  O  O322  1  0.49941916  0.61778103  0.50909039  1
  O  O323  1  0.49280615  0.38241679  0.49377792  1
  O  O324  1  0.49878575  0.38437216  0.99329211  1
  O  O325  1  0.49260855  0.87346201  0.49304387  1
  O  O326  1  0.48887730  0.87032489  0.99303789  1
  O  O327  1  0.99477963  0.38103678  0.49321301  1
  O  O328  1  0.98692212  0.38547525  1.00980004  1
  O  O329  1  0.99264552  0.88005601  0.48481024  1
  O  O330  1  0.99307305  0.87160131  0.98891351  1
  O  O331  1  0.50416344  0.49137924  0.38756970  1
  O  O332  1  0.51161542  0.49464565  0.88877072  1
  O  O333  1  0.50701516  0.99016390  0.36812087  1
  O  O334  1  0.49229886  0.98924145  0.87432791  1
  O  O335  1  0.99583706  0.49097719  0.38152985  1
  O  O336  1  0.99537246  0.50714826  0.88792253  1
  O  O337  1  0.98818676  0.99244887  0.37815036  1
  O  O338  1  0.99703670  0.98224306  0.87669051  1
  O  O339  1  0.00606667  0.00666440  0.12320088  1
  O  O340  1  -0.00305376  -0.00767291  0.60177135  1
  O  O341  1  0.00709384  0.50470654  0.11840333  1
  O  O342  1  0.00981662  0.50447697  0.62047390  1
  O  O343  1  0.49516988  0.01738764  0.12950292  1
  O  O344  1  0.51397058  0.00046542  0.62670979  1
  O  O345  1  0.50689559  0.50351445  0.11947049  1
  O  O346  1  0.50736620  0.51050173  0.61747895  1
  O  O347  1  0.25531021  0.38917892  0.23842791  1
  O  O348  1  0.25944610  0.38913679  0.75696265  1
  O  O349  1  0.24313445  0.88373167  0.24309994  1
  O  O350  1  0.25333580  0.88533696  0.73845704  1
  O  O351  1  0.74170773  0.37174668  0.23930720  1
  O  O352  1  0.74596516  0.38126902  0.74127192  1
  O  O353  1  0.74280596  0.88234766  0.24709528  1
  O  O354  1  0.73768575  0.87119344  0.74622748  1
  O  O355  1  0.25396784  0.11887635  0.25523329  1
  O  O356  1  0.24814819  0.10660718  0.74581711  1
  O  O357  1  0.25684787  0.61157431  0.24838821  1
  O  O358  1  0.25655704  0.62636248  0.75588793  1
  O  O359  1  0.74945035  0.11658016  0.25671711  1
  O  O360  1  0.75870034  0.12571762  0.75114891  1
  O  O361  1  0.75273869  0.62866498  0.26406932  1
  O  O362  1  0.75801490  0.61990525  0.75339917  1
  O  O363  1  0.36494578  0.13451775  0.36251178  1
  O  O364  1  0.36700070  0.10555318  0.89706747  1
  O  O365  1  0.37694043  0.63236714  0.36626134  1
  O  O366  1  0.36601407  0.63186648  0.86378369  1
  O  O367  1  0.86578836  0.11705518  0.37355279  1
  O  O368  1  0.87015568  0.11818298  0.87885791  1
  O  O369  1  0.86985384  0.61447808  0.37346500  1
  O  O370  1  0.87003695  0.61936705  0.87050119  1
  O  O371  1  0.13409130  0.38614361  0.12191965  1
  O  O372  1  0.12125485  0.38845697  0.62018920  1
  O  O373  1  0.12802994  0.88137007  0.13111766  1
  O  O374  1  0.13837610  0.87255011  0.61508616  1
  O  O375  1  0.62974359  0.38074253  0.13195433  1
  O  O376  1  0.63393854  0.37946840  0.63095058  1
  O  O377  1  0.63005839  0.87253224  0.13234698  1
  O  O378  1  0.62274694  0.88155522  0.63205933  1
  O  O379  1  0.11577475  0.24520270  0.26168323  1
  O  O380  1  0.11272230  0.24851990  0.76181503  1
  O  O381  1  0.13019569  0.76117870  0.24185685  1
  O  O382  1  0.11270657  0.74348371  0.74260292  1
  O  O383  1  0.62107054  0.26432646  0.25752569  1
  O  O384  1  0.63475438  0.26421314  0.75842689  1
  O  O385  1  0.61721904  0.75536471  0.25585557  1
  O  O386  1  0.62851317  0.75717926  0.76083767  1
  O  O387  1  0.36921691  0.24100970  0.23564283  1
  O  O388  1  0.35771380  0.21981967  0.79514186  1
  O  O389  1  0.37541678  0.74462758  0.24855668  1
  O  O390  1  0.37470495  0.74199658  0.73919690  1
  O  O391  1  0.88586356  0.24846387  0.24516568  1
  O  O392  1  0.88568285  0.25069804  0.74193597  1
  O  O393  1  0.86994094  0.75010320  0.23599784  1
  O  O394  1  0.88483185  0.74138761  0.74765879  1
  O  O395  1  0.38534625  0.49321466  0.51341714  1
  O  O396  1  0.38737434  0.49761926  1.00664105  1
  O  O397  1  0.38310308  0.99116771  0.50616572  1
  O  O398  1  0.36230303  0.98330754  0.99419472  1
  O  O399  1  0.88673734  0.48949183  0.49291827  1
  O  O400  1  0.88097643  0.49344935  0.99650820  1
  O  O401  1  0.87562882  0.98988043  0.48749831  1
  O  O402  1  0.87734718  0.98391442  1.00311823  1
  O  O403  1  0.12708759  0.00998869  0.00631118  1
  O  O404  1  0.11406323  -0.01121806  0.48530769  1
  O  O405  1  0.11640628  0.50274096  0.00850518  1
  O  O406  1  0.11924265  0.50460043  0.51140645  1
  O  O407  1  0.63630632  0.00574967  0.00816166  1
  O  O408  1  0.62646378  -0.00450873  0.51249342  1
  O  O409  1  0.61639676  0.50096432  0.01319003  1
  O  O410  1  0.61472293  0.50074429  0.50792294  1
  O  O411  1  0.36660785  0.36608968  0.12422396  1
  O  O412  1  0.38832942  0.36165125  0.64516457  1
  O  O413  1  0.37018217  0.87039046  0.11966931  1
  O  O414  1  0.38538986  0.87017513  0.61760268  1
  O  O415  1  0.86699218  0.37211281  0.11868713  1
  O  O416  1  0.87070898  0.36877736  0.61764206  1
  O  O417  1  0.87142009  0.86619438  0.11738270  1
  O  O418  1  0.87584347  0.87228027  0.60859535  1
  O  O419  1  0.13556940  0.13120977  0.37959337  1
  O  O420  1  0.12636071  0.13159020  0.88812139  1
  O  O421  1  0.12237341  0.61695101  0.39128283  1
  O  O422  1  0.13932834  0.62354089  0.87637959  1
  O  O423  1  0.62890114  0.13617993  0.37358082  1
  O  O424  1  0.62488136  0.13752425  0.87217906  1
  O  O425  1  0.63276643  0.62919423  0.37677488  1
  O  O426  1  0.63021810  0.63283961  0.87336616  1
