# generated using pymatgen
data_V85Zn86O256
_symmetry_space_group_name_H-M   'P 1'
_cell_length_a   16.99417611
_cell_length_b   16.97309235
_cell_length_c   16.96858890
_cell_angle_alpha   89.98100615
_cell_angle_beta   90.02243612
_cell_angle_gamma   89.96436517
_symmetry_Int_Tables_number   1
_chemical_formula_structural   V85Zn86O256
_chemical_formula_sum   'V85 Zn86 O256'
_cell_volume   4894.48132054
_cell_formula_units_Z   1
loop_
 _symmetry_equiv_pos_site_id
 _symmetry_equiv_pos_as_xyz
  1  'x, y, z'
loop_
 _atom_site_type_symbol
 _atom_site_label
 _atom_site_symmetry_multiplicity
 _atom_site_fract_x
 _atom_site_fract_y
 _atom_site_fract_z
 _atom_site_occupancy
  V  V0  1  0.74777860  0.49621255  0.75197095  1
  V  V1  1  0.24367056  0.48878310  0.74705693  1
  V  V2  1  0.62003961  0.62256157  0.50550224  1
  V  V3  1  0.25777406  -0.00078208  0.75778587  1
  V  V4  1  0.37526021  0.24966311  0.12446106  1
  V  V5  1  0.25723504  0.12118793  0.87552224  1
  V  V6  1  0.37673539  0.37365915  0.00043356  1
  V  V7  1  0.87300565  0.87476320  0.01865628  1
  V  V8  1  0.49929334  0.75331901  0.24866745  1
  V  V9  1  0.37313252  0.62423004  0.25069848  1
  V  V10  1  0.37548787  0.87666015  -0.01294404  1
  V  V11  1  0.00104266  0.87055717  0.36823490  1
  V  V12  1  0.75244940  0.12432287  0.37045092  1
  V  V13  1  0.50488430  0.87474646  0.86933564  1
  V  V14  1  0.00029748  0.50271967  0.00429640  1
  V  V15  1  0.12695197  0.25526131  0.86777217  1
  V  V16  1  0.62488465  0.25214090  0.37221643  1
  V  V17  1  0.12298515  0.87674615  0.74869078  1
  V  V18  1  0.25100881  0.12366609  0.40425839  1
  V  V19  1  0.87146000  0.87681945  0.50179328  1
  V  V20  1  0.13031687  0.24367007  0.38784314  1
  V  V21  1  0.50760545  0.24843818  0.74729474  1
  V  V22  1  0.63035726  0.24719039  0.87413176  1
  V  V23  1  0.25127168  0.75099965  -0.00367604  1
  V  V24  1  0.00102502  0.37711245  0.87213433  1
  V  V25  1  0.00149233  0.25425154  0.25235359  1
  V  V26  1  0.87290730  0.75185649  0.62419085  1
  V  V27  1  0.87856704  0.00372503  0.37432656  1
  V  V28  1  0.50856086  0.49993818  0.00310887  1
  V  V29  1  0.49372240  0.87420812  0.37189795  1
  V  V30  1  0.13736907  0.87631814  0.25138381  1
  V  V31  1  0.75392649  0.38574244  0.12392978  1
  V  V32  1  -0.00993103  0.63808104  0.13986899  1
  V  V33  1  -0.00289398  0.74977922  0.75017731  1
  V  V34  1  0.50410338  0.12461792  0.12490093  1
  V  V35  1  0.62697245  0.74923093  0.87452353  1
  V  V36  1  0.50650599  0.62121561  0.12325548  1
  V  V37  1  0.25067807  0.37639821  0.12546468  1
  V  V38  1  0.49871359  -0.00091325  -0.00508633  1
  V  V39  1  0.61787084  0.74860621  0.37365699  1
  V  V40  1  0.87586947  0.25488799  0.62222683  1
  V  V41  1  0.62148296  0.49648713  0.62952909  1
  V  V42  1  0.50092308  -0.00330934  0.49296646  1
  V  V43  1  0.87399758  0.62341118  0.75124897  1
  V  V44  1  0.00276092  0.12667413  0.62222818  1
  V  V45  1  0.24879827  0.62383382  0.87409106  1
  V  V46  1  0.12616187  0.74915798  0.37797914  1
  V  V47  1  0.36854128  -0.00000329  0.36792751  1
  V  V48  1  0.75678327  0.62453629  0.37153097  1
  V  V49  1  0.36240410  0.12333552  0.24752049  1
  V  V50  1  0.62666291  -0.01629370  0.13214117  1
  V  V51  1  0.49899197  0.49781121  0.50444080  1
  V  V52  1  0.49980628  0.25098791  0.24944769  1
  V  V53  1  0.37270311  0.24232142  0.62131749  1
  V  V54  1  0.37245235  0.75114890  0.12458438  1
  V  V55  1  0.36746094  0.36828379  0.50218058  1
  V  V56  1  0.75407993  0.25563137  0.49912110  1
  V  V57  1  0.62678954  0.12281124  0.49946587  1
  V  V58  1  0.12550705  -0.00123221  0.62781921  1
  V  V59  1  0.87465152  0.13044197  0.24611551  1
  V  V60  1  -0.00690192  0.00139290  -0.00454153  1
  V  V61  1  0.87411972  0.12064465  0.75701656  1
  V  V62  1  0.00310810  0.25375988  0.74815357  1
  V  V63  1  0.74604207  0.37340346  0.62797062  1
  V  V64  1  0.62477934  0.38329404  0.24238402  1
  V  V65  1  0.75636892  0.24778507  0.00684519  1
  V  V66  1  -0.00314425  0.13172436  0.12419470  1
  V  V67  1  0.12310155  0.74989776  0.87501874  1
  V  V68  1  -0.01005865  0.87814977  0.87749005  1
  V  V69  1  0.75360079  0.75566298  0.01381896  1
  V  V70  1  0.50647478  0.37250753  0.86999559  1
  V  V71  1  0.50378897  0.11509817  0.62348647  1
  V  V72  1  0.37643847  0.49822071  0.87496743  1
  V  V73  1  0.25021360  0.49883459  0.25034224  1
  V  V74  1  0.24814274  0.62738124  0.38320514  1
  V  V75  1  0.12420343  0.37342384  0.25427130  1
  V  V76  1  0.13085997  0.00044312  0.12996790  1
  V  V77  1  0.25044412  0.25101231  -0.00177493  1
  V  V78  1  0.74844741  -0.00872320  0.75044788  1
  V  V79  1  0.37421437  0.49725845  0.37655392  1
  V  V80  1  0.38369309  0.62459330  0.74053798  1
  V  V81  1  0.74525877  0.75556132  0.50402950  1
  V  V82  1  0.00419792  0.00478654  0.50019327  1
  V  V83  1  0.12442399  0.12525691  -0.00089996  1
  V  V84  1  0.87789979  0.47703120  0.37666095  1
  Zn  Zn85  1  0.25416059  0.88024823  0.12663806  1
  Zn  Zn86  1  0.62793126  0.12086114  -0.00043507  1
  Zn  Zn87  1  0.38389196  0.11560565  0.75499626  1
  Zn  Zn88  1  0.75072021  0.51430783  0.24015793  1
  Zn  Zn89  1  0.74958750  0.62442623  0.87853656  1
  Zn  Zn90  1  0.75594629  0.11726608  0.87839541  1
  Zn  Zn91  1  0.00071850  0.62001564  0.61899516  1
  Zn  Zn92  1  0.12272472  0.62810282  0.00598537  1
  Zn  Zn93  1  0.88168566  0.37251429  0.00761383  1
  Zn  Zn94  1  0.24090317  0.35920472  0.62853370  1
  Zn  Zn95  1  0.63322500  0.62163020  0.00465781  1
  Zn  Zn96  1  0.87366759  0.49776122  0.87678994  1
  Zn  Zn97  1  0.76939674  -0.03571434  0.22082044  1
  Zn  Zn98  1  0.65719680  -0.03112331  0.59424912  1
  Zn  Zn99  1  0.11866800  0.61886018  0.50065348  1
  Zn  Zn100  1  0.12326943  0.50477993  0.12858878  1
  Zn  Zn101  1  0.11608820  0.48807674  0.62019630  1
  Zn  Zn102  1  0.31408511  0.81941028  0.58112918  1
  Zn  Zn103  1  0.50639935  0.73409305  0.72957654  1
  Zn  Zn104  1  0.62989902  0.86828565  0.73495263  1
  Zn  Zn105  1  0.50028664  0.37377897  0.37443051  1
  Zn  Zn106  1  -0.00672573  0.48898937  0.49863649  1
  Zn  Zn107  1  0.18348515  0.19066528  0.18443015  1
  Zn  Zn108  1  0.18830974  0.17985083  0.68749597  1
  Zn  Zn109  1  0.17977366  0.68845408  0.19246741  1
  Zn  Zn110  1  0.18853887  0.68562379  0.66610095  1
  Zn  Zn111  1  0.68623869  0.19033695  0.18668274  1
  Zn  Zn112  1  0.68988228  0.18051074  0.68737397  1
  Zn  Zn113  1  0.68672823  0.69405644  0.18965804  1
  Zn  Zn114  1  0.68850466  0.68501057  0.68792148  1
  Zn  Zn115  1  0.30951907  0.30831065  0.31699739  1
  Zn  Zn116  1  0.32035200  0.30552332  0.80966066  1
  Zn  Zn117  1  0.31016648  0.81291677  0.42032578  1
  Zn  Zn118  1  0.29366210  0.79287126  0.77134333  1
  Zn  Zn119  1  0.81043845  0.31095534  0.30460187  1
  Zn  Zn120  1  0.81692812  0.31220606  0.81276930  1
  Zn  Zn121  1  0.81872079  0.80702445  0.30261478  1
  Zn  Zn122  1  0.81164787  0.81238244  0.81803086  1
  Zn  Zn123  1  0.18398383  0.43575425  0.43830089  1
  Zn  Zn124  1  0.18471097  0.43890565  0.93908988  1
  Zn  Zn125  1  0.18630816  0.94062248  0.43848951  1
  Zn  Zn126  1  0.18254478  0.93582009  0.93860699  1
  Zn  Zn127  1  0.68914348  0.43789080  0.43530589  1
  Zn  Zn128  1  0.68866472  0.43261977  0.93648859  1
  Zn  Zn129  1  0.70347599  0.91830884  0.39065798  1
  Zn  Zn130  1  0.68831629  0.93714888  0.93726554  1
  Zn  Zn131  1  0.31469840  0.06261280  0.05922034  1
  Zn  Zn132  1  0.32371788  0.01894237  0.57178781  1
  Zn  Zn133  1  0.31543724  0.56242366  0.06210747  1
  Zn  Zn134  1  0.31113936  0.55865753  0.56415251  1
  Zn  Zn135  1  0.81255367  0.06202006  0.06214140  1
  Zn  Zn136  1  0.81679405  0.06670266  0.56427738  1
  Zn  Zn137  1  0.81927838  0.56646568  0.06069677  1
  Zn  Zn138  1  0.81227159  0.56269672  0.55905780  1
  Zn  Zn139  1  0.43794088  0.43785354  0.18786451  1
  Zn  Zn140  1  0.43434672  0.43209061  0.68708496  1
  Zn  Zn141  1  0.43759275  0.93709019  0.18621069  1
  Zn  Zn142  1  0.45201374  0.90029284  0.66545271  1
  Zn  Zn143  1  0.93353470  0.44692016  0.19368487  1
  Zn  Zn144  1  0.93651219  0.43609884  0.68574454  1
  Zn  Zn145  1  0.94709005  0.94450749  0.18862937  1
  Zn  Zn146  1  0.93398018  0.93876350  0.68773145  1
  Zn  Zn147  1  0.06737854  0.06582020  0.31360797  1
  Zn  Zn148  1  0.06223667  0.06661860  0.81364847  1
  Zn  Zn149  1  0.05838062  0.55997283  0.31753156  1
  Zn  Zn150  1  0.06184339  0.56304529  0.81120613  1
  Zn  Zn151  1  0.56290302  0.06363519  0.30851921  1
  Zn  Zn152  1  0.57272523  0.05871391  0.80936987  1
  Zn  Zn153  1  0.56069213  0.56234780  0.31439521  1
  Zn  Zn154  1  0.56577734  0.56297474  0.81596461  1
  Zn  Zn155  1  0.43671928  0.18500092  0.43536017  1
  Zn  Zn156  1  0.44038644  0.18697537  0.93819589  1
  Zn  Zn157  1  0.43265610  0.68340200  0.44820105  1
  Zn  Zn158  1  0.43925208  0.68803447  0.93440736  1
  Zn  Zn159  1  0.94113472  0.19527231  0.43592710  1
  Zn  Zn160  1  0.93886317  0.19165540  0.93690369  1
  Zn  Zn161  1  0.94083574  0.68681181  0.43588001  1
  Zn  Zn162  1  0.93495609  0.68823371  0.94225716  1
  Zn  Zn163  1  0.06609545  0.31552592  0.06220615  1
  Zn  Zn164  1  0.06019099  0.32522072  0.55970200  1
  Zn  Zn165  1  0.06297745  0.81271858  0.06542214  1
  Zn  Zn166  1  0.06237714  0.81260854  0.55944431  1
  Zn  Zn167  1  0.56750110  0.31230370  0.06051916  1
  Zn  Zn168  1  0.56192301  0.31148810  0.56169610  1
  Zn  Zn169  1  0.56253499  0.80980440  0.05842807  1
  Zn  Zn170  1  0.55381091  0.80881131  0.56072435  1
  O  O171  1  0.11694462  0.11991075  0.11906347  1
  O  O172  1  0.10865924  0.11750166  0.63124493  1
  O  O173  1  0.11520600  0.62275672  0.12315425  1
  O  O174  1  0.12157328  0.61388008  0.62131916  1
  O  O175  1  0.61191222  0.12404290  0.12379014  1
  O  O176  1  0.61753281  0.13000885  0.61087212  1
  O  O177  1  0.60979810  0.63107851  0.12402782  1
  O  O178  1  0.63108633  0.61278309  0.61370505  1
  O  O179  1  0.37597149  0.37781661  0.38381820  1
  O  O180  1  0.38577886  0.37891189  0.88014175  1
  O  O181  1  0.38529254  0.88773594  0.36845493  1
  O  O182  1  0.38686770  0.86894493  0.88622396  1
  O  O183  1  0.86290492  0.37770925  0.37912893  1
  O  O184  1  0.88920080  0.37441616  0.87996836  1
  O  O185  1  0.88532731  0.88355403  0.38501406  1
  O  O186  1  0.88737815  0.87168235  0.88453373  1
  O  O187  1  0.26101917  0.01034841  0.37747444  1
  O  O188  1  0.23715357  0.01317355  0.87175182  1
  O  O189  1  0.25564474  0.50480782  0.36821473  1
  O  O190  1  0.25917485  0.50203010  0.87164478  1
  O  O191  1  0.75895235  0.01941922  0.38084842  1
  O  O192  1  0.74534490  0.00246263  0.85977310  1
  O  O193  1  0.75311015  0.51538710  0.37782551  1
  O  O194  1  0.74993039  0.49926634  0.86526137  1
  O  O195  1  0.25126474  0.49406200  0.13147943  1
  O  O196  1  0.25315872  0.49566767  0.64304040  1
  O  O197  1  0.23508502  1.00007717  0.11411062  1
  O  O198  1  0.22861746  1.01289709  0.64181776  1
  O  O199  1  0.74850436  0.48973535  0.12140506  1
  O  O200  1  0.74321715  0.49138624  0.62918909  1
  O  O201  1  0.73338165  1.00426551  0.12174106  1
  O  O202  1  0.75277166  1.00991620  0.63789104  1
  O  O203  1  0.01000041  0.36371109  0.24109195  1
  O  O204  1  -0.00588019  0.36664783  0.76134736  1
  O  O205  1  0.00690412  0.88481926  0.26444812  1
  O  O206  1  0.00116312  0.87211089  0.75917414  1
  O  O207  1  0.50785067  0.36942987  0.24936229  1
  O  O208  1  0.49544278  0.36286603  0.76060591  1
  O  O209  1  0.49528928  0.86281353  0.25672825  1
  O  O210  1  0.50524010  0.88705271  0.76703134  1
  O  O211  1  0.49179726  0.13158322  0.24077544  1
  O  O212  1  0.50426378  0.12619852  0.74052518  1
  O  O213  1  0.49343490  0.62854348  0.24254856  1
  O  O214  1  0.48914112  0.61651428  0.75029486  1
  O  O215  1  0.99468300  0.13165354  0.24242746  1
  O  O216  1  0.99296823  0.13165472  0.74315960  1
  O  O217  1  1.00682966  0.62115450  0.23750718  1
  O  O218  1  0.98882990  0.63157324  0.75024241  1
  O  O219  1  0.37105079  0.25476902  0.00463574  1
  O  O220  1  0.38524866  0.25624948  0.50972169  1
  O  O221  1  0.37235270  0.75651084  0.00575962  1
  O  O222  1  0.37216351  0.75797561  0.49899493  1
  O  O223  1  0.85995119  0.25326144  -0.00461332  1
  O  O224  1  0.86385732  0.23981231  0.51018378  1
  O  O225  1  0.86143446  0.75915249  -0.00125647  1
  O  O226  1  0.86583731  0.75740394  0.50502313  1
  O  O227  1  0.11938898  0.25144597  0.48492289  1
  O  O228  1  0.13138244  0.24520767  0.99146658  1
  O  O229  1  0.12133231  0.74858854  0.48412671  1
  O  O230  1  0.13367485  0.75162149  0.99179647  1
  O  O231  1  0.63244182  0.24211622  0.49302749  1
  O  O232  1  0.63543959  0.24678878  0.99130148  1
  O  O233  1  0.62464083  0.74000439  0.49556404  1
  O  O234  1  0.63833028  0.75132997  0.99326299  1
  O  O235  1  0.49498102  0.24291392  0.12670351  1
  O  O236  1  0.49766203  0.24056751  0.63097863  1
  O  O237  1  0.49282883  0.74332349  0.12825408  1
  O  O238  1  0.47593750  0.78862878  0.63752686  1
  O  O239  1  1.00780833  0.23810235  0.13182211  1
  O  O240  1  0.99314643  0.24395486  0.62826649  1
  O  O241  1  1.00030363  0.73710068  0.11957164  1
  O  O242  1  0.98725630  0.74911328  0.63010487  1
  O  O243  1  0.01794456  0.23865811  0.36273869  1
  O  O244  1  0.00911094  0.25688332  0.87020039  1
  O  O245  1  0.00726155  0.76428967  0.37979083  1
  O  O246  1  0.00251392  0.75759190  0.87162760  1
  O  O247  1  0.50743514  0.24921343  0.36750818  1
  O  O248  1  0.50776633  0.25339054  0.86896840  1
  O  O249  1  0.49906622  0.75320857  0.36812825  1
  O  O250  1  0.51240037  0.75898369  0.87876643  1
  O  O251  1  0.26033874  0.11348923  0.50123034  1
  O  O252  1  0.24561279  0.13118164  0.99366560  1
  O  O253  1  0.24823506  0.61406888  0.48566276  1
  O  O254  1  0.25286352  0.62928828  0.98751839  1
  O  O255  1  0.74420717  0.13467170  0.49327811  1
  O  O256  1  0.75093842  0.13706280  0.99757004  1
  O  O257  1  0.73900379  0.63406524  0.49195077  1
  O  O258  1  0.75215622  0.63941043  0.99945294  1
  O  O259  1  0.25675991  0.37070762  0.00386268  1
  O  O260  1  0.26564647  0.37984517  0.50431762  1
  O  O261  1  0.25906644  0.86950861  -0.00147515  1
  O  O262  1  0.25099891  0.87419813  0.49656439  1
  O  O263  1  0.74839897  0.36665901  0.01103782  1
  O  O264  1  0.74315715  0.36192757  0.50922997  1
  O  O265  1  0.75982532  0.86543143  -0.00361874  1
  O  O266  1  0.75965076  0.86615834  0.48550807  1
  O  O267  1  0.13081142  0.48631988  0.25437733  1
  O  O268  1  0.14335683  0.50038920  0.75696667  1
  O  O269  1  0.11672503  0.99518170  0.23737722  1
  O  O270  1  0.12020540  0.99314936  0.74518994  1
  O  O271  1  0.62930761  0.48717510  0.25717788  1
  O  O272  1  0.63501936  0.50703585  0.73975560  1
  O  O273  1  0.62234987  1.00294086  0.23298283  1
  O  O274  1  0.64142605  0.99580084  0.74246057  1
  O  O275  1  0.38370449  0.01161273  0.25788561  1
  O  O276  1  0.35720521  -0.00151319  0.75630658  1
  O  O277  1  0.37107521  0.50415444  0.25618450  1
  O  O278  1  0.37251566  0.50319189  0.76029083  1
  O  O279  1  0.87474653  0.01266104  0.25479971  1
  O  O280  1  0.86603653  0.01114981  0.74477869  1
  O  O281  1  0.86138305  0.49388405  0.26863851  1
  O  O282  1  0.86475458  0.50765886  0.75024028  1
  O  O283  1  0.13703381  0.35633495  0.36277530  1
  O  O284  1  0.11697613  0.36323552  0.88043555  1
  O  O285  1  0.11909580  0.87225575  0.36908062  1
  O  O286  1  0.10964405  0.87011734  0.87073088  1
  O  O287  1  0.62707206  0.36723609  0.36519560  1
  O  O288  1  0.61343349  0.36365664  0.87881887  1
  O  O289  1  0.60779497  0.85656816  0.38058437  1
  O  O290  1  0.61979751  0.86487435  0.87389945  1
  O  O291  1  0.38440590  0.12833084  0.12897103  1
  O  O292  1  0.39243929  0.12608933  0.62447683  1
  O  O293  1  0.38280604  0.63341903  0.12758017  1
  O  O294  1  0.37072241  0.61878024  0.64196316  1
  O  O295  1  0.88491287  0.11984745  0.13466984  1
  O  O296  1  0.88434840  0.13510840  0.63384881  1
  O  O297  1  0.89066471  0.61924883  0.12835329  1
  O  O298  1  0.87141113  0.63496235  0.63437862  1
  O  O299  1  0.25574057  0.25535181  0.11722592  1
  O  O300  1  0.26893650  0.24207637  0.63601586  1
  O  O301  1  0.26094164  0.74915381  0.11872655  1
  O  O302  1  0.25903686  0.76597788  0.66488269  1
  O  O303  1  0.74556982  0.25531598  0.11029050  1
  O  O304  1  0.75475870  0.25419701  0.61964392  1
  O  O305  1  0.74346580  0.75350151  0.11280720  1
  O  O306  1  0.75803732  0.74454506  0.61237639  1
  O  O307  1  0.24053054  0.23703766  0.37661795  1
  O  O308  1  0.24464644  0.24403884  0.87767089  1
  O  O309  1  0.24086474  0.73556124  0.37018747  1
  O  O310  1  0.24491619  0.73981529  0.87436239  1
  O  O311  1  0.74676577  0.24207277  0.38142074  1
  O  O312  1  0.74180365  0.25640086  0.88399730  1
  O  O313  1  0.73442913  0.74046593  0.38620714  1
  O  O314  1  0.73979651  0.74900662  0.88095918  1
  O  O315  1  0.00209885  0.12130438  0.00509159  1
  O  O316  1  -0.01021103  0.11520539  0.50994283  1
  O  O317  1  0.00023592  0.61564230  0.00442053  1
  O  O318  1  -0.00112405  0.61654186  0.49986901  1
  O  O319  1  0.49858342  0.11670240  0.00911149  1
  O  O320  1  0.51068267  0.11979812  0.50148279  1
  O  O321  1  0.49915359  0.61622928  0.00689360  1
  O  O322  1  0.50784920  0.61002571  0.49878387  1
  O  O323  1  0.49349583  0.38262528  0.49766225  1
  O  O324  1  0.49628506  0.38002713  0.99285682  1
  O  O325  1  0.50373259  0.88922622  0.48556488  1
  O  O326  1  0.49504141  0.88080101  0.99240118  1
  O  O327  1  0.98376632  0.37357382  0.49925712  1
  O  O328  1  1.00086862  0.38152146  0.99366772  1
  O  O329  1  0.99130284  0.88553208  0.49314905  1
  O  O330  1  0.99221242  0.88219308  0.99710719  1
  O  O331  1  0.49311103  0.49697721  0.38606723  1
  O  O332  1  0.49495114  0.49091061  0.88062733  1
  O  O333  1  0.49736282  0.99330654  0.37368412  1
  O  O334  1  0.51291546  0.99386946  0.88886723  1
  O  O335  1  0.98012476  0.49517661  0.37038532  1
  O  O336  1  1.00215922  0.49091159  0.88145270  1
  O  O337  1  0.99831267  0.99895913  0.38427611  1
  O  O338  1  1.00651733  0.99323034  0.88721078  1
  O  O339  1  0.00847819  0.01255772  0.11552102  1
  O  O340  1  0.00293491  0.00787788  0.61976189  1
  O  O341  1  0.00093482  0.50282856  0.11663963  1
  O  O342  1  -0.00244694  0.50223295  0.62218499  1
  O  O343  1  0.50885525  0.00548382  0.11796071  1
  O  O344  1  0.50587329  0.00729854  0.60875543  1
  O  O345  1  0.49143958  0.50893634  0.11404857  1
  O  O346  1  0.51060900  0.48866744  0.61740206  1
  O  O347  1  0.24533469  0.37771610  0.24515065  1
  O  O348  1  0.26094805  0.38621813  0.75364680  1
  O  O349  1  0.23631698  0.88190311  0.24686641  1
  O  O350  1  0.22838316  0.88848110  0.76959278  1
  O  O351  1  0.74104490  0.36917713  0.23348932  1
  O  O352  1  0.75481222  0.38475805  0.74124387  1
  O  O353  1  0.74280037  0.88257621  0.28744876  1
  O  O354  1  0.75651010  0.88799591  0.75061241  1
  O  O355  1  0.26270837  0.12815159  0.24076942  1
  O  O356  1  0.25066702  0.11611176  0.76172099  1
  O  O357  1  0.25514113  0.61754370  0.25633443  1
  O  O358  1  0.26430111  0.60943448  0.76349453  1
  O  O359  1  0.76078394  0.13547493  0.25787351  1
  O  O360  1  0.75936027  0.11992910  0.75400174  1
  O  O361  1  0.73567862  0.62780315  0.26768043  1
  O  O362  1  0.75780055  0.61414075  0.75009681  1
  O  O363  1  0.36509525  0.12281910  0.36572843  1
  O  O364  1  0.36185769  0.13003173  0.87590334  1
  O  O365  1  0.36780482  0.61760340  0.37069529  1
  O  O366  1  0.37056143  0.61094320  0.87471469  1
  O  O367  1  0.87134163  0.12424508  0.36671308  1
  O  O368  1  0.87623951  0.13284692  0.86149007  1
  O  O369  1  0.85569169  0.63624975  0.37506165  1
  O  O370  1  0.87230212  0.62511778  0.86187540  1
  O  O371  1  0.13412319  0.37500932  0.13635147  1
  O  O372  1  0.13057099  0.37348129  0.62892805  1
  O  O373  1  0.12435469  0.88340205  0.13293256  1
  O  O374  1  0.11165829  0.88520123  0.63861807  1
  O  O375  1  0.63459423  0.37167427  0.13257611  1
  O  O376  1  0.63512542  0.38232867  0.62279292  1
  O  O377  1  0.61841591  0.88480155  0.12578217  1
  O  O378  1  0.62985092  0.86665374  0.62146515  1
  O  O379  1  0.11921189  0.25531977  0.25425162  1
  O  O380  1  0.11918862  0.24223888  0.76083492  1
  O  O381  1  0.12685583  0.76307884  0.26365423  1
  O  O382  1  0.11481597  0.76022372  0.75637381  1
  O  O383  1  0.61914926  0.25773378  0.25388382  1
  O  O384  1  0.61565048  0.24286658  0.75685696  1
  O  O385  1  0.60835507  0.74075004  0.26127152  1
  O  O386  1  0.62210901  0.74808025  0.75817174  1
  O  O387  1  0.37948957  0.24292079  0.24385327  1
  O  O388  1  0.39175058  0.24069094  0.74287160  1
  O  O389  1  0.38644113  0.74147181  0.23740095  1
  O  O390  1  0.38476453  0.72516817  0.76805126  1
  O  O391  1  0.88839227  0.24036530  0.25588664  1
  O  O392  1  0.88098599  0.24285559  0.74035609  1
  O  O393  1  0.88558110  0.73263749  0.26623935  1
  O  O394  1  0.87519484  0.74484701  0.74244373  1
  O  O395  1  0.38322812  0.49079136  0.49906957  1
  O  O396  1  0.38356118  0.49344688  0.99101854  1
  O  O397  1  0.39358173  1.01377731  0.47762811  1
  O  O398  1  0.38787503  0.98890971  1.00794134  1
  O  O399  1  0.86807872  0.50500423  0.47976780  1
  O  O400  1  0.88662467  0.49589692  0.99534464  1
  O  O401  1  0.88245998  0.99498827  0.49660534  1
  O  O402  1  0.88605858  0.99356428  1.00445596  1
  O  O403  1  0.11304676  0.00489814  0.00790753  1
  O  O404  1  0.11106960  -0.00535669  0.51205862  1
  O  O405  1  0.11440976  0.50280775  0.00311789  1
  O  O406  1  0.11555970  0.49890128  0.49811242  1
  O  O407  1  0.61719053  0.00099514  0.01204681  1
  O  O408  1  0.61993606  0.01307015  0.49062761  1
  O  O409  1  0.61175379  0.50053239  -0.00667517  1
  O  O410  1  0.61896930  0.50310275  0.50737886  1
  O  O411  1  0.37081507  0.36870352  0.12029406  1
  O  O412  1  0.37496146  0.36030107  0.61881470  1
  O  O413  1  0.37590601  0.86501729  0.11650466  1
  O  O414  1  0.35579583  0.91963645  0.61834111  1
  O  O415  1  0.85772444  0.37680652  0.12751091  1
  O  O416  1  0.86221867  0.36166353  0.62968567  1
  O  O417  1  0.87739156  0.88254252  0.11912060  1
  O  O418  1  0.87941014  0.86634083  0.61191225  1
  O  O419  1  0.13844985  0.13283008  0.37419634  1
  O  O420  1  0.13103500  0.13605794  0.88098087  1
  O  O421  1  0.13222737  0.63253339  0.37221593  1
  O  O422  1  0.13503042  0.63055255  0.87507813  1
  O  O423  1  0.63353121  0.13133792  0.37789644  1
  O  O424  1  0.62898788  0.13642139  0.87846498  1
  O  O425  1  0.62462066  0.63095280  0.38733613  1
  O  O426  1  0.62642696  0.63523600  0.88178470  1
