# generated using pymatgen
data_V85Zn86O256
_symmetry_space_group_name_H-M   'P 1'
_cell_length_a   16.96190994
_cell_length_b   16.95810479
_cell_length_c   16.95896491
_cell_angle_alpha   90.04883969
_cell_angle_beta   90.08624180
_cell_angle_gamma   89.99372523
_symmetry_Int_Tables_number   1
_chemical_formula_structural   V85Zn86O256
_chemical_formula_sum   'V85 Zn86 O256'
_cell_volume   4878.10065084
_cell_formula_units_Z   1
loop_
 _symmetry_equiv_pos_site_id
 _symmetry_equiv_pos_as_xyz
  1  'x, y, z'
loop_
 _atom_site_type_symbol
 _atom_site_label
 _atom_site_symmetry_multiplicity
 _atom_site_fract_x
 _atom_site_fract_y
 _atom_site_fract_z
 _atom_site_occupancy
  V  V0  1  0.49909555  0.48714243  -0.00303323  1
  V  V1  1  0.37710907  0.62633524  0.75101536  1
  V  V2  1  0.38160594  0.48959757  0.87728670  1
  V  V3  1  0.12713191  0.50727077  0.62129979  1
  V  V4  1  0.36524942  0.11978226  0.26275240  1
  V  V5  1  0.48866110  0.87889741  0.37256532  1
  V  V6  1  0.87096685  0.12491038  0.25373969  1
  V  V7  1  0.49971521  0.62510269  0.12269879  1
  V  V8  1  0.36837800  0.75413617  0.62545946  1
  V  V9  1  0.37536244  0.25074817  0.62165964  1
  V  V10  1  0.50027957  0.25148406  0.75048256  1
  V  V11  1  0.13315303  0.00277732  0.13084427  1
  V  V12  1  0.49066883  0.00105957  0.49517297  1
  V  V13  1  0.75186491  0.12321147  0.87384474  1
  V  V14  1  0.36497022  0.87281550  -0.00117217  1
  V  V15  1  0.62279221  0.11767362  -0.00104120  1
  V  V16  1  0.62696470  0.11375269  0.49917610  1
  V  V17  1  0.25278350  0.50130300  0.75149189  1
  V  V18  1  0.87731805  0.62329265  0.75615466  1
  V  V19  1  0.75016434  0.24262879  0.49677319  1
  V  V20  1  0.75186953  0.50347658  0.25107861  1
  V  V21  1  0.25305441  0.37710336  0.62286222  1
  V  V22  1  0.74522283  -0.00018819  0.74601680  1
  V  V23  1  0.50179266  0.75050759  0.75038256  1
  V  V24  1  0.87117571  0.74856234  0.62771971  1
  V  V25  1  0.62669479  0.74902250  0.87432424  1
  V  V26  1  0.62195316  0.87298559  0.25212567  1
  V  V27  1  0.26059504  0.36701385  0.11830726  1
  V  V28  1  0.12289128  0.74547757  0.38157362  1
  V  V29  1  0.62452561  0.50081690  0.12470707  1
  V  V30  1  0.25164908  0.25094663  0.49524191  1
  V  V31  1  0.87250774  0.87070728  0.50173488  1
  V  V32  1  0.36428866  0.87563119  0.50287844  1
  V  V33  1  0.00343240  0.10992915  0.62425115  1
  V  V34  1  0.25248160  0.49707606  0.25425165  1
  V  V35  1  0.50561015  0.62569021  0.60832128  1
  V  V36  1  0.49468863  0.38270054  0.38126143  1
  V  V37  1  0.50004525  0.75037930  0.25051709  1
  V  V38  1  0.75373541  0.50028013  0.75669382  1
  V  V39  1  0.13153869  0.88127687  0.25262315  1
  V  V40  1  0.50442815  0.11751797  0.62409668  1
  V  V41  1  0.74916850  0.37495332  0.62325471  1
  V  V42  1  0.74350123  0.87514484  0.62734517  1
  V  V43  1  0.00293806  0.87097101  0.87269106  1
  V  V44  1  0.62592477  0.24256139  0.37438192  1
  V  V45  1  0.00380032  0.50215389  0.49886081  1
  V  V46  1  0.87640148  0.75125763  0.12573808  1
  V  V47  1  0.87721596  0.12483510  0.75010676  1
  V  V48  1  0.87515618  0.37933155  -0.00792735  1
  V  V49  1  0.11877150  0.25538289  0.37638320  1
  V  V50  1  -0.00127540  0.75065606  0.25091745  1
  V  V51  1  0.74781821  0.63096316  0.39103032  1
  V  V52  1  0.61950326  -0.00030944  0.12314639  1
  V  V53  1  0.87334156  0.00175001  0.38135278  1
  V  V54  1  0.49276046  0.13241784  0.12461862  1
  V  V55  1  0.00275025  0.62408392  0.12475664  1
  V  V56  1  0.37357778  0.62176466  0.25615021  1
  V  V57  1  -0.00176461  0.50229200  -0.00869309  1
  V  V58  1  0.36544891  0.74937656  0.12007606  1
  V  V59  1  0.62119575  0.50409944  0.61380006  1
  V  V60  1  -0.00208093  0.87990901  0.37923635  1
  V  V61  1  0.62460566  0.24844836  0.87842748  1
  V  V62  1  0.62122005  0.37494640  0.75321691  1
  V  V63  1  0.12403328  0.87177919  0.73729375  1
  V  V64  1  0.00221940  0.25022126  0.74829998  1
  V  V65  1  0.24606690  0.62538259  0.38361367  1
  V  V66  1  0.12609804  0.37612367  0.75273977  1
  V  V67  1  -0.00098284  0.12682486  0.12652316  1
  V  V68  1  0.13139042  0.75367872  0.88370885  1
  V  V69  1  0.62519088  0.37171744  0.25028822  1
  V  V70  1  0.49855381  0.87955427  0.88219833  1
  V  V71  1  0.00057650  0.62902181  0.62834348  1
  V  V72  1  0.36718197  0.12257495  0.75051216  1
  V  V73  1  0.88068152  0.37352011  0.49761819  1
  V  V74  1  0.74959912  0.75042069  0.00036920  1
  V  V75  1  0.88000785  0.49718558  0.37529437  1
  V  V76  1  0.75162154  0.37300744  0.12341514  1
  V  V77  1  0.11996496  0.37367545  0.25163260  1
  V  V78  1  0.74748327  0.00194474  0.25919640  1
  V  V79  1  0.24525109  -0.00611609  0.73297798  1
  V  V80  1  0.36797550  -0.00170168  0.87574100  1
  V  V81  1  0.12040124  0.11175941  0.50369232  1
  V  V82  1  0.25358357  0.63001924  0.88466685  1
  V  V83  1  0.87799950  0.87792031  0.00013237  1
  V  V84  1  0.13205209  0.13027457  -0.00429258  1
  Zn  Zn85  1  0.75006149  0.87586264  0.12705808  1
  Zn  Zn86  1  0.13006559  0.62777466  0.00388013  1
  Zn  Zn87  1  0.87766232  0.24833278  0.62258243  1
  Zn  Zn88  1  0.87578535  0.24971221  0.12479463  1
  Zn  Zn89  1  0.49064211  0.25269915  0.24664310  1
  Zn  Zn90  1  0.75644429  0.62056652  0.87808174  1
  Zn  Zn91  1  0.87779926  0.00075646  0.87579664  1
  Zn  Zn92  1  0.23931746  0.74971139  0.51090032  1
  Zn  Zn93  1  0.13160770  0.24418632  0.87255223  1
  Zn  Zn94  1  0.75360281  0.24881110  -0.00101204  1
  Zn  Zn95  1  0.24320453  0.10772946  0.37109580  1
  Zn  Zn96  1  0.61197556  0.72934036  0.40646046  1
  Zn  Zn97  1  0.24820224  0.87494341  0.12515091  1
  Zn  Zn98  1  0.62641473  0.62426762  -0.00123456  1
  Zn  Zn99  1  0.27044646  0.24666424  -0.00920422  1
  Zn  Zn100  1  0.38183198  0.39736794  0.50012095  1
  Zn  Zn101  1  0.12803788  0.49611622  0.12202332  1
  Zn  Zn102  1  0.00293200  0.00232865  -0.00064386  1
  Zn  Zn103  1  0.62260093  0.88118080  0.74909604  1
  Zn  Zn104  1  -0.00577025  0.25623019  0.25540990  1
  Zn  Zn105  1  -0.00412853  0.37887764  0.87143766  1
  Zn  Zn106  1  0.87549437  0.62795992  0.25286175  1
  Zn  Zn107  1  0.19031919  0.19096778  0.18648771  1
  Zn  Zn108  1  0.18764049  0.18758705  0.68296469  1
  Zn  Zn109  1  0.18505855  0.68865940  0.19459375  1
  Zn  Zn110  1  0.18582454  0.68781791  0.69732986  1
  Zn  Zn111  1  0.68702930  0.18641011  0.18494217  1
  Zn  Zn112  1  0.68778889  0.18576985  0.68475900  1
  Zn  Zn113  1  0.68768818  0.68914038  0.19011805  1
  Zn  Zn114  1  0.68928569  0.68712419  0.68498067  1
  Zn  Zn115  1  0.31320116  0.30289414  0.30655674  1
  Zn  Zn116  1  0.31159853  0.30908926  0.81453541  1
  Zn  Zn117  1  0.31041441  0.80888001  0.31247494  1
  Zn  Zn118  1  0.30924603  0.81420478  0.80983878  1
  Zn  Zn119  1  0.81146374  0.31133980  0.31417841  1
  Zn  Zn120  1  0.81196799  0.30994529  0.81100825  1
  Zn  Zn121  1  0.80960895  0.81343531  0.31289932  1
  Zn  Zn122  1  0.81622409  0.80999824  0.81045162  1
  Zn  Zn123  1  0.19255856  0.43710291  0.43674709  1
  Zn  Zn124  1  0.18867011  0.44266501  0.93840068  1
  Zn  Zn125  1  0.18794779  0.93602270  0.43565033  1
  Zn  Zn126  1  0.18720625  0.94530138  0.93593146  1
  Zn  Zn127  1  0.68930380  0.43526818  0.43355240  1
  Zn  Zn128  1  0.68248555  0.43560810  0.93927778  1
  Zn  Zn129  1  0.66939219  0.90642582  0.45514310  1
  Zn  Zn130  1  0.69019933  0.93687354  0.93446022  1
  Zn  Zn131  1  0.31378575  0.05903206  0.05922995  1
  Zn  Zn132  1  0.30966174  0.06533528  0.55828400  1
  Zn  Zn133  1  0.31626735  0.55436451  0.06430012  1
  Zn  Zn134  1  0.31855183  0.56534487  0.56282112  1
  Zn  Zn135  1  0.80746572  0.06101642  0.06656284  1
  Zn  Zn136  1  0.81640671  0.06007073  0.56528906  1
  Zn  Zn137  1  0.81636799  0.56323784  0.06252496  1
  Zn  Zn138  1  0.81342433  0.55931494  0.56727933  1
  Zn  Zn139  1  0.43892895  0.44061642  0.19269398  1
  Zn  Zn140  1  0.43898704  0.44146874  0.68401695  1
  Zn  Zn141  1  0.43431890  0.94148199  0.18356639  1
  Zn  Zn142  1  0.43708113  0.93751446  0.68703153  1
  Zn  Zn143  1  0.93767092  0.43997726  0.18302759  1
  Zn  Zn144  1  0.93803208  0.43945402  0.68557051  1
  Zn  Zn145  1  0.94135346  0.94056903  0.18904242  1
  Zn  Zn146  1  0.93498125  0.93550417  0.69189885  1
  Zn  Zn147  1  0.06052156  0.06528471  0.31501367  1
  Zn  Zn148  1  0.06272785  0.05691909  0.81208852  1
  Zn  Zn149  1  0.06497205  0.56034255  0.30999523  1
  Zn  Zn150  1  0.06574745  0.56641529  0.81232002  1
  Zn  Zn151  1  0.55733826  0.06099139  0.31087628  1
  Zn  Zn152  1  0.55961327  0.06207967  0.81162761  1
  Zn  Zn153  1  0.56405242  0.56241758  0.31507733  1
  Zn  Zn154  1  0.56446039  0.56184623  0.81000282  1
  Zn  Zn155  1  0.44024351  0.19250479  0.43330760  1
  Zn  Zn156  1  0.44208066  0.17892596  0.93258575  1
  Zn  Zn157  1  0.43104942  0.69186196  0.43673561  1
  Zn  Zn158  1  0.43704644  0.68676802  0.93868654  1
  Zn  Zn159  1  0.94011980  0.18525220  0.43772170  1
  Zn  Zn160  1  0.94070928  0.19236054  0.93808750  1
  Zn  Zn161  1  0.93510391  0.68616118  0.44065062  1
  Zn  Zn162  1  0.94225879  0.69170971  0.93692115  1
  Zn  Zn163  1  0.06279110  0.31426781  0.06671434  1
  Zn  Zn164  1  0.06543836  0.31202687  0.56514958  1
  Zn  Zn165  1  0.06396941  0.81424293  0.06358512  1
  Zn  Zn166  1  0.05391701  0.81298392  0.56045750  1
  Zn  Zn167  1  0.43852762  0.30997817  0.06285379  1
  Zn  Zn168  1  0.56379446  0.30968199  0.56219588  1
  Zn  Zn169  1  0.55828874  0.81296003  0.06266560  1
  Zn  Zn170  1  0.55746220  0.81324272  0.56414874  1
  O  O171  1  0.11768442  0.12060807  0.12248792  1
  O  O172  1  0.11803275  0.12875998  0.61231067  1
  O  O173  1  0.11384927  0.62729681  0.12545368  1
  O  O174  1  0.11763639  0.61557276  0.63434155  1
  O  O175  1  0.62104801  0.11877498  0.11751201  1
  O  O176  1  0.61420013  0.13064792  0.61275137  1
  O  O177  1  0.61446490  0.61981490  0.12898578  1
  O  O178  1  0.61737006  0.61699581  0.63051099  1
  O  O179  1  0.39362168  0.36552920  0.36825807  1
  O  O180  1  0.37548522  0.39121629  0.86530536  1
  O  O181  1  0.38327674  0.86543093  0.38366545  1
  O  O182  1  0.37952458  0.87734413  0.88011846  1
  O  O183  1  0.86796683  0.38559089  0.38607328  1
  O  O184  1  0.87459031  0.37157794  0.88672030  1
  O  O185  1  0.87863530  0.87939872  0.38211098  1
  O  O186  1  0.88523294  0.87116044  0.88278539  1
  O  O187  1  0.25815011  -0.00080466  0.38256638  1
  O  O188  1  0.26299375  -0.00446466  0.86150481  1
  O  O189  1  0.24158688  0.51050982  0.36246700  1
  O  O190  1  0.25994433  0.50854598  0.87004657  1
  O  O191  1  0.75829774  -0.00758933  0.36346223  1
  O  O192  1  0.75457028  0.00560582  0.86604331  1
  O  O193  1  0.75786214  0.50719961  0.36916347  1
  O  O194  1  0.74072136  0.50111388  0.86089660  1
  O  O195  1  0.25026536  0.49234543  0.13748902  1
  O  O196  1  0.24369397  0.49963987  0.63064151  1
  O  O197  1  0.23683896  0.99831088  0.12365590  1
  O  O198  1  0.25234458  0.99766452  0.63420300  1
  O  O199  1  0.74756349  0.49511878  0.13290016  1
  O  O200  1  0.74278629  0.49142293  0.63350717  1
  O  O201  1  0.73889126  0.99615289  0.13723496  1
  O  O202  1  0.75910417  0.98938397  0.63626197  1
  O  O203  1  0.01438927  0.37539144  0.24115648  1
  O  O204  1  0.00734674  0.36938123  0.74716707  1
  O  O205  1  0.00572221  0.86943131  0.25993563  1
  O  O206  1  0.01588688  0.88421325  0.75941749  1
  O  O207  1  0.51247943  0.37234702  0.25429772  1
  O  O208  1  0.51069026  0.36338743  0.73918524  1
  O  O209  1  0.50003456  0.87198898  0.25466627  1
  O  O210  1  0.49996678  0.86395691  0.75654743  1
  O  O211  1  0.49775990  0.12766883  0.23643001  1
  O  O212  1  0.49406278  0.12950844  0.73963842  1
  O  O213  1  0.49285793  0.62719780  0.24409215  1
  O  O214  1  0.49672379  0.63850452  0.74804483  1
  O  O215  1  0.98863934  0.12497917  0.24303291  1
  O  O216  1  0.99974474  0.13067330  0.74394803  1
  O  O217  1  0.99843960  0.63051108  0.24191980  1
  O  O218  1  0.99025183  0.61394872  0.73799369  1
  O  O219  1  0.38184513  0.24843222  -0.00869352  1
  O  O220  1  0.36403107  0.24447253  0.50465773  1
  O  O221  1  0.37949886  0.75778799  0.01012387  1
  O  O222  1  0.37268114  0.75890334  0.51054758  1
  O  O223  1  0.87345978  0.26233593  0.00434271  1
  O  O224  1  0.86803416  0.25618155  0.49817649  1
  O  O225  1  0.86872545  0.75837135  0.00435534  1
  O  O226  1  0.87765445  0.76003905  0.51098021  1
  O  O227  1  0.13372712  0.25208241  0.49343486  1
  O  O228  1  0.11936773  0.23562203  1.00101724  1
  O  O229  1  0.12299143  0.75737456  0.48654250  1
  O  O230  1  0.12554633  0.74940385  0.98913749  1
  O  O231  1  0.63167568  0.24014631  0.49334613  1
  O  O232  1  0.62788117  0.23946504  0.98270804  1
  O  O233  1  0.63492524  0.79791458  0.48735765  1
  O  O234  1  0.63297377  0.75111280  0.99405472  1
  O  O235  1  0.50488238  0.23582049  0.12565212  1
  O  O236  1  0.49634758  0.24020622  0.63181147  1
  O  O237  1  0.49162213  0.74169736  0.13037588  1
  O  O238  1  0.49536092  0.74536095  0.63398310  1
  O  O239  1  0.99819841  0.23858464  0.13176571  1
  O  O240  1  1.00055136  0.24426114  0.63635922  1
  O  O241  1  0.99648617  0.74360562  0.12974887  1
  O  O242  1  0.99083245  0.73600962  0.61981140  1
  O  O243  1  0.01319404  0.24995075  0.37490175  1
  O  O244  1  0.00812964  0.25280913  0.85971447  1
  O  O245  1  0.00307143  0.75615190  0.37196612  1
  O  O246  1  0.01253355  0.76247183  0.87670387  1
  O  O247  1  0.51445090  0.25805792  0.36970573  1
  O  O248  1  0.51094293  0.23939530  0.85693895  1
  O  O249  1  0.50187399  0.75852543  0.36806579  1
  O  O250  1  0.50626459  0.75707559  0.86906757  1
  O  O251  1  0.23481771  0.13499599  0.50375931  1
  O  O252  1  0.23492727  0.12916324  1.01013781  1
  O  O253  1  0.25177961  0.63059445  0.48700153  1
  O  O254  1  0.25071246  0.61708967  0.98844125  1
  O  O255  1  0.74178918  0.13337478  0.50971042  1
  O  O256  1  0.74135996  0.12729169  0.99469539  1
  O  O257  1  0.75535793  0.62135931  0.48996722  1
  O  O258  1  0.75101942  0.63678710  0.99815057  1
  O  O259  1  0.24768707  0.38239566  0.01774422  1
  O  O260  1  0.25430496  0.36550192  0.50449664  1
  O  O261  1  0.26112017  0.87688064  0.00026297  1
  O  O262  1  0.26065756  0.86959331  0.49919058  1
  O  O263  1  0.75608465  0.37704648  0.00816499  1
  O  O264  1  0.75725871  0.36698473  0.50690459  1
  O  O265  1  0.75860415  0.86540386  0.00106843  1
  O  O266  1  0.76646874  0.88588420  0.51405714  1
  O  O267  1  0.13374970  0.49098295  0.24703970  1
  O  O268  1  0.13070298  0.49480941  0.74127668  1
  O  O269  1  0.11716440  0.99176282  0.24415627  1
  O  O270  1  0.13865255  0.99087277  0.75223392  1
  O  O271  1  0.63435317  0.49172470  0.24727159  1
  O  O272  1  0.63127178  0.49075240  0.74205572  1
  O  O273  1  0.63005202  0.99525877  0.24389430  1
  O  O274  1  0.63957350  1.00033395  0.75424607  1
  O  O275  1  0.38020533  0.02068366  0.24151703  1
  O  O276  1  0.36345968  0.00249268  0.75077975  1
  O  O277  1  0.36726168  0.51266270  0.24788783  1
  O  O278  1  0.37355890  0.50771445  0.75584988  1
  O  O279  1  0.86676049  0.00419465  0.25690448  1
  O  O280  1  0.86667951  0.00752830  0.75411734  1
  O  O281  1  0.86836858  0.49788706  0.25907752  1
  O  O282  1  0.86405245  0.50774346  0.74261390  1
  O  O283  1  0.13390028  0.36700965  0.36356477  1
  O  O284  1  0.12388680  0.38184795  0.85879824  1
  O  O285  1  0.11453140  0.86941414  0.37089180  1
  O  O286  1  0.12114476  0.87090234  0.87332160  1
  O  O287  1  0.62064198  0.36668823  0.36730369  1
  O  O288  1  0.63066738  0.36430846  0.86111945  1
  O  O289  1  0.60891705  0.88348663  0.35721879  1
  O  O290  1  0.61640195  0.86669033  0.87480220  1
  O  O291  1  0.39244740  0.11951741  0.11806070  1
  O  O292  1  0.38348841  0.12980479  0.63183937  1
  O  O293  1  0.38176609  0.63034624  0.13267410  1
  O  O294  1  0.38733542  0.63460599  0.63143426  1
  O  O295  1  0.88119097  0.12323611  0.13424556  1
  O  O296  1  0.88552931  0.12829139  0.63044563  1
  O  O297  1  0.88578731  0.63236811  0.12767189  1
  O  O298  1  0.88004665  0.63011879  0.63204187  1
  O  O299  1  0.25060356  0.26440011  0.11959045  1
  O  O300  1  0.25534202  0.25656110  0.61673778  1
  O  O301  1  0.26201660  0.74975314  0.13133118  1
  O  O302  1  0.26420970  0.74005730  0.62848176  1
  O  O303  1  0.75003640  0.26281375  0.12336931  1
  O  O304  1  0.74971928  0.25961153  0.61569245  1
  O  O305  1  0.75515860  0.75211755  0.11671352  1
  O  O306  1  0.76108438  0.76013564  0.63014551  1
  O  O307  1  0.24138448  0.24487256  0.38432021  1
  O  O308  1  0.24217290  0.25664220  0.88142749  1
  O  O309  1  0.23800976  0.74190130  0.37407859  1
  O  O310  1  0.24591291  0.74067605  0.87151042  1
  O  O311  1  0.73999272  0.25560239  0.38789809  1
  O  O312  1  0.73997214  0.24106634  0.87114168  1
  O  O313  1  0.75538890  0.73119632  0.37158556  1
  O  O314  1  0.74227683  0.75192831  0.88277735  1
  O  O315  1  0.00541724  0.12414419  0.01132755  1
  O  O316  1  0.01241800  0.13104826  0.50957000  1
  O  O317  1  -0.00049487  0.61991584  0.00810264  1
  O  O318  1  -0.00716539  0.61098489  0.51194498  1
  O  O319  1  0.51504621  0.12458078  0.00891532  1
  O  O320  1  0.50498258  0.11901095  0.50476204  1
  O  O321  1  0.50220897  0.62295110  0.01348570  1
  O  O322  1  0.50493178  0.64045277  0.50935229  1
  O  O323  1  0.49887039  0.36618366  0.48610642  1
  O  O324  1  0.50431407  0.38906726  1.00860454  1
  O  O325  1  0.48856971  0.88466209  0.49222969  1
  O  O326  1  0.48958149  0.87149384  0.98815871  1
  O  O327  1  0.98867056  0.38467621  0.51019979  1
  O  O328  1  0.99324312  0.38369193  1.00003943  1
  O  O329  1  0.98771599  0.87476821  0.48901861  1
  O  O330  1  0.99197787  0.87615127  0.99383558  1
  O  O331  1  0.50762007  0.48167628  0.37095941  1
  O  O332  1  0.49456939  0.50897582  0.88462127  1
  O  O333  1  0.49732662  0.99118883  0.38330633  1
  O  O334  1  0.48730861  0.98580032  0.86081925  1
  O  O335  1  0.99055535  0.50720570  0.38426263  1
  O  O336  1  1.00366859  0.50168125  0.88647221  1
  O  O337  1  0.98797766  0.98757239  0.36729661  1
  O  O338  1  0.99806981  0.98688254  0.87961775  1
  O  O339  1  0.00941981  0.01048507  0.12412443  1
  O  O340  1  -0.00272693  0.01085481  0.62995171  1
  O  O341  1  0.00154234  0.51114722  0.11721095  1
  O  O342  1  0.00802632  0.50683469  0.61819093  1
  O  O343  1  0.51455827  0.01040708  0.12818019  1
  O  O344  1  0.49716055  0.01020858  0.61640386  1
  O  O345  1  0.50330365  0.50811430  0.11948177  1
  O  O346  1  0.50886716  0.51404691  0.62962518  1
  O  O347  1  0.24735374  0.38072946  0.24312030  1
  O  O348  1  0.24399525  0.38133612  0.74239197  1
  O  O349  1  0.23453937  0.86965296  0.24992827  1
  O  O350  1  0.23993204  0.88463901  0.74772445  1
  O  O351  1  0.74607833  0.38424580  0.24656622  1
  O  O352  1  0.74408850  0.37904546  0.74097432  1
  O  O353  1  0.73863041  0.88105261  0.24913503  1
  O  O354  1  0.75284493  0.88289207  0.74446540  1
  O  O355  1  0.26034957  0.12797127  0.25224231  1
  O  O356  1  0.25934564  0.11355335  0.74088895  1
  O  O357  1  0.25572114  0.61745503  0.25561952  1
  O  O358  1  0.25753096  0.61934286  0.76002782  1
  O  O359  1  0.75969510  0.11537209  0.24486999  1
  O  O360  1  0.75566555  0.11933353  0.75153486  1
  O  O361  1  0.75254486  0.61272535  0.25296798  1
  O  O362  1  0.75856961  0.61647727  0.75001548  1
  O  O363  1  0.37631130  0.12480471  0.36561697  1
  O  O364  1  0.38530187  0.11121025  0.85791603  1
  O  O365  1  0.36331148  0.63690551  0.36188174  1
  O  O366  1  0.36963474  0.62246265  0.86939666  1
  O  O367  1  0.88256240  0.11412404  0.36577211  1
  O  O368  1  0.87008655  0.12628716  0.86921462  1
  O  O369  1  0.86583564  0.61404450  0.37432206  1
  O  O370  1  0.87600068  0.63465213  0.86093080  1
  O  O371  1  0.13824218  0.37399930  0.13582520  1
  O  O372  1  0.13120367  0.38591305  0.63356047  1
  O  O373  1  0.12384497  0.88359320  0.13448154  1
  O  O374  1  0.11722170  0.86734514  0.63859792  1
  O  O375  1  0.63809566  0.38365295  0.13814120  1
  O  O376  1  0.63204690  0.37900228  0.63235403  1
  O  O377  1  0.62016505  0.88236094  0.13438103  1
  O  O378  1  0.63940134  0.87179362  0.63100600  1
  O  O379  1  0.12577107  0.25645306  0.25990877  1
  O  O380  1  0.12053003  0.25981827  0.74627633  1
  O  O381  1  0.11693078  0.76006983  0.25997933  1
  O  O382  1  0.13190928  0.76704091  0.76223110  1
  O  O383  1  0.63220064  0.25814797  0.25858483  1
  O  O384  1  0.61966028  0.25472106  0.75294793  1
  O  O385  1  0.61720117  0.76120789  0.24676829  1
  O  O386  1  0.61822978  0.75233057  0.75819186  1
  O  O387  1  0.37778102  0.23005691  0.24618953  1
  O  O388  1  0.38153449  0.24173213  0.74455370  1
  O  O389  1  0.38054270  0.74256382  0.24056492  1
  O  O390  1  0.38317851  0.74828831  0.74449327  1
  O  O391  1  0.87393471  0.23963701  0.25122601  1
  O  O392  1  0.88505386  0.24484401  0.74723910  1
  O  O393  1  0.88106915  0.75151026  0.24382958  1
  O  O394  1  0.87460202  0.73937841  0.73821765  1
  O  O395  1  0.36892958  0.50521695  0.48833080  1
  O  O396  1  0.38717866  0.50529905  0.98957667  1
  O  O397  1  0.38359421  0.99252866  0.50720709  1
  O  O398  1  0.37177260  0.98984293  0.98647118  1
  O  O399  1  0.88172734  0.49189200  0.49518117  1
  O  O400  1  0.88449801  0.49091306  1.00491653  1
  O  O401  1  0.87286696  0.99434578  0.48752394  1
  O  O402  1  0.87230415  0.98697445  1.00030452  1
  O  O403  1  0.12419584  0.01160886  0.01069197  1
  O  O404  1  0.12398123  0.01379234  0.49835527  1
  O  O405  1  0.11424219  0.50503959  0.00391521  1
  O  O406  1  0.11681873  0.49129695  0.51064538  1
  O  O407  1  0.63431404  0.00698562  0.00908992  1
  O  O408  1  0.61360366  0.00787248  0.49353329  1
  O  O409  1  0.61810597  0.50491336  0.00588868  1
  O  O410  1  0.63237762  0.49134551  0.51529516  1
  O  O411  1  0.36683422  0.37546778  0.13045322  1
  O  O412  1  0.37111121  0.36880459  0.62324417  1
  O  O413  1  0.37392188  0.86813485  0.11666392  1
  O  O414  1  0.38276991  0.86397326  0.61637315  1
  O  O415  1  0.86457717  0.37546587  0.11905944  1
  O  O416  1  0.86449872  0.37514619  0.61597221  1
  O  O417  1  0.87707686  0.87002555  0.11662754  1
  O  O418  1  0.87407851  0.86635776  0.62123327  1
  O  O419  1  0.12272360  0.13290304  0.38851462  1
  O  O420  1  0.11945502  0.11990713  0.89299367  1
  O  O421  1  0.13167966  0.63556899  0.36774872  1
  O  O422  1  0.13546916  0.63617441  0.87310683  1
  O  O423  1  0.61840681  0.13273035  0.38415375  1
  O  O424  1  0.62923654  0.12704597  0.87991026  1
  O  O425  1  0.64059730  0.62383726  0.37357664  1
  O  O426  1  0.62724826  0.63953785  0.87599283  1
