# generated using pymatgen
data_V85Zn86O256
_symmetry_space_group_name_H-M   'P 1'
_cell_length_a   16.94514040
_cell_length_b   16.95195712
_cell_length_c   16.94173917
_cell_angle_alpha   90.12483395
_cell_angle_beta   90.03445933
_cell_angle_gamma   89.93177107
_symmetry_Int_Tables_number   1
_chemical_formula_structural   V85Zn86O256
_chemical_formula_sum   'V85 Zn86 O256'
_cell_volume   4866.55450021
_cell_formula_units_Z   1
loop_
 _symmetry_equiv_pos_site_id
 _symmetry_equiv_pos_as_xyz
  1  'x, y, z'
loop_
 _atom_site_type_symbol
 _atom_site_label
 _atom_site_symmetry_multiplicity
 _atom_site_fract_x
 _atom_site_fract_y
 _atom_site_fract_z
 _atom_site_occupancy
  V  V0  1  -0.00134484  0.50016394  0.50142248  1
  V  V1  1  0.13886617  0.62828013  0.49700084  1
  V  V2  1  0.87286055  0.62678771  0.24803102  1
  V  V3  1  0.86954359  0.75326188  0.62547839  1
  V  V4  1  0.00001610  0.00187100  0.50187423  1
  V  V5  1  0.62740035  0.00618524  0.11883877  1
  V  V6  1  0.50096460  -0.00446595  -0.00345513  1
  V  V7  1  0.87440006  0.49406653  0.88327949  1
  V  V8  1  0.49778508  0.37956257  0.37576250  1
  V  V9  1  0.74493817  0.12046837  0.88099177  1
  V  V10  1  0.24499692  -0.00235073  0.23558544  1
  V  V11  1  0.51228017  0.62892183  0.62215101  1
  V  V12  1  0.00319439  0.87557017  0.88112410  1
  V  V13  1  0.37234653  0.87073223  0.01523083  1
  V  V14  1  0.24972223  0.74962580  0.00559147  1
  V  V15  1  0.13257714  0.49477738  0.62445848  1
  V  V16  1  0.12590303  -0.00047129  0.62317486  1
  V  V17  1  0.37002637  0.86947021  0.49918557  1
  V  V18  1  0.88226830  0.12903337  0.75037774  1
  V  V19  1  0.50117574  0.00101019  0.50255939  1
  V  V20  1  0.12914869  0.61224261  -0.00042848  1
  V  V21  1  0.37294478  0.00110215  0.37334360  1
  V  V22  1  0.63051113  0.87813346  0.73221581  1
  V  V23  1  0.87393769  0.00001649  0.37549069  1
  V  V24  1  0.62266491  0.24447183  0.88404846  1
  V  V25  1  0.49775752  0.74705455  0.23617549  1
  V  V26  1  0.62694408  0.48465901  0.62544907  1
  V  V27  1  0.12401876  0.38366772  0.24368207  1
  V  V28  1  0.00077183  0.74866702  0.75381034  1
  V  V29  1  0.24793386  0.38395182  0.12547308  1
  V  V30  1  0.61202222  0.62040573  0.00207114  1
  V  V31  1  0.24908284  0.12562939  0.37389400  1
  V  V32  1  0.36666952  0.51332470  0.37549950  1
  V  V33  1  0.12385235  0.12545318  0.50024582  1
  V  V34  1  0.62382138  0.74610841  0.37950987  1
  V  V35  1  0.74505131  0.48632026  0.74928742  1
  V  V36  1  0.37438734  0.63061410  0.22877263  1
  V  V37  1  0.50425900  0.37833415  0.87010045  1
  V  V38  1  0.00362704  0.11316004  0.12165560  1
  V  V39  1  0.62638165  0.25293651  0.37546786  1
  V  V40  1  0.75160523  0.86815435  0.12078536  1
  V  V41  1  0.37209858  0.12578889  0.24809588  1
  V  V42  1  0.87553748  0.25254863  0.11437258  1
  V  V43  1  -0.00190975  0.24937263  0.24756506  1
  V  V44  1  0.12164058  0.24878871  0.87215531  1
  V  V45  1  0.49543429  0.12528271  0.62361505  1
  V  V46  1  0.25107782  0.86784456  0.62090970  1
  V  V47  1  0.12408573  0.11214822  0.00213849  1
  V  V48  1  0.62521847  0.37834939  0.24882130  1
  V  V49  1  0.12434973  0.37057087  0.74694951  1
  V  V50  1  0.86959306  0.37470147  0.50857241  1
  V  V51  1  0.74553110  0.62765927  0.38285792  1
  V  V52  1  0.87587460  -0.00299224  0.87894423  1
  V  V53  1  0.12432762  0.25131644  0.37447861  1
  V  V54  1  -0.00261328  0.37561137  0.37435263  1
  V  V55  1  -0.00022941  0.74945701  0.24633921  1
  V  V56  1  0.61189977  0.50201146  0.12058260  1
  V  V57  1  0.12772277  0.87741022  0.23789777  1
  V  V58  1  0.63050599  0.75911783  0.88287615  1
  V  V59  1  0.37564215  0.50580115  0.87370072  1
  V  V60  1  0.37370519  0.25217423  0.12355487  1
  V  V61  1  -0.00318508  0.37196685  0.87824263  1
  V  V62  1  0.24942542  0.25324994  0.50127244  1
  V  V63  1  0.38119136  0.38156096  -0.00139088  1
  V  V64  1  0.51200382  0.25221382  0.74812240  1
  V  V65  1  0.37017032  0.37829672  0.50162455  1
  V  V66  1  0.37687963  -0.00726414  0.87108381  1
  V  V67  1  0.12805108  0.87565955  0.75146163  1
  V  V68  1  0.87138006  0.50182160  0.37645830  1
  V  V69  1  0.62353717  0.87462595  0.24867637  1
  V  V70  1  0.75060489  0.00182135  0.25133697  1
  V  V71  1  0.49868502  0.87484787  0.37328481  1
  V  V72  1  0.49864415  0.75327825  0.75754614  1
  V  V73  1  0.50215363  0.12625866  0.11968191  1
  V  V74  1  0.62352668  0.12398450  0.49947425  1
  V  V75  1  0.24916736  0.50415954  0.75490033  1
  V  V76  1  0.13933683  0.74686624  0.37847849  1
  V  V77  1  0.75077597  0.62481368  0.88193994  1
  V  V78  1  0.00167517  0.87275076  0.37691060  1
  V  V79  1  0.75021384  0.37454033  0.11557185  1
  V  V80  1  0.86731165  0.87310013  0.50533273  1
  V  V81  1  0.37012337  0.25784513  0.62739377  1
  V  V82  1  0.87422035  0.86567431  -0.00095497  1
  V  V83  1  0.74989449  0.25373282  0.51247314  1
  V  V84  1  -0.00007529  0.62476857  0.62519146  1
  Zn  Zn85  1  0.87172412  0.74278522  0.11742067  1
  Zn  Zn86  1  0.74599604  0.24289176  0.00221998  1
  Zn  Zn87  1  -0.00247425  0.49291739  0.00877227  1
  Zn  Zn88  1  0.73833621  0.75017764  0.51196530  1
  Zn  Zn89  1  0.49918197  0.24889632  0.25009722  1
  Zn  Zn90  1  0.74720404  0.50397623  0.24848384  1
  Zn  Zn91  1  0.25123603  0.12668558  0.87415443  1
  Zn  Zn92  1  0.01515122  0.60993728  0.13110234  1
  Zn  Zn93  1  0.25253614  0.00215346  0.74893383  1
  Zn  Zn94  1  0.87940669  0.25952646  0.63800595  1
  Zn  Zn95  1  0.24885319  0.25123411  -0.00360278  1
  Zn  Zn96  1  0.75241041  -0.00768547  0.73662493  1
  Zn  Zn97  1  0.37202024  0.74212374  0.61951361  1
  Zn  Zn98  1  0.00583938  0.13331628  0.63405523  1
  Zn  Zn99  1  0.75355427  0.12760813  0.37523522  1
  Zn  Zn100  1  0.14983081  0.73345567  0.86483285  1
  Zn  Zn101  1  0.87624124  0.12438498  0.24889954  1
  Zn  Zn102  1  0.23865510  0.51635279  0.24877269  1
  Zn  Zn103  1  0.37038104  0.62863548  0.75291204  1
  Zn  Zn104  1  0.87132318  0.62376252  0.75225896  1
  Zn  Zn105  1  0.50743035  0.50926563  0.49658212  1
  Zn  Zn106  1  0.37374242  0.13094379  0.75734659  1
  Zn  Zn107  1  0.18650054  0.18966869  0.18494357  1
  Zn  Zn108  1  0.19088999  0.18593817  0.68959790  1
  Zn  Zn109  1  0.19056217  0.69449599  0.18297552  1
  Zn  Zn110  1  0.18701705  0.68457833  0.68460873  1
  Zn  Zn111  1  0.68815011  0.18941704  0.18816845  1
  Zn  Zn112  1  0.70229872  0.14996183  0.67475754  1
  Zn  Zn113  1  0.68390842  0.68570997  0.18945523  1
  Zn  Zn114  1  0.68723430  0.68407138  0.69836203  1
  Zn  Zn115  1  0.30976463  0.31552488  0.31100053  1
  Zn  Zn116  1  0.30897454  0.31692766  0.81033190  1
  Zn  Zn117  1  0.31380223  0.81367780  0.30424272  1
  Zn  Zn118  1  0.31553962  0.81704008  0.81840104  1
  Zn  Zn119  1  0.81207023  0.31422564  0.31172067  1
  Zn  Zn120  1  0.80868929  0.30845994  0.81805629  1
  Zn  Zn121  1  0.81041032  0.81200405  0.31331476  1
  Zn  Zn122  1  0.81061197  0.81178984  0.81076557  1
  Zn  Zn123  1  0.18626147  0.43987547  0.43469107  1
  Zn  Zn124  1  0.19201381  0.43224619  0.93408337  1
  Zn  Zn125  1  0.18808374  0.93714676  0.43281737  1
  Zn  Zn126  1  0.19338614  0.93331980  0.93771645  1
  Zn  Zn127  1  0.68873832  0.44088500  0.44107419  1
  Zn  Zn128  1  0.68272263  0.43723134  0.93546379  1
  Zn  Zn129  1  0.68573314  0.93584507  0.43803919  1
  Zn  Zn130  1  0.69249147  0.94005554  0.93867860  1
  Zn  Zn131  1  0.31285896  0.06458568  0.05565024  1
  Zn  Zn132  1  0.31087347  0.06146673  0.56275824  1
  Zn  Zn133  1  0.31008635  0.56342855  0.05640593  1
  Zn  Zn134  1  0.31870258  0.56281658  0.56857260  1
  Zn  Zn135  1  0.82073667  0.05981333  0.06205008  1
  Zn  Zn136  1  0.80925551  0.05763231  0.56450668  1
  Zn  Zn137  1  0.80484902  0.55979813  0.06400686  1
  Zn  Zn138  1  0.80951590  0.56310550  0.56602429  1
  Zn  Zn139  1  0.43362879  0.44134305  0.19109595  1
  Zn  Zn140  1  0.44049430  0.43943049  0.69064351  1
  Zn  Zn141  1  0.43801289  0.94022108  0.18832251  1
  Zn  Zn142  1  0.44153322  0.93325583  0.68584981  1
  Zn  Zn143  1  0.93236176  0.43816549  0.18604628  1
  Zn  Zn144  1  0.93910200  0.43957261  0.69486104  1
  Zn  Zn145  1  0.93652387  0.93292162  0.18778762  1
  Zn  Zn146  1  0.93957303  0.94002877  0.68985193  1
  Zn  Zn147  1  0.06329523  0.06122658  0.31135216  1
  Zn  Zn148  1  0.06320856  0.05818588  0.81713405  1
  Zn  Zn149  1  0.05955369  0.56564604  0.31766364  1
  Zn  Zn150  1  0.06219989  0.55878135  0.81695704  1
  Zn  Zn151  1  0.56048628  0.06305824  0.31063713  1
  Zn  Zn152  1  0.56018686  0.06237986  0.80986706  1
  Zn  Zn153  1  0.55818547  0.56493419  0.30817714  1
  Zn  Zn154  1  0.56335204  0.56489990  0.81118115  1
  Zn  Zn155  1  0.43552844  0.19077215  0.43634687  1
  Zn  Zn156  1  0.43714524  0.18690166  0.93687389  1
  Zn  Zn157  1  0.44251396  0.68986982  0.43598223  1
  Zn  Zn158  1  0.43713132  0.69131799  0.93832700  1
  Zn  Zn159  1  0.93617706  0.18803843  0.43947300  1
  Zn  Zn160  1  0.94246241  0.18445966  0.93582554  1
  Zn  Zn161  1  0.93924799  0.68799843  0.43814940  1
  Zn  Zn162  1  0.94290749  0.68023990  0.93846212  1
  Zn  Zn163  1  0.06417250  0.30858942  0.05908650  1
  Zn  Zn164  1  0.05721510  0.31093832  0.56398350  1
  Zn  Zn165  1  0.06430256  0.80439444  0.05911888  1
  Zn  Zn166  1  0.06217877  0.81095136  0.56153658  1
  Zn  Zn167  1  0.56055372  0.31455973  0.06009266  1
  Zn  Zn168  1  0.55822769  0.31252919  0.56154397  1
  Zn  Zn169  1  0.56538329  0.81695518  0.05783838  1
  Zn  Zn170  1  0.55749459  0.81334592  0.56298454  1
  O  O171  1  0.11831932  0.13269312  0.11064911  1
  O  O172  1  0.12675487  0.11783966  0.61836876  1
  O  O173  1  0.12867452  0.63213426  0.10789228  1
  O  O174  1  0.11613398  0.61840783  0.61770026  1
  O  O175  1  0.61664695  0.11633336  0.13080094  1
  O  O176  1  0.60447920  0.13979060  0.60825360  1
  O  O177  1  0.63272161  0.61795841  0.11068168  1
  O  O178  1  0.61554201  0.62350242  0.62892190  1
  O  O179  1  0.38220226  0.38357588  0.37849386  1
  O  O180  1  0.38248385  0.38011999  0.88122668  1
  O  O181  1  0.37889338  0.88033539  0.38027085  1
  O  O182  1  0.38053840  0.88948143  0.88483625  1
  O  O183  1  0.87786886  0.38182215  0.38189467  1
  O  O184  1  0.88512706  0.38088016  0.86654908  1
  O  O185  1  0.88357241  0.87788001  0.38279725  1
  O  O186  1  0.88028329  0.87696768  0.87979491  1
  O  O187  1  0.25544369  0.00807787  0.36880399  1
  O  O188  1  0.26662463  -0.00060851  0.87369943  1
  O  O189  1  0.26416227  0.49679295  0.36872812  1
  O  O190  1  0.26253532  0.49472532  0.86614899  1
  O  O191  1  0.75324087  -0.00071656  0.36592720  1
  O  O192  1  0.75856475  0.00396252  0.87133743  1
  O  O193  1  0.75233091  0.51004833  0.37367482  1
  O  O194  1  0.75290979  0.50193331  0.86642409  1
  O  O195  1  0.25854278  0.48742301  0.13050704  1
  O  O196  1  0.23778957  0.50185291  0.63159334  1
  O  O197  1  0.25352097  1.00734980  0.13708930  1
  O  O198  1  0.24498235  0.98820254  0.62662964  1
  O  O199  1  0.73821903  0.48925800  0.12800848  1
  O  O200  1  0.73894046  0.50492900  0.63782306  1
  O  O201  1  0.74540353  0.99488653  0.13139189  1
  O  O202  1  0.72779241  1.04015397  0.63694333  1
  O  O203  1  0.00483627  0.36718250  0.25346429  1
  O  O204  1  0.01428932  0.38301301  0.76200112  1
  O  O205  1  0.00542164  0.86917411  0.25899729  1
  O  O206  1  0.00921494  0.86609154  0.75503896  1
  O  O207  1  0.50783935  0.37526318  0.25935815  1
  O  O208  1  0.49529129  0.36347968  0.75929102  1
  O  O209  1  0.50281278  0.86964153  0.25465233  1
  O  O210  1  0.51206605  0.85914674  0.74229557  1
  O  O211  1  0.49187942  0.12466380  0.23787217  1
  O  O212  1  0.49535343  0.13199901  0.73855855  1
  O  O213  1  0.48602167  0.63473590  0.25331278  1
  O  O214  1  0.50339405  0.63896950  0.74211682  1
  O  O215  1  1.00457666  0.13629395  0.24201250  1
  O  O216  1  0.98619544  0.11866937  0.75599347  1
  O  O217  1  0.99099509  0.63316005  0.25145267  1
  O  O218  1  1.00294641  0.63267988  0.74189933  1
  O  O219  1  0.37472346  0.25921613  0.00915066  1
  O  O220  1  0.37111505  0.25981480  0.50531516  1
  O  O221  1  0.37334053  0.76445483  -0.00265293  1
  O  O222  1  0.38337918  0.76611777  0.50003879  1
  O  O223  1  0.87623182  0.24690747  0.01185372  1
  O  O224  1  0.86397767  0.25928982  0.49640867  1
  O  O225  1  0.87898119  0.75986725  -0.00101606  1
  O  O226  1  0.87819092  0.75820140  0.50950737  1
  O  O227  1  0.12998877  0.24747281  0.49402367  1
  O  O228  1  0.12768394  0.24301970  0.98712858  1
  O  O229  1  0.11792296  0.74038408  0.49103687  1
  O  O230  1  0.14050587  0.75017971  0.99227876  1
  O  O231  1  0.62997163  0.24800882  0.49305710  1
  O  O232  1  0.62004042  0.24500505  0.98821385  1
  O  O233  1  0.62281284  0.75786705  0.48516173  1
  O  O234  1  0.62165859  0.74076995  0.98873336  1
  O  O235  1  0.49200119  0.24390486  0.12554744  1
  O  O236  1  0.48977427  0.24634061  0.62963349  1
  O  O237  1  0.51008353  0.75588639  0.13767383  1
  O  O238  1  0.50091133  0.74056877  0.63466693  1
  O  O239  1  0.99308622  0.24685309  0.13173822  1
  O  O240  1  0.99049283  0.24383153  0.62012112  1
  O  O241  1  0.99701757  0.74753227  0.13944634  1
  O  O242  1  0.99466507  0.74325736  0.63380001  1
  O  O243  1  0.00328818  0.25483234  0.36643455  1
  O  O244  1  0.01040409  0.25729060  0.87555933  1
  O  O245  1  0.00392164  0.75773955  0.36618550  1
  O  O246  1  -0.00232885  0.75676444  0.86264923  1
  O  O247  1  0.50867485  0.26150160  0.37569250  1
  O  O248  1  0.50446061  0.25287567  0.86696024  1
  O  O249  1  0.50704050  0.75595589  0.36614067  1
  O  O250  1  0.51467943  0.74414316  0.86366008  1
  O  O251  1  0.24434846  0.13147232  0.49364781  1
  O  O252  1  0.23657064  0.12985590  0.99870014  1
  O  O253  1  0.23755695  0.62181517  0.50936789  1
  O  O254  1  0.24249429  0.63640689  0.99964024  1
  O  O255  1  0.73837114  0.13476284  0.49443791  1
  O  O256  1  0.75732433  0.12197799  0.98673877  1
  O  O257  1  0.75665954  0.63073897  0.48709488  1
  O  O258  1  0.74197541  0.62201022  0.98715186  1
  O  O259  1  0.26093797  0.37270418  0.00890959  1
  O  O260  1  0.26234030  0.37034648  0.49179930  1
  O  O261  1  0.26437481  0.86859996  0.00026810  1
  O  O262  1  0.25929697  0.88146208  0.50755316  1
  O  O263  1  0.74000396  0.37001325  0.01267202  1
  O  O264  1  0.75810718  0.36673485  0.49686416  1
  O  O265  1  0.75965798  0.87792821  0.01072923  1
  O  O266  1  0.76316352  0.87136741  0.49580087  1
  O  O267  1  0.12299351  0.48856409  0.25719530  1
  O  O268  1  0.13016862  0.49573724  0.74340916  1
  O  O269  1  0.13318692  0.98980223  0.25639938  1
  O  O270  1  0.12412119  0.98827532  0.74392051  1
  O  O271  1  0.62416307  0.49317110  0.24197219  1
  O  O272  1  0.63708267  0.50226174  0.74334875  1
  O  O273  1  0.63092979  0.99545127  0.24193060  1
  O  O274  1  0.61656010  0.97771101  0.75719329  1
  O  O275  1  0.36662289  0.00543647  0.25464348  1
  O  O276  1  0.38320664  -0.00320308  0.76396690  1
  O  O277  1  0.37791108  0.51596674  0.26135647  1
  O  O278  1  0.36528381  0.49771027  0.75627889  1
  O  O279  1  0.86512890  -0.00167652  0.25563170  1
  O  O280  1  0.87206988  0.00299418  0.76138577  1
  O  O281  1  0.87146041  0.51028331  0.25861152  1
  O  O282  1  0.86192615  0.50256697  0.75709378  1
  O  O283  1  0.11808634  0.37038418  0.36686397  1
  O  O284  1  0.11945972  0.36784652  0.86733831  1
  O  O285  1  0.11491105  0.86684676  0.37258528  1
  O  O286  1  0.11898101  0.87589984  0.86523797  1
  O  O287  1  0.61802482  0.37306336  0.36979353  1
  O  O288  1  0.61266708  0.36310524  0.87934448  1
  O  O289  1  0.61888838  0.86893407  0.36778516  1
  O  O290  1  0.63014344  0.85995820  0.87989328  1
  O  O291  1  0.38053275  0.13419988  0.12757698  1
  O  O292  1  0.38376401  0.13704151  0.61965744  1
  O  O293  1  0.38099254  0.61883508  0.13101255  1
  O  O294  1  0.38920261  0.62590098  0.63341361  1
  O  O295  1  0.88420791  0.13371551  0.12776126  1
  O  O296  1  0.87665259  0.11958230  0.64500051  1
  O  O297  1  0.86627863  0.62612718  0.13930170  1
  O  O298  1  0.88697471  0.63107368  0.62646983  1
  O  O299  1  0.26205482  0.25962633  0.12572154  1
  O  O300  1  0.26272144  0.24745580  0.61794971  1
  O  O301  1  0.25436060  0.75315469  0.10632643  1
  O  O302  1  0.25315788  0.76294153  0.63070518  1
  O  O303  1  0.75640795  0.25424817  0.12299305  1
  O  O304  1  0.75454509  0.24115531  0.61452892  1
  O  O305  1  0.74975896  0.76529214  0.13450806  1
  O  O306  1  0.76531356  0.73740248  0.62766180  1
  O  O307  1  0.24473701  0.24556097  0.37943788  1
  O  O308  1  0.23837999  0.24988304  0.87488211  1
  O  O309  1  0.23773393  0.75651930  0.37142722  1
  O  O310  1  0.25871216  0.75315947  0.89002630  1
  O  O311  1  0.73723069  0.25118828  0.37982625  1
  O  O312  1  0.73896576  0.24234549  0.88054019  1
  O  O313  1  0.73952197  0.74489557  0.37513607  1
  O  O314  1  0.73698763  0.73994383  0.86816602  1
  O  O315  1  0.01343781  0.12643209  0.00722573  1
  O  O316  1  0.00720382  0.11710404  0.49799019  1
  O  O317  1  0.01503552  0.62218128  0.00597666  1
  O  O318  1  0.00471224  0.61947390  0.50929004  1
  O  O319  1  0.49275501  0.11456941  0.01385921  1
  O  O320  1  0.50237740  0.11981947  0.50199057  1
  O  O321  1  0.51349194  0.62781730  -0.00141026  1
  O  O322  1  0.49744551  0.62634301  0.51731716  1
  O  O323  1  0.49044959  0.37881968  0.48969665  1
  O  O324  1  0.48912766  0.37107690  0.98823490  1
  O  O325  1  0.49259876  0.88494028  0.49553572  1
  O  O326  1  0.48912190  0.88612498  1.00465900  1
  O  O327  1  0.99101285  0.38077218  0.49276746  1
  O  O328  1  1.00868418  0.37697509  0.98389456  1
  O  O329  1  0.99261873  0.88002735  0.49288605  1
  O  O330  1  0.99480175  0.86602290  0.98787767  1
  O  O331  1  0.49176854  0.49459748  0.37690844  1
  O  O332  1  0.49221710  0.48721008  0.86187389  1
  O  O333  1  0.49305107  0.99587527  0.38066421  1
  O  O334  1  0.49074137  1.00923725  0.88831897  1
  O  O335  1  0.99176119  0.49577854  0.38224623  1
  O  O336  1  0.98928428  0.49254273  0.87859975  1
  O  O337  1  0.99545911  0.99002989  0.37937646  1
  O  O338  1  0.99045706  0.98374302  0.86942319  1
  O  O339  1  -0.00502666  0.01452879  0.13305680  1
  O  O340  1  0.00832112  0.00218751  0.61886414  1
  O  O341  1  -0.00397512  0.49916943  0.12116566  1
  O  O342  1  0.00753442  0.50919890  0.62270485  1
  O  O343  1  0.50836847  0.00684324  0.11951110  1
  O  O344  1  0.49130465  0.01069221  0.61232938  1
  O  O345  1  0.51254810  0.49384823  0.12645370  1
  O  O346  1  0.51353210  0.51162888  0.63249700  1
  O  O347  1  0.23986661  0.37721402  0.24291876  1
  O  O348  1  0.23512922  0.38787410  0.75152343  1
  O  O349  1  0.24022991  0.88536843  0.25406130  1
  O  O350  1  0.24208631  0.87692691  0.74338626  1
  O  O351  1  0.73621029  0.37543474  0.24381770  1
  O  O352  1  0.75161686  0.38729750  0.75360503  1
  O  O353  1  0.74574362  0.88513428  0.24350623  1
  O  O354  1  0.73557499  0.87438057  0.75063602  1
  O  O355  1  0.25188627  0.11976370  0.25446700  1
  O  O356  1  0.25684951  0.11807856  0.75350974  1
  O  O357  1  0.26756833  0.62912171  0.24219487  1
  O  O358  1  0.25009165  0.61153672  0.74739138  1
  O  O359  1  0.74963048  0.11313043  0.25238011  1
  O  O360  1  0.76428122  0.12192689  0.76967596  1
  O  O361  1  0.75724419  0.62703045  0.26134828  1
  O  O362  1  0.75005320  0.61497851  0.76588323  1
  O  O363  1  0.36980527  0.12278650  0.36843740  1
  O  O364  1  0.37299176  0.11263886  0.87768174  1
  O  O365  1  0.37615291  0.61355772  0.38129699  1
  O  O366  1  0.38724369  0.60995925  0.87271869  1
  O  O367  1  0.87381746  0.11605749  0.37134559  1
  O  O368  1  0.87351428  0.11451019  0.87131105  1
  O  O369  1  0.86819577  0.62294177  0.36823863  1
  O  O370  1  0.86885733  0.61542667  0.87432429  1
  O  O371  1  0.13524728  0.36658133  0.13331815  1
  O  O372  1  0.11548694  0.38707976  0.63128585  1
  O  O373  1  0.11709897  0.86923472  0.13944076  1
  O  O374  1  0.13129488  0.87766896  0.63061251  1
  O  O375  1  0.62809425  0.37917545  0.13119944  1
  O  O376  1  0.61676624  0.38589349  0.62933885  1
  O  O377  1  0.63323770  0.88549821  0.12839118  1
  O  O378  1  0.62773959  0.87139801  0.63226909  1
  O  O379  1  0.11605274  0.25899380  0.25386119  1
  O  O380  1  0.13036752  0.25929172  0.75655649  1
  O  O381  1  0.11837334  0.75566044  0.25789538  1
  O  O382  1  0.11867352  0.75738628  0.75003057  1
  O  O383  1  0.62216250  0.25954529  0.25821615  1
  O  O384  1  0.61278370  0.24213194  0.75597413  1
  O  O385  1  0.61727227  0.75511587  0.25805707  1
  O  O386  1  0.61952753  0.76015888  0.75957438  1
  O  O387  1  0.37651323  0.24671954  0.24085265  1
  O  O388  1  0.38088094  0.25290217  0.74008545  1
  O  O389  1  0.38229997  0.73866622  0.25084120  1
  O  O390  1  0.39112318  0.75282305  0.75407425  1
  O  O391  1  0.88502173  0.24902773  0.24452996  1
  O  O392  1  0.87018160  0.23352920  0.75468649  1
  O  O393  1  0.88345747  0.74355792  0.25221756  1
  O  O394  1  0.88453276  0.74940784  0.74265877  1
  O  O395  1  0.37662010  0.49443099  0.49026383  1
  O  O396  1  0.37046397  0.48992781  0.98920044  1
  O  O397  1  0.38232241  0.99391869  0.49321534  1
  O  O398  1  0.38057692  0.99072182  0.99465884  1
  O  O399  1  0.87693050  0.49377002  0.49699927  1
  O  O400  1  0.86906175  0.50022779  0.98604070  1
  O  O401  1  0.87806167  0.99261334  0.49717797  1
  O  O402  1  0.87467696  0.98518785  0.98785034  1
  O  O403  1  0.13000771  0.01323820  -0.00643125  1
  O  O404  1  0.12041375  0.00471767  0.50306487  1
  O  O405  1  0.13279763  0.51046712  -0.00273514  1
  O  O406  1  0.11986560  0.50589601  0.50547731  1
  O  O407  1  0.61729883  -0.00647564  0.01079203  1
  O  O408  1  0.61225105  0.01091937  0.48984839  1
  O  O409  1  0.62470289  0.51218003  0.00387301  1
  O  O410  1  0.62509984  0.49735480  0.51916214  1
  O  O411  1  0.37212836  0.37063626  0.12001689  1
  O  O412  1  0.38439922  0.36948770  0.61287107  1
  O  O413  1  0.37563766  0.87976262  0.11443175  1
  O  O414  1  0.36814549  0.87369767  0.61669040  1
  O  O415  1  0.86018179  0.36442532  0.13376466  1
  O  O416  1  0.88044490  0.37873080  0.61255497  1
  O  O417  1  0.86931753  0.87268870  0.11631615  1
  O  O418  1  0.88279735  0.86597477  0.61724320  1
  O  O419  1  0.12912456  0.13186589  0.37979610  1
  O  O420  1  0.12275029  0.13039356  0.88469156  1
  O  O421  1  0.12137628  0.63369533  0.38473396  1
  O  O422  1  0.11941147  0.62593762  0.89040000  1
  O  O423  1  0.61942664  0.13692852  0.38273327  1
  O  O424  1  0.63342004  0.13049043  0.86838239  1
  O  O425  1  0.63192524  0.63416798  0.36776395  1
  O  O426  1  0.62970530  0.62889310  0.88583810  1
