# generated using pymatgen
data_V85Zn86O256
_symmetry_space_group_name_H-M   'P 1'
_cell_length_a   17.01941157
_cell_length_b   17.01757749
_cell_length_c   16.99156005
_cell_angle_alpha   90.09288520
_cell_angle_beta   90.00002777
_cell_angle_gamma   89.79671161
_symmetry_Int_Tables_number   1
_chemical_formula_structural   V85Zn86O256
_chemical_formula_sum   'V85 Zn86 O256'
_cell_volume   4921.21374060
_cell_formula_units_Z   1
loop_
 _symmetry_equiv_pos_site_id
 _symmetry_equiv_pos_as_xyz
  1  'x, y, z'
loop_
 _atom_site_type_symbol
 _atom_site_label
 _atom_site_symmetry_multiplicity
 _atom_site_fract_x
 _atom_site_fract_y
 _atom_site_fract_z
 _atom_site_occupancy
  V  V0  1  0.12939195  0.75398826  0.86736197  1
  V  V1  1  0.37683003  0.87468647  -0.00105742  1
  V  V2  1  0.87145225  0.25054670  0.11740030  1
  V  V3  1  0.00119283  0.87228371  0.87380492  1
  V  V4  1  0.88533423  0.12876056  0.74680685  1
  V  V5  1  0.12349273  0.87530100  0.24636578  1
  V  V6  1  0.87554489  -0.00206773  0.87930270  1
  V  V7  1  0.87473367  0.62772569  0.24193229  1
  V  V8  1  -0.00608968  0.87607742  0.37442168  1
  V  V9  1  0.25515675  0.49833112  0.74550768  1
  V  V10  1  0.37885857  0.63635719  0.74593680  1
  V  V11  1  0.38084888  0.00611190  0.88025345  1
  V  V12  1  0.48299182  0.88117457  0.37571002  1
  V  V13  1  0.12347757  0.50032899  0.12317271  1
  V  V14  1  0.74878033  0.75020059  0.49944205  1
  V  V15  1  -0.00183714  0.62620595  0.12132857  1
  V  V16  1  0.49649540  0.64199012  0.62576091  1
  V  V17  1  0.63163339  0.24374833  0.37875294  1
  V  V18  1  0.62557986  0.62288918  -0.00271532  1
  V  V19  1  0.00474503  0.35702958  0.86942337  1
  V  V20  1  0.25744475  0.61985277  0.87333230  1
  V  V21  1  0.62267005  0.62618422  0.49847907  1
  V  V22  1  0.50244232  0.87323900  0.87360804  1
  V  V23  1  0.37429008  0.25227129  0.12425934  1
  V  V24  1  0.62539362  0.74848813  0.87460402  1
  V  V25  1  0.75148774  -0.00217396  0.75093108  1
  V  V26  1  0.50363232  0.24920122  0.74454911  1
  V  V27  1  0.11954596  0.62841270  0.50628896  1
  V  V28  1  0.00861501  -0.00052760  0.51115089  1
  V  V29  1  -0.00087581  0.12535573  0.12537110  1
  V  V30  1  0.62488389  0.37776121  0.24693888  1
  V  V31  1  0.75141206  0.87010867  0.62605053  1
  V  V32  1  0.25232597  0.12763292  0.87470741  1
  V  V33  1  0.75847929  0.62242531  0.87154530  1
  V  V34  1  0.37008606  0.37202506  0.50781862  1
  V  V35  1  0.38283976  0.12543148  0.74688348  1
  V  V36  1  0.49942969  0.37631547  0.37374841  1
  V  V37  1  0.12606698  0.62490249  -0.00201522  1
  V  V38  1  0.25198723  0.74891737  -0.00298497  1
  V  V39  1  0.62634248  0.87075764  0.75371964  1
  V  V40  1  0.12918803  0.36107582  0.75086260  1
  V  V41  1  0.87633274  0.86709102  0.01090487  1
  V  V42  1  -0.00371970  0.74970584  0.24212418  1
  V  V43  1  0.37210050  0.12067460  0.25200900  1
  V  V44  1  0.62427888  0.49890745  0.62666342  1
  V  V45  1  0.37481789  0.74864967  0.12417021  1
  V  V46  1  0.49985122  0.25251573  0.25058292  1
  V  V47  1  0.62775699  0.25149835  0.87968878  1
  V  V48  1  -0.00278334  0.25372135  0.25745713  1
  V  V49  1  0.75024796  0.50167269  0.24683890  1
  V  V50  1  0.75072824  0.12848582  0.88234631  1
  V  V51  1  0.75717850  0.49844115  0.75079858  1
  V  V52  1  0.74879538  0.62530228  0.37213419  1
  V  V53  1  0.00156854  -0.00100079  0.00301045  1
  V  V54  1  0.49674422  0.50137852  0.50200367  1
  V  V55  1  0.62303887  0.75678741  0.36991089  1
  V  V56  1  0.62642231  0.12210496  0.00471304  1
  V  V57  1  0.12524283  0.25432960  0.37295988  1
  V  V58  1  0.74074166  0.00509423  0.24969340  1
  V  V59  1  0.75089352  0.37373739  0.11644145  1
  V  V60  1  0.49558272  0.37705870  0.87429265  1
  V  V61  1  0.50346090  0.11931223  0.12515211  1
  V  V62  1  0.24301399  0.25152415  -0.00380227  1
  V  V63  1  0.74005959  0.87294417  0.12389940  1
  V  V64  1  0.25873846  0.76109962  0.51136821  1
  V  V65  1  0.49559393  0.50028009  -0.00537270  1
  V  V66  1  0.37379304  0.62400556  0.24860423  1
  V  V67  1  0.24884979  0.87698958  0.12072652  1
  V  V68  1  0.87160253  0.12519762  0.25805467  1
  V  V69  1  0.37025421  0.49961333  0.37517095  1
  V  V70  1  0.12584332  0.74823429  0.37518774  1
  V  V71  1  0.88124600  0.49428530  0.37369677  1
  V  V72  1  0.12571180  0.12550247  -0.00083648  1
  V  V73  1  0.12568953  0.00079799  0.12499598  1
  V  V74  1  -0.00283604  0.74534515  0.74318081  1
  V  V75  1  0.62470170  0.50014830  0.12190391  1
  V  V76  1  0.87455008  0.37676153  -0.01137825  1
  V  V77  1  0.24731235  0.37613020  0.12374886  1
  V  V78  1  -0.00217570  0.50095955  -0.01332239  1
  V  V79  1  0.11844497  0.37777336  0.25157922  1
  V  V80  1  0.24524274  0.12148957  0.37411430  1
  V  V81  1  -0.00049118  0.49610307  0.49873614  1
  V  V82  1  0.12161203  0.50402381  0.62909004  1
  V  V83  1  0.24297598  0.24912933  0.50679973  1
  V  V84  1  0.37325105  0.37816071  -0.00274638  1
  Zn  Zn85  1  0.24675089  0.49963385  0.25042593  1
  Zn  Zn86  1  0.79395883  0.19325952  0.44336267  1
  Zn  Zn87  1  0.75081585  0.36238219  0.60972154  1
  Zn  Zn88  1  0.88398097  0.73960937  0.61579884  1
  Zn  Zn89  1  0.60633455  0.00631000  0.63051842  1
  Zn  Zn90  1  0.86864383  0.00438795  0.37981036  1
  Zn  Zn91  1  0.25137546  -0.00310301  0.25334040  1
  Zn  Zn92  1  0.75699034  0.74184500  0.00634774  1
  Zn  Zn93  1  0.38206608  0.24709419  0.62317057  1
  Zn  Zn94  1  0.88433358  0.61667984  0.74193589  1
  Zn  Zn95  1  0.50038245  0.62576844  0.12274768  1
  Zn  Zn96  1  0.87344194  0.87518858  0.49994392  1
  Zn  Zn97  1  0.50750917  -0.00475086  0.00894898  1
  Zn  Zn98  1  0.61757255  0.88283366  0.24476328  1
  Zn  Zn99  1  0.22142062  0.91596805  0.68315453  1
  Zn  Zn100  1  0.50018851  0.75082895  0.24646195  1
  Zn  Zn101  1  0.49953326  0.00472799  0.50006608  1
  Zn  Zn102  1  0.62928756  0.12116615  0.51620373  1
  Zn  Zn103  1  0.25020560  0.62613782  0.37801158  1
  Zn  Zn104  1  0.87486281  0.36668755  0.49714039  1
  Zn  Zn105  1  0.88424975  0.25237979  0.62689358  1
  Zn  Zn106  1  0.62310728  0.37486929  0.74698248  1
  Zn  Zn107  1  0.18662645  0.18970393  0.18616243  1
  Zn  Zn108  1  0.22816570  0.12211469  0.65360866  1
  Zn  Zn109  1  0.18847993  0.68682885  0.18657823  1
  Zn  Zn110  1  0.18760183  0.68896694  0.68622618  1
  Zn  Zn111  1  0.68817054  0.18997468  0.18811813  1
  Zn  Zn112  1  0.69250237  0.18132386  0.68056232  1
  Zn  Zn113  1  0.68754872  0.68935964  0.18396600  1
  Zn  Zn114  1  0.68746030  0.68441332  0.68615547  1
  Zn  Zn115  1  0.30998732  0.31250879  0.31261723  1
  Zn  Zn116  1  0.31279223  0.31122338  0.81056615  1
  Zn  Zn117  1  0.30831640  0.81024001  0.31048600  1
  Zn  Zn118  1  0.31923319  0.82869774  0.78735569  1
  Zn  Zn119  1  0.81215357  0.31744321  0.30543541  1
  Zn  Zn120  1  0.79500977  0.29519253  0.77712580  1
  Zn  Zn121  1  0.80946765  0.81371806  0.30767082  1
  Zn  Zn122  1  0.81558163  0.80905344  0.81831699  1
  Zn  Zn123  1  0.18616923  0.43579361  0.44162702  1
  Zn  Zn124  1  0.18459385  0.43785290  0.93274519  1
  Zn  Zn125  1  0.18696982  0.93402817  0.43759812  1
  Zn  Zn126  1  0.20524327  0.92462788  0.90439164  1
  Zn  Zn127  1  0.68912876  0.43707448  0.43549379  1
  Zn  Zn128  1  0.68737374  0.43791009  0.93364859  1
  Zn  Zn129  1  0.68345179  0.94272606  0.43807605  1
  Zn  Zn130  1  0.68953544  0.93970839  0.94120915  1
  Zn  Zn131  1  0.31451905  0.06283403  0.06285686  1
  Zn  Zn132  1  0.31950301  0.00649259  0.55337612  1
  Zn  Zn133  1  0.31197596  0.56125628  0.06263511  1
  Zn  Zn134  1  0.30647825  0.56888683  0.56440701  1
  Zn  Zn135  1  0.81177915  0.05798003  0.06728659  1
  Zn  Zn136  1  0.81636683  0.05669970  0.56272008  1
  Zn  Zn137  1  0.81314912  0.55804341  0.05810384  1
  Zn  Zn138  1  0.81388490  0.56164924  0.56267511  1
  Zn  Zn139  1  0.43651550  0.44013310  0.18371873  1
  Zn  Zn140  1  0.43816529  0.44085873  0.68794991  1
  Zn  Zn141  1  0.43616273  0.93557786  0.19186845  1
  Zn  Zn142  1  0.42306178  0.93563264  0.68821933  1
  Zn  Zn143  1  0.93664150  0.43963715  0.18131373  1
  Zn  Zn144  1  0.94162422  0.43231226  0.68364045  1
  Zn  Zn145  1  0.93308695  0.93986894  0.18923610  1
  Zn  Zn146  1  0.93661560  0.93203758  0.68900352  1
  Zn  Zn147  1  0.06035388  0.06381343  0.31589576  1
  Zn  Zn148  1  0.06353606  0.06451404  0.82305916  1
  Zn  Zn149  1  0.06094420  0.56450198  0.31372700  1
  Zn  Zn150  1  0.06761042  0.56587950  0.81120711  1
  Zn  Zn151  1  0.55904375  0.06556474  0.31677337  1
  Zn  Zn152  1  0.56479107  0.06206765  0.81525362  1
  Zn  Zn153  1  0.55971119  0.56366796  0.31224097  1
  Zn  Zn154  1  0.56242833  0.56436571  0.81042068  1
  Zn  Zn155  1  0.41377641  0.14738334  0.46299119  1
  Zn  Zn156  1  0.44084165  0.19291860  0.94067095  1
  Zn  Zn157  1  0.43937578  0.69171876  0.43591237  1
  Zn  Zn158  1  0.43817009  0.68726596  0.93242791  1
  Zn  Zn159  1  0.97156095  0.19507346  0.49852473  1
  Zn  Zn160  1  0.93656030  0.18677075  0.93545030  1
  Zn  Zn161  1  0.93687745  0.68351340  0.43269544  1
  Zn  Zn162  1  0.93860425  0.68813675  0.93297932  1
  Zn  Zn163  1  0.05870580  0.31304976  0.06357843  1
  Zn  Zn164  1  0.06385095  0.31872895  0.57274538  1
  Zn  Zn165  1  0.06545356  0.81212266  0.05831040  1
  Zn  Zn166  1  0.07557502  0.82949810  0.56177292  1
  Zn  Zn167  1  0.56272932  0.31069733  0.06081739  1
  Zn  Zn168  1  0.56298128  0.31386888  0.55802547  1
  Zn  Zn169  1  0.56251630  0.80732682  0.05967026  1
  Zn  Zn170  1  0.53660634  0.84699238  0.58004289  1
  O  O171  1  0.11839551  0.12133559  0.12057875  1
  O  O172  1  0.11295013  0.09267799  0.67393043  1
  O  O173  1  0.11956096  0.62033200  0.11761509  1
  O  O174  1  0.12675344  0.61823959  0.61587390  1
  O  O175  1  0.61547411  0.13679810  0.11599873  1
  O  O176  1  0.61765101  0.11847801  0.63501309  1
  O  O177  1  0.62464923  0.61851371  0.11558323  1
  O  O178  1  0.61518773  0.61859240  0.61986721  1
  O  O179  1  0.37881018  0.38164588  0.38110208  1
  O  O180  1  0.38792789  0.36880600  0.88145103  1
  O  O181  1  0.38378486  0.87525497  0.36252373  1
  O  O182  1  0.38644770  0.88489018  0.87825744  1
  O  O183  1  0.87261811  0.39206596  0.36909267  1
  O  O184  1  0.89267556  0.36915698  0.88414738  1
  O  O185  1  0.88595119  0.87196271  0.37093351  1
  O  O186  1  0.88210541  0.87935711  0.88728559  1
  O  O187  1  0.23707470  0.01802818  0.37300205  1
  O  O188  1  0.27080202  0.01678160  0.88677979  1
  O  O189  1  0.26094282  0.49924497  0.37494104  1
  O  O190  1  0.24112161  0.51427103  0.86499040  1
  O  O191  1  0.75329420  -0.01268631  0.35392853  1
  O  O192  1  0.75524260  0.00506033  0.87023424  1
  O  O193  1  0.75678422  0.50809565  0.36490305  1
  O  O194  1  0.73944952  0.51142769  0.86075126  1
  O  O195  1  0.24068437  0.49341939  0.12394780  1
  O  O196  1  0.23748160  0.50399194  0.63367621  1
  O  O197  1  0.24324108  0.99379085  0.12396854  1
  O  O198  1  0.24506538  1.01396443  0.62757652  1
  O  O199  1  0.74382865  0.49435841  0.12774715  1
  O  O200  1  0.73784778  0.50547970  0.63799834  1
  O  O201  1  0.75435934  0.98641046  0.13698293  1
  O  O202  1  0.75485659  0.98522196  0.64108144  1
  O  O203  1  0.00846588  0.36675045  0.24063140  1
  O  O204  1  0.01009380  0.37901872  0.76402926  1
  O  O205  1  0.00265689  0.86592287  0.25194155  1
  O  O206  1  -0.00565728  0.86542398  0.76768267  1
  O  O207  1  0.50311774  0.37007065  0.25088496  1
  O  O208  1  0.50017056  0.37017042  0.75941725  1
  O  O209  1  0.50311593  0.86985343  0.25606839  1
  O  O210  1  0.51432684  0.88094910  0.76640494  1
  O  O211  1  0.49249661  0.13463950  0.24478429  1
  O  O212  1  0.49164990  0.13826064  0.76446549  1
  O  O213  1  0.48530703  0.62418969  0.24615944  1
  O  O214  1  0.48588549  0.61925643  0.74288470  1
  O  O215  1  0.99092759  0.13367219  0.24526511  1
  O  O216  1  0.98132829  0.10862717  0.76186009  1
  O  O217  1  0.99331229  0.63126457  0.24260049  1
  O  O218  1  0.99962209  0.64042628  0.75712608  1
  O  O219  1  0.36656686  0.25822163  0.00646182  1
  O  O220  1  0.36220786  0.25263666  0.50309387  1
  O  O221  1  0.37080398  0.75401061  0.00290268  1
  O  O222  1  0.35558003  0.74002632  0.49347264  1
  O  O223  1  0.88378937  0.26002572  0.01017012  1
  O  O224  1  0.87459997  0.25004603  0.49571323  1
  O  O225  1  0.87376350  0.76191740  -0.00555420  1
  O  O226  1  0.85965324  0.74835264  0.49406843  1
  O  O227  1  0.13602049  0.26379720  0.48702744  1
  O  O228  1  0.13589506  0.24393741  1.00820010  1
  O  O229  1  0.12812488  0.74600953  0.49167552  1
  O  O230  1  0.13223078  0.74224305  0.99226747  1
  O  O231  1  0.62273215  0.25392419  0.48035827  1
  O  O232  1  0.62072156  0.23992390  0.98828925  1
  O  O233  1  0.63605448  0.74358920  0.48630206  1
  O  O234  1  0.63052570  0.74153797  0.99064035  1
  O  O235  1  0.49519108  0.24542601  0.13400430  1
  O  O236  1  0.50311476  0.25856151  0.64054621  1
  O  O237  1  0.49085425  0.74560403  0.12496962  1
  O  O238  1  0.50735516  0.74027499  0.61921404  1
  O  O239  1  0.99136531  0.24535202  0.13379197  1
  O  O240  1  0.99742804  0.23658502  0.60180840  1
  O  O241  1  1.00768140  0.74371638  0.13526780  1
  O  O242  1  1.00271993  0.75958783  0.64240155  1
  O  O243  1  0.01107558  0.24670940  0.36097998  1
  O  O244  1  0.00729907  0.25880016  0.87885814  1
  O  O245  1  0.00720603  0.75396760  0.36349208  1
  O  O246  1  0.00979647  0.75496804  0.87009298  1
  O  O247  1  0.51230692  0.25888501  0.35886110  1
  O  O248  1  0.50771420  0.25973020  0.87005594  1
  O  O249  1  0.50759972  0.75729260  0.36967580  1
  O  O250  1  0.51299137  0.76057715  0.88088016  1
  O  O251  1  0.24970903  0.14165846  0.47797004  1
  O  O252  1  0.24732540  0.13503964  0.99688798  1
  O  O253  1  0.23566694  0.63344040  0.49630646  1
  O  O254  1  0.24765637  0.62764792  0.99166724  1
  O  O255  1  0.74266000  0.11736521  0.50380689  1
  O  O256  1  0.74452350  0.11883989  0.99034046  1
  O  O257  1  0.74248166  0.63075879  0.49200771  1
  O  O258  1  0.74459243  0.62095909  0.98976822  1
  O  O259  1  0.25169223  0.37000518  0.00164498  1
  O  O260  1  0.25818950  0.36012793  0.49525102  1
  O  O261  1  0.25808601  0.86854598  -0.00047281  1
  O  O262  1  0.25084802  0.86218343  0.49661151  1
  O  O263  1  0.76350984  0.38425902  0.00215068  1
  O  O264  1  0.75967397  0.38539055  0.50072757  1
  O  O265  1  0.75734974  0.87822251  0.01218184  1
  O  O266  1  0.74855731  0.86630035  0.50913032  1
  O  O267  1  0.12236920  0.49323283  0.24396834  1
  O  O268  1  0.13472660  0.50468167  0.74229650  1
  O  O269  1  0.12386446  0.99341476  0.24176342  1
  O  O270  1  0.11656795  1.03122554  0.71963534  1
  O  O271  1  0.62892083  0.49722861  0.24279691  1
  O  O272  1  0.62717503  0.50075464  0.73882299  1
  O  O273  1  0.63811316  1.00352793  0.25000673  1
  O  O274  1  0.63635722  0.98847756  0.75648637  1
  O  O275  1  0.37045422  0.01664118  0.24418331  1
  O  O276  1  0.39003509  0.01974674  0.76733852  1
  O  O277  1  0.37265346  0.50457983  0.25779823  1
  O  O278  1  0.36058531  0.50456808  0.74456070  1
  O  O279  1  0.86892587  0.01150153  0.25235896  1
  O  O280  1  0.86606974  -0.00094538  0.76053809  1
  O  O281  1  0.87212341  0.50826773  0.25284257  1
  O  O282  1  0.85937331  0.49821572  0.74520247  1
  O  O283  1  0.13050469  0.36880648  0.36059503  1
  O  O284  1  0.11290207  0.37816339  0.86581711  1
  O  O285  1  0.11522494  0.86463581  0.36596547  1
  O  O286  1  0.10797204  0.86250031  0.89477660  1
  O  O287  1  0.61788873  0.37412042  0.36512428  1
  O  O288  1  0.61510342  0.36613768  0.87749916  1
  O  O289  1  0.62401708  0.86358309  0.36924264  1
  O  O290  1  0.62323464  0.86827945  0.87412176  1
  O  O291  1  0.38248389  0.13358733  0.13092319  1
  O  O292  1  0.37561329  0.12649204  0.64681499  1
  O  O293  1  0.37400123  0.62918591  0.13224630  1
  O  O294  1  0.38228164  0.62215223  0.63623677  1
  O  O295  1  0.87956185  0.13382177  0.12956691  1
  O  O296  1  0.86864359  0.12288246  0.64558691  1
  O  O297  1  0.87997235  0.61834151  0.13468104  1
  O  O298  1  0.86855511  0.63040209  0.63061642  1
  O  O299  1  0.25448481  0.25641708  0.11583754  1
  O  O300  1  0.24238826  0.22894869  0.60647441  1
  O  O301  1  0.25377235  0.75611858  0.11641263  1
  O  O302  1  0.24531274  0.74886009  0.61055920  1
  O  O303  1  0.76385733  0.25768543  0.13041370  1
  O  O304  1  0.76449236  0.26292851  0.66466961  1
  O  O305  1  0.74978704  0.76620781  0.12386559  1
  O  O306  1  0.74376804  0.75443478  0.61295559  1
  O  O307  1  0.23953415  0.24616890  0.37575762  1
  O  O308  1  0.25758756  0.24265834  0.88895175  1
  O  O309  1  0.23549534  0.75034575  0.37871466  1
  O  O310  1  0.24394734  0.73696367  0.87970925  1
  O  O311  1  0.73572245  0.25739586  0.36465654  1
  O  O312  1  0.73979732  0.23830675  0.86612913  1
  O  O313  1  0.74326568  0.74522534  0.37762131  1
  O  O314  1  0.74130848  0.74116871  0.87890108  1
  O  O315  1  0.00488210  0.11988229  0.00449111  1
  O  O316  1  0.01077863  0.09610079  0.48038289  1
  O  O317  1  0.00385726  0.61958897  0.00166654  1
  O  O318  1  0.01291971  0.61951743  0.49434372  1
  O  O319  1  0.50717925  0.12681118  0.01048578  1
  O  O320  1  0.51869915  0.12188890  0.48561656  1
  O  O321  1  0.50551063  0.61486771  -0.00418057  1
  O  O322  1  0.50200027  0.62086627  0.50743088  1
  O  O323  1  0.48938576  0.38056470  0.49304293  1
  O  O324  1  0.49471315  0.38094943  0.99389973  1
  O  O325  1  0.49654663  0.86859788  0.47618359  1
  O  O326  1  0.49650840  0.87617862  0.99197139  1
  O  O327  1  1.00158467  0.39375510  0.49995263  1
  O  O328  1  0.99883894  0.38149119  0.98834817  1
  O  O329  1  0.99490802  0.87251955  0.48777717  1
  O  O330  1  0.99157670  0.87843168  0.99811239  1
  O  O331  1  0.48939079  0.49607730  0.38067763  1
  O  O332  1  0.50895180  0.48932089  0.88454078  1
  O  O333  1  0.50698303  0.98151621  0.36822421  1
  O  O334  1  0.49641526  0.99290115  0.88246248  1
  O  O335  1  0.99077740  0.50742399  0.38217917  1
  O  O336  1  1.00446622  0.50062105  0.88507240  1
  O  O337  1  0.99873616  0.98410790  0.37286492  1
  O  O338  1  0.99727689  0.98941087  0.88385636  1
  O  O339  1  0.00468230  0.00627428  0.12196908  1
  O  O340  1  -0.01082107  -0.00873780  0.61003924  1
  O  O341  1  0.00606119  0.50659222  0.11381005  1
  O  O342  1  0.01309431  0.50088712  0.61758673  1
  O  O343  1  0.49709415  0.01583464  0.12874168  1
  O  O344  1  0.50195331  -0.04483145  0.61425205  1
  O  O345  1  0.50664746  0.50061998  0.11227833  1
  O  O346  1  0.50725090  0.50759865  0.61969703  1
  O  O347  1  0.23807915  0.37529792  0.24139690  1
  O  O348  1  0.23737877  0.38551870  0.76379842  1
  O  O349  1  0.24155646  0.87636636  0.24053630  1
  O  O350  1  0.22273697  0.88339398  0.79811027  1
  O  O351  1  0.74464532  0.38421789  0.23754354  1
  O  O352  1  0.74121302  0.39482918  0.75941841  1
  O  O353  1  0.74820375  0.88207665  0.23616696  1
  O  O354  1  0.74590482  0.87834024  0.75030066  1
  O  O355  1  0.25569755  0.12672100  0.25398792  1
  O  O356  1  0.27198021  0.13478845  0.76605115  1
  O  O357  1  0.25989575  0.62098574  0.25289838  1
  O  O358  1  0.26092988  0.62029912  0.75347020  1
  O  O359  1  0.75694530  0.11159981  0.23794655  1
  O  O360  1  0.75890254  0.11219267  0.76499432  1
  O  O361  1  0.75769415  0.62117843  0.25020864  1
  O  O362  1  0.74701172  0.61472333  0.75720819  1
  O  O363  1  0.35530578  0.13848356  0.35988460  1
  O  O364  1  0.37319069  0.12269304  0.87797402  1
  O  O365  1  0.37489072  0.61428771  0.36722329  1
  O  O366  1  0.36745031  0.62573050  0.86256952  1
  O  O367  1  0.86669924  0.13065124  0.35869707  1
  O  O368  1  0.86688768  0.11716118  0.87504151  1
  O  O369  1  0.86915054  0.61752388  0.36071192  1
  O  O370  1  0.86141164  0.62920879  0.86963711  1
  O  O371  1  0.12737425  0.38050586  0.13148964  1
  O  O372  1  0.12147397  0.38742433  0.64390486  1
  O  O373  1  0.12998492  0.88008420  0.12687237  1
  O  O374  1  0.12614441  0.87069865  0.64877406  1
  O  O375  1  0.63036377  0.37962440  0.12615903  1
  O  O376  1  0.62616198  0.38826702  0.62373055  1
  O  O377  1  0.63584045  0.87513739  0.12198477  1
  O  O378  1  0.63806221  0.87025232  0.64175591  1
  O  O379  1  0.11640457  0.25951737  0.25130045  1
  O  O380  1  0.13239605  0.26643247  0.74672778  1
  O  O381  1  0.11660060  0.75274953  0.25528582  1
  O  O382  1  0.11593608  0.74306301  0.76231452  1
  O  O383  1  0.61743889  0.25938522  0.25111372  1
  O  O384  1  0.61661578  0.25259604  0.76391825  1
  O  O385  1  0.62362636  0.74825675  0.25939042  1
  O  O386  1  0.63351557  0.75945575  0.76282744  1
  O  O387  1  0.38288120  0.24693831  0.24420827  1
  O  O388  1  0.38536191  0.24432294  0.74919877  1
  O  O389  1  0.37198015  0.73836789  0.24265032  1
  O  O390  1  0.37474562  0.73397244  0.75345325  1
  O  O391  1  0.88150899  0.24693678  0.24123566  1
  O  O392  1  0.88662555  0.23033805  0.76207170  1
  O  O393  1  0.88528491  0.73846478  0.25462332  1
  O  O394  1  0.89078583  0.74915193  0.75397691  1
  O  O395  1  0.37524126  0.49348925  0.49383296  1
  O  O396  1  0.38689674  0.49428754  1.00381399  1
  O  O397  1  0.39018951  1.03196459  0.48090225  1
  O  O398  1  0.38258210  0.99405781  0.99591822  1
  O  O399  1  0.88543613  0.50784108  0.48789844  1
  O  O400  1  0.88799682  0.48842250  1.00437202  1
  O  O401  1  0.88504763  0.99251351  0.49334469  1
  O  O402  1  0.88248487  0.99198459  0.99789407  1
  O  O403  1  0.11783416  0.00788228  0.00827527  1
  O  O404  1  0.10727798  -0.02369272  0.50372031  1
  O  O405  1  0.11718017  0.50585814  0.00325738  1
  O  O406  1  0.12055276  0.50701933  0.50607333  1
  O  O407  1  0.62317098  0.01675915  -0.00391212  1
  O  O408  1  0.61824995  -0.00351026  0.51016658  1
  O  O409  1  0.61656034  0.50358758  0.00310439  1
  O  O410  1  0.61746226  0.50734395  0.50581949  1
  O  O411  1  0.36753773  0.37185341  0.11833457  1
  O  O412  1  0.37930721  0.37273613  0.61092509  1
  O  O413  1  0.36910006  0.86959501  0.11910392  1
  O  O414  1  0.33205001  0.87644290  0.68184468  1
  O  O415  1  0.87215111  0.36857157  0.11444399  1
  O  O416  1  0.87408844  0.37091086  0.61983311  1
  O  O417  1  0.86805334  0.87769954  0.11644887  1
  O  O418  1  0.86036812  0.86152638  0.62706293  1
  O  O419  1  0.13637221  0.14113045  0.36025004  1
  O  O420  1  0.14231451  0.11600066  0.88434763  1
  O  O421  1  0.12539992  0.63497404  0.38027410  1
  O  O422  1  0.13451246  0.63455813  0.88021850  1
  O  O423  1  0.62657944  0.14511569  0.36281525  1
  O  O424  1  0.63182023  0.13186664  0.88288387  1
  O  O425  1  0.62832073  0.63081929  0.37812369  1
  O  O426  1  0.62973302  0.63303518  0.87735418  1
