# generated using pymatgen
data_V85Zn86O256
_symmetry_space_group_name_H-M   'P 1'
_cell_length_a   16.97202981
_cell_length_b   17.00696874
_cell_length_c   17.02369382
_cell_angle_alpha   90.15700395
_cell_angle_beta   89.99642841
_cell_angle_gamma   90.07010390
_symmetry_Int_Tables_number   1
_chemical_formula_structural   V85Zn86O256
_chemical_formula_sum   'V85 Zn86 O256'
_cell_volume   4913.74418476
_cell_formula_units_Z   1
loop_
 _symmetry_equiv_pos_site_id
 _symmetry_equiv_pos_as_xyz
  1  'x, y, z'
loop_
 _atom_site_type_symbol
 _atom_site_label
 _atom_site_symmetry_multiplicity
 _atom_site_fract_x
 _atom_site_fract_y
 _atom_site_fract_z
 _atom_site_occupancy
  V  V0  1  0.62844390  0.12894717  0.49696156  1
  V  V1  1  0.50032925  0.00133841  0.49697566  1
  V  V2  1  0.62041516  0.87271623  0.75174033  1
  V  V3  1  0.50016359  -0.00280100  -0.00341128  1
  V  V4  1  0.12310036  0.01643695  0.62302234  1
  V  V5  1  0.62748068  0.37772545  0.25230756  1
  V  V6  1  0.49353834  0.49702947  0.00236240  1
  V  V7  1  0.25319709  0.37359242  0.62570858  1
  V  V8  1  0.50054336  0.12639930  0.12586822  1
  V  V9  1  0.87475943  0.87428878  0.49861843  1
  V  V10  1  -0.00151848  0.87393623  0.87797722  1
  V  V11  1  0.10402116  0.36281949  0.75323647  1
  V  V12  1  0.25261900  -0.00012233  0.25414148  1
  V  V13  1  -0.00570815  0.49729399  0.49385632  1
  V  V14  1  0.38193828  0.24949290  0.62729890  1
  V  V15  1  0.37613679  0.37506016  0.49976651  1
  V  V16  1  0.76440001  0.62013600  0.36622813  1
  V  V17  1  0.74937127  0.49951237  0.75195384  1
  V  V18  1  0.24150408  0.74015774  0.49799433  1
  V  V19  1  0.62640316  -0.00107953  0.12490793  1
  V  V20  1  0.87590789  0.75188103  0.11549957  1
  V  V21  1  0.11892514  0.24152591  0.37979733  1
  V  V22  1  0.87546736  0.37891608  0.48643080  1
  V  V23  1  0.12637103  0.37845579  0.26026676  1
  V  V24  1  0.87488460  0.74982415  0.62570770  1
  V  V25  1  0.25346679  0.86980642  0.12660954  1
  V  V26  1  0.87609466  0.12747042  0.24357001  1
  V  V27  1  0.50406402  0.12873425  0.62960386  1
  V  V28  1  0.00300534  0.00050398  0.00204385  1
  V  V29  1  0.37936326  0.63167473  0.74945704  1
  V  V30  1  0.75099777  0.00028447  0.25132839  1
  V  V31  1  0.37605048  0.12576088  0.25476814  1
  V  V32  1  0.74885501  0.12480883  0.87341470  1
  V  V33  1  0.13052663  0.49882243  0.12846493  1
  V  V34  1  0.24979592  -0.00053536  0.75261838  1
  V  V35  1  0.74818709  0.25684933  0.00225285  1
  V  V36  1  0.88858136  0.13142898  0.74624874  1
  V  V37  1  0.49985688  0.37530192  0.37375338  1
  V  V38  1  0.12940286  0.87442532  0.74209477  1
  V  V39  1  0.62021318  0.25056062  0.87067149  1
  V  V40  1  0.25097458  0.74873768  0.00175441  1
  V  V41  1  0.00217962  0.62563236  0.62148709  1
  V  V42  1  0.74841266  0.87472800  0.62330763  1
  V  V43  1  0.00074186  0.75076562  0.74827981  1
  V  V44  1  0.49717782  0.87640069  0.37492793  1
  V  V45  1  0.49811724  0.37729337  0.88003073  1
  V  V46  1  0.12511856  0.61367623  -0.00156952  1
  V  V47  1  0.37574134  0.87105269  0.00261493  1
  V  V48  1  0.25032504  0.62538112  0.87324503  1
  V  V49  1  0.25062916  0.50169941  0.75133899  1
  V  V50  1  0.50165276  0.25239502  0.25268465  1
  V  V51  1  0.62962589  0.00168666  0.62428485  1
  V  V52  1  -0.00064695  0.87584345  0.37505189  1
  V  V53  1  0.88746822  0.49856920  0.87739923  1
  V  V54  1  0.49839745  0.50025760  0.49815614  1
  V  V55  1  0.62566428  0.87358115  0.24899576  1
  V  V56  1  0.37413356  0.12371889  0.75210125  1
  V  V57  1  0.62385184  0.62522974  0.49839207  1
  V  V58  1  0.49192975  0.62895941  0.12653364  1
  V  V59  1  0.75013477  0.62417103  0.87591680  1
  V  V60  1  0.88886473  0.37975641  -0.00523463  1
  V  V61  1  0.25138668  0.36731504  0.11260361  1
  V  V62  1  0.62872764  0.50257247  0.13095737  1
  V  V63  1  0.87547046  -0.00463925  0.87918392  1
  V  V64  1  0.49151585  0.75015836  0.24694064  1
  V  V65  1  0.74627013  0.74747635  0.49893041  1
  V  V66  1  0.12404990  0.50300630  0.62146211  1
  V  V67  1  0.87941117  0.01255910  0.38367917  1
  V  V68  1  0.75458583  0.37074429  0.62658312  1
  V  V69  1  0.61890108  0.37186800  0.74909361  1
  V  V70  1  0.12592929  0.00545047  0.12175392  1
  V  V71  1  0.62588362  0.49870656  0.62356423  1
  V  V72  1  0.61789469  0.74974459  0.87158597  1
  V  V73  1  0.36545736  0.61911724  0.25796516  1
  V  V74  1  0.75590442  0.87440659  0.11860270  1
  V  V75  1  0.12496495  0.87250267  0.25464731  1
  V  V76  1  0.75316029  0.00104707  0.74729453  1
  V  V77  1  -0.00669180  0.75065166  0.24505348  1
  V  V78  1  0.62521625  0.12506206  -0.00040722  1
  V  V79  1  0.74834636  0.25399089  0.49499318  1
  V  V80  1  -0.00215563  0.62031305  0.11674529  1
  V  V81  1  0.74465566  0.13339743  0.37029884  1
  V  V82  1  0.62422609  0.74819689  0.37537760  1
  V  V83  1  0.62491859  0.62668240  0.00124143  1
  V  V84  1  0.50018799  0.62913840  0.62868146  1
  Zn  Zn85  1  0.36294711  0.87478689  0.51391905  1
  Zn  Zn86  1  0.37140873  0.49695486  0.87919269  1
  Zn  Zn87  1  0.75399747  0.38023905  0.12709010  1
  Zn  Zn88  1  0.91893008  0.26785290  0.65184891  1
  Zn  Zn89  1  0.78687119  0.50090875  0.25353105  1
  Zn  Zn90  1  0.37049877  0.25495163  0.12205891  1
  Zn  Zn91  1  0.87641533  0.62461287  0.75176575  1
  Zn  Zn92  1  0.35877322  0.49909120  0.37468833  1
  Zn  Zn93  1  0.12359162  0.74938201  0.87443801  1
  Zn  Zn94  1  0.00768426  0.12948004  0.12378375  1
  Zn  Zn95  1  0.12131094  0.71602522  0.38439270  1
  Zn  Zn96  1  0.24757206  0.23670104  0.50149297  1
  Zn  Zn97  1  0.75300605  0.75588749  -0.00452609  1
  Zn  Zn98  1  0.37116623  -0.00103307  0.38133149  1
  Zn  Zn99  1  0.36333264  0.00550127  0.88049396  1
  Zn  Zn100  1  0.36436371  0.75556613  0.62724936  1
  Zn  Zn101  1  -0.00339131  0.25407205  0.25452160  1
  Zn  Zn102  1  0.01045070  0.01279057  0.50598911  1
  Zn  Zn103  1  0.88016543  0.25460728  0.12475403  1
  Zn  Zn104  1  0.18233828  0.56411224  0.32059067  1
  Zn  Zn105  1  0.24474441  0.12155454  0.38420169  1
  Zn  Zn106  1  0.49315434  0.86932185  0.87067989  1
  Zn  Zn107  1  0.18834232  0.19144835  0.19514083  1
  Zn  Zn108  1  0.19350263  0.19009898  0.69586259  1
  Zn  Zn109  1  0.18385312  0.68933426  0.18658155  1
  Zn  Zn110  1  0.18854341  0.69060147  0.68187649  1
  Zn  Zn111  1  0.68646731  0.19099995  0.18533874  1
  Zn  Zn112  1  0.69301099  0.18806646  0.68693040  1
  Zn  Zn113  1  0.68777005  0.68890154  0.18912390  1
  Zn  Zn114  1  0.68593752  0.68769216  0.68811292  1
  Zn  Zn115  1  0.30478458  0.31353775  0.31108163  1
  Zn  Zn116  1  0.31984749  0.31243558  0.80600213  1
  Zn  Zn117  1  0.30812018  0.80535987  0.32439129  1
  Zn  Zn118  1  0.31027250  0.81393349  0.81564207  1
  Zn  Zn119  1  0.81231163  0.31314925  0.31029802  1
  Zn  Zn120  1  0.81224830  0.31308421  0.81585908  1
  Zn  Zn121  1  0.81265201  0.81153664  0.31084208  1
  Zn  Zn122  1  0.81080403  0.81168889  0.81008371  1
  Zn  Zn123  1  0.18424568  0.43288663  0.44267307  1
  Zn  Zn124  1  0.19183386  0.31797600  0.92326760  1
  Zn  Zn125  1  0.18740161  0.93252062  0.44418850  1
  Zn  Zn126  1  0.18491867  0.93809652  0.93430351  1
  Zn  Zn127  1  0.68800211  0.44182670  0.43400664  1
  Zn  Zn128  1  0.68574865  0.44028039  0.93944683  1
  Zn  Zn129  1  0.68840942  0.93931767  0.43598450  1
  Zn  Zn130  1  0.68789018  0.93720300  0.93551307  1
  Zn  Zn131  1  0.31632112  0.06101983  0.06879374  1
  Zn  Zn132  1  0.30917716  0.05760817  0.56948030  1
  Zn  Zn133  1  0.30971817  0.55986956  0.06637278  1
  Zn  Zn134  1  0.31287133  0.56577113  0.56029980  1
  Zn  Zn135  1  0.81118645  0.06072600  0.06091162  1
  Zn  Zn136  1  0.83598993  0.07858598  0.55021906  1
  Zn  Zn137  1  0.81415217  0.56278897  0.06178821  1
  Zn  Zn138  1  0.81154943  0.56349806  0.56174936  1
  Zn  Zn139  1  0.43289399  0.43933730  0.18595738  1
  Zn  Zn140  1  0.43761315  0.44283627  0.68797014  1
  Zn  Zn141  1  0.43732447  0.93835759  0.18659409  1
  Zn  Zn142  1  0.43609649  0.94091540  0.68677044  1
  Zn  Zn143  1  0.94546128  0.43318422  0.18064947  1
  Zn  Zn144  1  0.93425091  0.44476448  0.68815340  1
  Zn  Zn145  1  0.93581345  0.93970456  0.18864972  1
  Zn  Zn146  1  0.94120910  0.94015353  0.68805077  1
  Zn  Zn147  1  0.06099132  0.06317637  0.31081795  1
  Zn  Zn148  1  0.06557319  0.06381942  0.81483948  1
  Zn  Zn149  1  -0.01578398  0.56101196  0.30442251  1
  Zn  Zn150  1  0.06841218  0.56166747  0.80840034  1
  Zn  Zn151  1  0.56416261  0.06284566  0.31141453  1
  Zn  Zn152  1  0.56297798  0.05920365  0.81203865  1
  Zn  Zn153  1  0.55877695  0.56349613  0.31441666  1
  Zn  Zn154  1  0.56302670  0.56020834  0.81255340  1
  Zn  Zn155  1  0.43563571  0.18920552  0.43887082  1
  Zn  Zn156  1  0.43864081  0.18629212  0.93432435  1
  Zn  Zn157  1  0.43234797  0.68952793  0.44032594  1
  Zn  Zn158  1  0.43520768  0.68446256  0.93833267  1
  Zn  Zn159  1  0.96050553  0.20053299  0.47632954  1
  Zn  Zn160  1  0.92461613  0.17497765  0.94982257  1
  Zn  Zn161  1  0.94188138  0.68909958  0.43863982  1
  Zn  Zn162  1  0.93736349  0.68851740  0.93814973  1
  Zn  Zn163  1  0.06166487  0.31121299  0.06672765  1
  Zn  Zn164  1  0.06850743  0.31457977  0.56402806  1
  Zn  Zn165  1  0.06578975  0.81505039  0.06105469  1
  Zn  Zn166  1  0.06619685  0.81548293  0.56026542  1
  Zn  Zn167  1  0.56235163  0.31383566  0.06576340  1
  Zn  Zn168  1  0.56504665  0.31238920  0.55919583  1
  Zn  Zn169  1  0.56595931  0.81032441  0.06225264  1
  Zn  Zn170  1  0.53557924  0.82770103  0.57929554  1
  O  O171  1  0.12782216  0.10813568  0.13690769  1
  O  O172  1  0.12933689  0.11476743  0.63234063  1
  O  O173  1  0.12200099  0.61940066  0.11785987  1
  O  O174  1  0.11445821  0.61395675  0.62821572  1
  O  O175  1  0.62037897  0.11954502  0.11875976  1
  O  O176  1  0.62200312  0.12247118  0.61873329  1
  O  O177  1  0.61610582  0.61962126  0.12329007  1
  O  O178  1  0.62251112  0.61597596  0.62032700  1
  O  O179  1  0.38325501  0.37576304  0.38006496  1
  O  O180  1  0.39535599  0.38020078  0.86312608  1
  O  O181  1  0.39084022  0.87670298  0.37251391  1
  O  O182  1  0.37605926  0.87934007  0.88837311  1
  O  O183  1  0.86921417  0.37929672  0.38812473  1
  O  O184  1  0.86885854  0.38417514  0.88603995  1
  O  O185  1  0.88167663  0.88060588  0.37989239  1
  O  O186  1  0.88488445  0.88550156  0.86447390  1
  O  O187  1  0.24989747  -0.00259064  0.36282617  1
  O  O188  1  0.24636633  0.00183424  0.86115117  1
  O  O189  1  0.24710473  0.49989731  0.38146809  1
  O  O190  1  0.25197110  0.50782037  0.85767720  1
  O  O191  1  0.75633927  0.00987988  0.36986097  1
  O  O192  1  0.75735961  0.00343309  0.86975064  1
  O  O193  1  0.74945546  0.51656373  0.37208644  1
  O  O194  1  0.75146794  0.50936793  0.87149355  1
  O  O195  1  0.23838402  0.49019689  0.12256422  1
  O  O196  1  0.24220398  0.49716844  0.62950813  1
  O  O197  1  0.24531380  0.99098441  0.13287127  1
  O  O198  1  0.23731471  0.99828902  0.63968758  1
  O  O199  1  0.73965313  0.50488785  0.13195988  1
  O  O200  1  0.74567932  0.49047191  0.63009317  1
  O  O201  1  0.74602288  0.99291814  0.13006737  1
  O  O202  1  0.74582913  0.99332082  0.62893098  1
  O  O203  1  0.02104241  0.36939285  0.23925093  1
  O  O204  1  0.00282342  0.36717848  0.73515943  1
  O  O205  1  0.00609924  0.87111039  0.25510626  1
  O  O206  1  0.00705949  0.87028952  0.75801949  1
  O  O207  1  0.50349352  0.37045342  0.25488795  1
  O  O208  1  0.51419480  0.38349030  0.75713707  1
  O  O209  1  0.50437250  0.86919899  0.25390503  1
  O  O210  1  0.51714843  0.88729018  0.75515432  1
  O  O211  1  0.49896848  0.13404827  0.24689423  1
  O  O212  1  0.49745032  0.11426349  0.73387478  1
  O  O213  1  0.49328232  0.63286093  0.24397517  1
  O  O214  1  0.49040199  0.61317708  0.74211034  1
  O  O215  1  0.98638641  0.12421821  0.24736872  1
  O  O216  1  0.98727451  0.12597031  0.75875534  1
  O  O217  1  1.00217813  0.64377580  0.22512298  1
  O  O218  1  0.99984365  0.63169378  0.73878202  1
  O  O219  1  0.35421192  0.21035051  0.00968839  1
  O  O220  1  0.37687210  0.25855651  0.51127472  1
  O  O221  1  0.36379844  0.75821383  -0.00316454  1
  O  O222  1  0.36330400  0.75267902  0.50173222  1
  O  O223  1  0.86628720  0.26225417  -0.00655586  1
  O  O224  1  0.85905942  0.26859859  0.49910084  1
  O  O225  1  0.87246470  0.75356831  0.01024315  1
  O  O226  1  0.86951272  0.75903980  0.50400499  1
  O  O227  1  0.13352785  0.26541652  0.48210633  1
  O  O228  1  0.11441537  0.24738903  0.97929694  1
  O  O229  1  0.13193495  0.74967505  0.49719855  1
  O  O230  1  0.13881051  0.74550101  0.99914663  1
  O  O231  1  0.63862466  0.24581548  0.50090834  1
  O  O232  1  0.63093370  0.24560545  0.99375246  1
  O  O233  1  0.62942709  0.74271771  0.49318553  1
  O  O234  1  0.62947493  0.74428182  0.99043209  1
  O  O235  1  0.49410388  0.24598168  0.13201111  1
  O  O236  1  0.49625696  0.23852974  0.61662972  1
  O  O237  1  0.50597343  0.74069962  0.13488878  1
  O  O238  1  0.51282189  0.72803665  0.62649079  1
  O  O239  1  0.99693359  0.24328150  0.12925249  1
  O  O240  1  0.99548684  0.23323278  0.58167075  1
  O  O241  1  0.99285960  0.75251769  0.12664670  1
  O  O242  1  0.99567715  0.74296475  0.62627948  1
  O  O243  1  0.01405325  0.24542575  0.38098403  1
  O  O244  1  0.07242077  0.20733356  0.91272328  1
  O  O245  1  -0.00236241  0.76191283  0.36500654  1
  O  O246  1  -0.00102359  0.75847580  0.86850010  1
  O  O247  1  0.49640104  0.26201534  0.36440865  1
  O  O248  1  0.51294604  0.26015706  0.88532535  1
  O  O249  1  0.50473883  0.75867159  0.36775194  1
  O  O250  1  0.51320988  0.74982994  0.88006836  1
  O  O251  1  0.26632260  0.12516290  0.49472863  1
  O  O252  1  0.29458739  0.15345934  1.00207290  1
  O  O253  1  0.25183906  0.63805550  0.49976092  1
  O  O254  1  0.24627859  0.63144908  0.99632095  1
  O  O255  1  0.75016521  0.13599758  0.49062132  1
  O  O256  1  0.74580905  0.13344713  0.99326410  1
  O  O257  1  0.74518928  0.62885445  0.49026453  1
  O  O258  1  0.74307366  0.62481104  0.98959534  1
  O  O259  1  0.24249534  0.37007934  0.01331633  1
  O  O260  1  0.25814310  0.37785003  0.51675515  1
  O  O261  1  0.25549027  0.86958614  0.00647278  1
  O  O262  1  0.25387215  0.85901068  0.49188869  1
  O  O263  1  0.74975522  0.36639782  0.00118259  1
  O  O264  1  0.75563858  0.37546439  0.50595439  1
  O  O265  1  0.74411061  0.87555614  0.01447462  1
  O  O266  1  0.75153627  0.86454879  0.50344369  1
  O  O267  1  0.12333252  0.48766071  0.24005011  1
  O  O268  1  0.13132407  0.49181044  0.73783703  1
  O  O269  1  0.13337245  0.99014758  0.24414157  1
  O  O270  1  0.12992806  0.99643199  0.74461296  1
  O  O271  1  0.61589977  0.49258050  0.24038883  1
  O  O272  1  0.63131146  0.49078460  0.74486007  1
  O  O273  1  0.63022918  0.99464745  0.24330269  1
  O  O274  1  0.63419235  0.99384188  0.74549206  1
  O  O275  1  0.36715023  0.00468681  0.25188747  1
  O  O276  1  0.36686861  0.00445425  0.74885023  1
  O  O277  1  0.37859502  0.51621427  0.25210468  1
  O  O278  1  0.36513118  0.51164606  0.74716243  1
  O  O279  1  0.86912667  0.00835787  0.25717958  1
  O  O280  1  0.87306073  0.00922361  0.75979305  1
  O  O281  1  0.89852968  0.50549234  0.25122101  1
  O  O282  1  0.86576941  0.50198287  0.76062941  1
  O  O283  1  0.12637338  0.36986164  0.36299135  1
  O  O284  1  0.12267373  0.37931939  0.85011353  1
  O  O285  1  0.11319894  0.88070133  0.36448722  1
  O  O286  1  0.11349115  0.87395006  0.86497194  1
  O  O287  1  0.61427954  0.38354479  0.36306608  1
  O  O288  1  0.61986485  0.36956124  0.86794001  1
  O  O289  1  0.61904612  0.87028366  0.36714676  1
  O  O290  1  0.62732522  0.86572871  0.86832086  1
  O  O291  1  0.38438286  0.12063274  0.14331696  1
  O  O292  1  0.38650809  0.13017272  0.63057601  1
  O  O293  1  0.38609371  0.62057097  0.13555354  1
  O  O294  1  0.38502077  0.62668507  0.63276363  1
  O  O295  1  0.87112790  0.12485537  0.13511533  1
  O  O296  1  0.87078574  0.12286946  0.64686435  1
  O  O297  1  0.88676525  0.63584466  0.11313348  1
  O  O298  1  0.88247922  0.63083848  0.62746770  1
  O  O299  1  0.24749818  0.26240263  0.12844352  1
  O  O300  1  0.26196475  0.25964423  0.62447026  1
  O  O301  1  0.24514961  0.76229084  0.11724772  1
  O  O302  1  0.24861115  0.75098883  0.60943980  1
  O  O303  1  0.75199225  0.25300772  0.11149823  1
  O  O304  1  0.74610384  0.26286766  0.61562490  1
  O  O305  1  0.75817726  0.75661027  0.12539632  1
  O  O306  1  0.75460326  0.75418581  0.61955921  1
  O  O307  1  0.23992660  0.24502915  0.37598778  1
  O  O308  1  0.25517132  0.24896523  0.86459251  1
  O  O309  1  0.23714805  0.74433546  0.38440052  1
  O  O310  1  0.24761314  0.74303885  0.88527525  1
  O  O311  1  0.75022466  0.24370120  0.38113707  1
  O  O312  1  0.73857411  0.24665521  0.88370962  1
  O  O313  1  0.74520939  0.74081974  0.37803797  1
  O  O314  1  0.74389481  0.74021393  0.87530397  1
  O  O315  1  -0.00580615  0.10640639  0.00594234  1
  O  O316  1  -0.06596892  0.09014200  0.47749121  1
  O  O317  1  0.01425806  0.63815385  0.00798230  1
  O  O318  1  -0.00969877  0.61061987  0.51067796  1
  O  O319  1  0.50561836  0.11564923  0.00534161  1
  O  O320  1  0.50689139  0.11835035  0.50398776  1
  O  O321  1  0.50448312  0.61979374  0.00898633  1
  O  O322  1  0.50386631  0.61881487  0.50689931  1
  O  O323  1  0.49781826  0.37869140  0.49131533  1
  O  O324  1  0.50759050  0.38513669  0.99264161  1
  O  O325  1  0.51235333  0.88846298  0.48502164  1
  O  O326  1  0.49224241  0.88054460  1.00417601  1
  O  O327  1  0.98149767  0.38495994  0.50913689  1
  O  O328  1  0.98641239  0.37155610  0.99765845  1
  O  O329  1  0.99004637  0.87706694  0.49147961  1
  O  O330  1  1.00508370  0.88353514  0.98719405  1
  O  O331  1  0.49556037  0.48969305  0.38065308  1
  O  O332  1  0.50525750  0.49356060  0.88745988  1
  O  O333  1  0.50192518  0.99395399  0.38114234  1
  O  O334  1  0.50448198  0.99538273  0.89068331  1
  O  O335  1  0.99859207  0.49484641  0.39712465  1
  O  O336  1  0.98571253  0.50898499  0.86823076  1
  O  O337  1  0.99561132  0.98788360  0.37295840  1
  O  O338  1  0.99550105  0.99354979  0.88182950  1
  O  O339  1  0.00875206  -0.00484861  0.11753243  1
  O  O340  1  0.01596367  0.00036993  0.62633635  1
  O  O341  1  0.01363783  0.51355968  0.12188363  1
  O  O342  1  0.00487613  0.50910898  0.62278473  1
  O  O343  1  0.50662946  0.00401323  0.11637162  1
  O  O344  1  0.50953444  0.00966485  0.61368076  1
  O  O345  1  0.50709948  0.50779841  0.11956026  1
  O  O346  1  0.50714816  0.50599979  0.61772271  1
  O  O347  1  0.23225201  0.37130252  0.23898941  1
  O  O348  1  0.25749909  0.38722591  0.73563200  1
  O  O349  1  0.24574690  0.87899146  0.24539583  1
  O  O350  1  0.23926529  0.88267976  0.75664090  1
  O  O351  1  0.74147356  0.38343236  0.24947966  1
  O  O352  1  0.74093071  0.37818232  0.74409802  1
  O  O353  1  0.74485553  0.88026625  0.24297789  1
  O  O354  1  0.74284775  0.88075976  0.74305638  1
  O  O355  1  0.25987235  0.11409979  0.25122326  1
  O  O356  1  0.26583036  0.11577205  0.74405258  1
  O  O357  1  0.26198028  0.62992926  0.24737252  1
  O  O358  1  0.25488006  0.61917206  0.75168445  1
  O  O359  1  0.74993185  0.12131295  0.25250305  1
  O  O360  1  0.75417603  0.11937304  0.75725812  1
  O  O361  1  0.74868532  0.62558319  0.26392459  1
  O  O362  1  0.74926621  0.61911843  0.76077170  1
  O  O363  1  0.38096014  0.12015433  0.36198748  1
  O  O364  1  0.39405405  0.11877880  0.85456700  1
  O  O365  1  0.38127098  0.62275103  0.36001004  1
  O  O366  1  0.36962806  0.62065059  0.86693467  1
  O  O367  1  0.85667157  0.12463073  0.35563915  1
  O  O368  1  0.86900269  0.11718036  0.86684348  1
  O  O369  1  0.86494936  0.62996118  0.37557129  1
  O  O370  1  0.86508407  0.61822030  0.87707845  1
  O  O371  1  0.13245280  0.38210371  0.12626951  1
  O  O372  1  0.13514894  0.38244850  0.63299376  1
  O  O373  1  0.13466960  0.88346394  0.13401281  1
  O  O374  1  0.11803940  0.88167480  0.63997784  1
  O  O375  1  0.62582013  0.38641464  0.13403960  1
  O  O376  1  0.63123798  0.37855488  0.63146086  1
  O  O377  1  0.63325561  0.87878825  0.13092517  1
  O  O378  1  0.62782294  0.88061356  0.63300517  1
  O  O379  1  0.12200288  0.25720393  0.26407062  1
  O  O380  1  0.12495138  0.26555421  0.74120831  1
  O  O381  1  0.11422013  0.76427698  0.24407681  1
  O  O382  1  0.11951420  0.75757451  0.75072429  1
  O  O383  1  0.61319515  0.26412792  0.24081686  1
  O  O384  1  0.63165588  0.25877460  0.76082618  1
  O  O385  1  0.61437748  0.75419387  0.25563088  1
  O  O386  1  0.63128514  0.76086193  0.75923953  1
  O  O387  1  0.38443449  0.24239156  0.24829625  1
  O  O388  1  0.37896420  0.24057558  0.73314963  1
  O  O389  1  0.38619107  0.74154262  0.25555593  1
  O  O390  1  0.36760129  0.73593992  0.74990149  1
  O  O391  1  0.87507091  0.24313749  0.24610450  1
  O  O392  1  0.87270105  0.23826547  0.75365060  1
  O  O393  1  0.88641329  0.75785377  0.23744761  1
  O  O394  1  0.88183111  0.74873225  0.74251197  1
  O  O395  1  0.38251697  0.49180977  0.50143406  1
  O  O396  1  0.38943931  0.50641581  0.99944584  1
  O  O397  1  0.39036261  0.99538165  0.50157591  1
  O  O398  1  0.38328357  0.99155184  0.99983485  1
  O  O399  1  0.88091324  0.48850903  0.50813432  1
  O  O400  1  0.87004356  0.48714645  0.99223897  1
  O  O401  1  0.85418498  0.97540244  0.49650998  1
  O  O402  1  0.88042874  1.00256187  0.98573423  1
  O  O403  1  0.11828021  -0.00621912  0.01088367  1
  O  O404  1  0.12649796  -0.00190614  0.51727940  1
  O  O405  1  0.12764212  0.51451366  0.00828793  1
  O  O406  1  0.10587121  0.48446744  0.51454326  1
  O  O407  1  0.61984694  0.00465618  0.00489509  1
  O  O408  1  0.62081791  0.00853552  0.50389859  1
  O  O409  1  0.61777594  0.50662389  0.01167468  1
  O  O410  1  0.61909782  0.50500785  0.50436063  1
  O  O411  1  0.35769431  0.37553910  0.12903519  1
  O  O412  1  0.37491030  0.36827727  0.62175115  1
  O  O413  1  0.36444049  0.88065265  0.11513742  1
  O  O414  1  0.41944287  0.85786482  0.61439481  1
  O  O415  1  0.87213954  0.37616370  0.10707442  1
  O  O416  1  0.86338565  0.37276805  0.62602613  1
  O  O417  1  0.86419844  0.86935684  0.12952250  1
  O  O418  1  0.87036834  0.87003706  0.61822348  1
  O  O419  1  0.12556892  0.13590669  0.37203921  1
  O  O420  1  0.11683825  0.14740693  0.88787803  1
  O  O421  1  0.08784435  0.61635094  0.34766064  1
  O  O422  1  0.13180138  0.62650549  0.88162939  1
  O  O423  1  0.63762914  0.12037928  0.37968788  1
  O  O424  1  0.62713760  0.13257169  0.87869176  1
  O  O425  1  0.62864254  0.63025614  0.38037529  1
  O  O426  1  0.63112871  0.63111699  0.87817071  1
