# generated using pymatgen
data_V85Zn86O256
_symmetry_space_group_name_H-M   'P 1'
_cell_length_a   16.95638390
_cell_length_b   16.96118932
_cell_length_c   16.95313561
_cell_angle_alpha   89.93692704
_cell_angle_beta   89.99736120
_cell_angle_gamma   90.08898434
_symmetry_Int_Tables_number   1
_chemical_formula_structural   V85Zn86O256
_chemical_formula_sum   'V85 Zn86 O256'
_cell_volume   4875.72037683
_cell_formula_units_Z   1
loop_
 _symmetry_equiv_pos_site_id
 _symmetry_equiv_pos_as_xyz
  1  'x, y, z'
loop_
 _atom_site_type_symbol
 _atom_site_label
 _atom_site_symmetry_multiplicity
 _atom_site_fract_x
 _atom_site_fract_y
 _atom_site_fract_z
 _atom_site_occupancy
  V  V0  1  0.00610525  0.49924399  0.00308322  1
  V  V1  1  0.87600586  0.49805730  0.87334520  1
  V  V2  1  -0.00264329  0.62683404  0.12671121  1
  V  V3  1  0.00477326  0.36776923  0.87257607  1
  V  V4  1  0.26481712  0.62467742  0.87388682  1
  V  V5  1  0.48845523  -0.00816551  0.50095664  1
  V  V6  1  0.73375026  0.74699532  0.49894973  1
  V  V7  1  0.12762964  0.38626090  0.23742825  1
  V  V8  1  0.63104497  0.37853304  0.24381305  1
  V  V9  1  0.50473560  0.12608999  0.61888290  1
  V  V10  1  0.12691029  0.50363586  0.62206517  1
  V  V11  1  0.24952298  -0.00120404  0.74991529  1
  V  V12  1  0.00106330  0.37659148  0.37230094  1
  V  V13  1  0.37172175  0.00344161  0.87425750  1
  V  V14  1  0.25962504  0.50407259  0.75052507  1
  V  V15  1  0.62946493  0.50411147  0.11843115  1
  V  V16  1  0.00294459  0.74854286  0.74861475  1
  V  V17  1  0.24705805  0.87756901  0.13977653  1
  V  V18  1  0.26239957  0.38416676  0.12262164  1
  V  V19  1  0.62604626  0.37401549  0.74808183  1
  V  V20  1  0.50085837  0.24960608  0.74859962  1
  V  V21  1  0.74896800  -0.00249387  0.75125877  1
  V  V22  1  0.37301622  0.75037598  0.62276202  1
  V  V23  1  0.49578096  0.37408978  0.88121453  1
  V  V24  1  0.62940412  0.88057464  0.26446079  1
  V  V25  1  0.87750573  0.62360511  0.74947630  1
  V  V26  1  0.12332425  0.13347830  -0.00590101  1
  V  V27  1  0.12285230  -0.00151434  0.13259032  1
  V  V28  1  0.87732855  -0.00285473  0.87916059  1
  V  V29  1  0.50622888  0.74708162  0.26221302  1
  V  V30  1  0.87658370  0.12399076  0.74914638  1
  V  V31  1  0.49383781  0.12759546  0.12984616  1
  V  V32  1  0.87308226  0.37377453  0.49569174  1
  V  V33  1  0.37750518  0.25055502  0.62249781  1
  V  V34  1  0.50298569  0.37788146  0.37297004  1
  V  V35  1  0.00292038  -0.00016286  0.49874888  1
  V  V36  1  0.37035495  0.87353436  0.00207098  1
  V  V37  1  0.12815678  0.62110808  0.00379904  1
  V  V38  1  0.50444131  0.50788839  0.49665058  1
  V  V39  1  0.49207987  0.50049851  0.00479250  1
  V  V40  1  0.25307006  0.87542394  0.61360545  1
  V  V41  1  -0.00834054  0.12761631  0.12303497  1
  V  V42  1  0.36438382  0.00482584  0.36222020  1
  V  V43  1  0.73973264  0.63273112  0.87857047  1
  V  V44  1  0.87599950  0.87094662  0.49557742  1
  V  V45  1  0.12820419  0.24469905  0.37033240  1
  V  V46  1  0.36182275  0.50404498  0.37100903  1
  V  V47  1  0.26612555  0.25373691  -0.00103893  1
  V  V48  1  0.12689909  0.36859685  0.75298327  1
  V  V49  1  -0.00784589  0.74966678  0.24696579  1
  V  V50  1  0.12779452  0.74795483  0.87611614  1
  V  V51  1  0.62609547  0.50556412  0.61878929  1
  V  V52  1  0.49602751  0.24898694  0.24731796  1
  V  V53  1  0.62464229  0.00198601  0.62263172  1
  V  V54  1  0.49915072  0.74770382  0.75214075  1
  V  V55  1  0.62741149  0.24991702  0.87453160  1
  V  V56  1  0.00348789  0.62431774  0.62230853  1
  V  V57  1  0.37572787  0.37593414  0.49699131  1
  V  V58  1  0.87305644  0.37024941  0.00929820  1
  V  V59  1  -0.00931097  0.25215300  0.24383830  1
  V  V60  1  0.00366747  0.50385212  0.49937776  1
  V  V61  1  0.25164040  0.37482081  0.62439352  1
  V  V62  1  0.50471782  0.87449436  0.87391915  1
  V  V63  1  0.86368773  0.11851768  0.25330004  1
  V  V64  1  0.63165332  0.00012820  0.13101810  1
  V  V65  1  0.75031769  0.12559468  0.87592880  1
  V  V66  1  0.49388068  0.62281794  0.63007833  1
  V  V67  1  0.74469123  0.62766104  0.38271861  1
  V  V68  1  0.87621706  0.74814899  0.62400605  1
  V  V69  1  0.12601463  0.73722672  0.37219239  1
  V  V70  1  0.25039589  0.24418484  0.49278696  1
  V  V71  1  0.75090817  0.49841458  0.74740994  1
  V  V72  1  0.12689923  0.87323010  0.75003049  1
  V  V73  1  0.86831650  0.86355227  0.00565804  1
  V  V74  1  0.62625156  0.12621652  0.00172354  1
  V  V75  1  0.35736275  0.62595354  0.25367767  1
  V  V76  1  0.75903604  0.50600546  0.24652398  1
  V  V77  1  0.87749940  0.24698673  0.62331167  1
  V  V78  1  0.63077595  0.24000118  0.37997759  1
  V  V79  1  0.75291150  0.25438605  0.01376647  1
  V  V80  1  0.24507307  0.73286386  0.49605781  1
  V  V81  1  0.49909074  0.00288677  0.00149242  1
  V  V82  1  0.74924406  0.87273773  0.62604538  1
  V  V83  1  0.00731156  0.87560579  0.36820124  1
  V  V84  1  0.74989147  0.37177693  0.61990974  1
  Zn  Zn85  1  0.37827463  0.50037461  0.87682898  1
  Zn  Zn86  1  0.37396325  0.12689127  0.74919729  1
  Zn  Zn87  1  0.50319649  0.63294371  0.12513092  1
  Zn  Zn88  1  0.00731805  0.24504716  0.75070886  1
  Zn  Zn89  1  0.24505248  0.03575465  0.25524489  1
  Zn  Zn90  1  0.00234657  -0.00345403  0.00202647  1
  Zn  Zn91  1  0.00434301  0.12315096  0.62367652  1
  Zn  Zn92  1  0.33076543  0.19647311  0.18077446  1
  Zn  Zn93  1  0.24223807  0.13740320  0.86723039  1
  Zn  Zn94  1  0.86351177  0.00613921  0.37613553  1
  Zn  Zn95  1  0.25410693  0.74891079  0.00142240  1
  Zn  Zn96  1  0.00067078  0.87184561  0.87873205  1
  Zn  Zn97  1  0.88061590  0.50807544  0.36864318  1
  Zn  Zn98  1  0.67372113  0.68981252  0.03527171  1
  Zn  Zn99  1  0.74167456  0.86284185  0.12427252  1
  Zn  Zn100  1  0.75162489  0.21982012  0.48940542  1
  Zn  Zn101  1  0.12594446  0.00118937  0.62278694  1
  Zn  Zn102  1  0.12782586  0.12178767  0.49549253  1
  Zn  Zn103  1  0.49354079  0.86959462  0.38574319  1
  Zn  Zn104  1  0.37166244  0.75026342  0.13202341  1
  Zn  Zn105  1  0.62765463  0.86867337  0.75538234  1
  Zn  Zn106  1  0.85395525  0.73666264  0.12849210  1
  Zn  Zn107  1  0.16869719  0.19753144  0.17683968  1
  Zn  Zn108  1  0.18881844  0.18422147  0.67956271  1
  Zn  Zn109  1  0.18083105  0.69491718  0.18681620  1
  Zn  Zn110  1  0.19108374  0.68569748  0.68862304  1
  Zn  Zn111  1  0.68013206  0.18856478  0.19131886  1
  Zn  Zn112  1  0.69069016  0.18644705  0.68566424  1
  Zn  Zn113  1  0.68322184  0.68545102  0.20306860  1
  Zn  Zn114  1  0.68619440  0.68571795  0.68967789  1
  Zn  Zn115  1  0.30967964  0.32045280  0.31157547  1
  Zn  Zn116  1  0.31335675  0.31343131  0.81249699  1
  Zn  Zn117  1  0.31745139  0.81600421  0.32307529  1
  Zn  Zn118  1  0.31696556  0.81086806  0.80999169  1
  Zn  Zn119  1  0.81078299  0.31411161  0.30973158  1
  Zn  Zn120  1  0.81427158  0.31138181  0.81311782  1
  Zn  Zn121  1  0.81219157  0.80857499  0.31380291  1
  Zn  Zn122  1  0.81431259  0.81146564  0.81387713  1
  Zn  Zn123  1  0.18354384  0.43029394  0.43562556  1
  Zn  Zn124  1  0.19195923  0.43561489  0.93757198  1
  Zn  Zn125  1  0.18789275  0.93532352  0.43110804  1
  Zn  Zn126  1  0.18562057  0.94003732  0.94102042  1
  Zn  Zn127  1  0.68983251  0.43839568  0.43201705  1
  Zn  Zn128  1  0.68831339  0.43634404  0.93697868  1
  Zn  Zn129  1  0.68772018  0.94732937  0.44627092  1
  Zn  Zn130  1  0.68785705  0.93743778  0.94207360  1
  Zn  Zn131  1  0.30597751  0.05920026  0.06086273  1
  Zn  Zn132  1  0.31470008  0.06523932  0.56390684  1
  Zn  Zn133  1  0.31557527  0.56482199  0.06605009  1
  Zn  Zn134  1  0.31549937  0.56068318  0.55991427  1
  Zn  Zn135  1  0.81144757  0.06165186  0.06233583  1
  Zn  Zn136  1  0.81887228  0.05456710  0.56581513  1
  Zn  Zn137  1  0.81567616  0.55834284  0.05872143  1
  Zn  Zn138  1  0.81544493  0.56241035  0.55883284  1
  Zn  Zn139  1  0.43827885  0.44153724  0.19002738  1
  Zn  Zn140  1  0.44004400  0.43440624  0.68742400  1
  Zn  Zn141  1  0.44052764  0.93703300  0.19259377  1
  Zn  Zn142  1  0.43515852  0.93418221  0.68754817  1
  Zn  Zn143  1  0.94095363  0.43960370  0.18412694  1
  Zn  Zn144  1  0.93930263  0.43391067  0.68534224  1
  Zn  Zn145  1  0.93226857  0.93841197  0.18776804  1
  Zn  Zn146  1  0.93905005  0.93495919  0.68730785  1
  Zn  Zn147  1  0.05373835  0.06415605  0.31133530  1
  Zn  Zn148  1  0.06110172  0.06096138  0.81106054  1
  Zn  Zn149  1  0.06449097  0.56411007  0.30973054  1
  Zn  Zn150  1  0.06884285  0.55982049  0.81247462  1
  Zn  Zn151  1  0.55792172  0.06136151  0.31535975  1
  Zn  Zn152  1  0.56225830  0.06236599  0.80974267  1
  Zn  Zn153  1  0.56704741  0.56360504  0.31268100  1
  Zn  Zn154  1  0.56086963  0.55999095  0.81095869  1
  Zn  Zn155  1  0.43940480  0.18464861  0.43433177  1
  Zn  Zn156  1  0.43942023  0.18671213  0.93749266  1
  Zn  Zn157  1  0.43161396  0.68618573  0.43877864  1
  Zn  Zn158  1  0.48189939  0.70713017  0.95954887  1
  Zn  Zn159  1  0.94014134  0.18865339  0.43331106  1
  Zn  Zn160  1  0.93496002  0.18805217  0.93804439  1
  Zn  Zn161  1  0.93290714  0.68515281  0.43246296  1
  Zn  Zn162  1  0.93809550  0.68485020  0.93691205  1
  Zn  Zn163  1  0.06158428  0.31260071  0.05999676  1
  Zn  Zn164  1  0.06476447  0.31424388  0.56064008  1
  Zn  Zn165  1  0.06160814  0.81375012  0.06181591  1
  Zn  Zn166  1  0.06721069  0.81307866  0.55979201  1
  Zn  Zn167  1  0.56418088  0.31364250  0.06365042  1
  Zn  Zn168  1  0.56523119  0.31360580  0.55803255  1
  Zn  Zn169  1  0.55412048  0.82031723  0.07586673  1
  Zn  Zn170  1  0.56088589  0.81493154  0.57020990  1
  O  O171  1  0.11172947  0.11790782  0.11269111  1
  O  O172  1  0.12139658  0.11996056  0.61516634  1
  O  O173  1  0.11794709  0.63172645  0.11018788  1
  O  O174  1  0.12108920  0.61065957  0.63083104  1
  O  O175  1  0.61580544  0.11820302  0.12188711  1
  O  O176  1  0.61644217  0.11528938  0.63213898  1
  O  O177  1  0.62170432  0.61480666  0.12779831  1
  O  O178  1  0.61569473  0.61132572  0.62776876  1
  O  O179  1  0.38641816  0.38439115  0.37532607  1
  O  O180  1  0.39222659  0.37730599  0.86949141  1
  O  O181  1  0.37945530  0.89570261  0.37490917  1
  O  O182  1  0.37956050  0.88513383  0.88162825  1
  O  O183  1  0.88194057  0.37679457  0.38209229  1
  O  O184  1  0.88428193  0.38395707  0.87654470  1
  O  O185  1  0.87956576  0.87618185  0.38342319  1
  O  O186  1  0.87502790  0.88087119  0.88537028  1
  O  O187  1  0.25797970  -0.00104430  0.36824846  1
  O  O188  1  0.25672978  -0.00053407  0.86603350  1
  O  O189  1  0.26311414  0.49080379  0.37930057  1
  O  O190  1  0.25458225  0.50552074  0.86824262  1
  O  O191  1  0.75100927  0.04125744  0.41401017  1
  O  O192  1  0.75772627  0.00481288  0.87191281  1
  O  O193  1  0.75388712  0.50799027  0.36602778  1
  O  O194  1  0.76013445  0.50325768  0.86784409  1
  O  O195  1  0.24885882  0.48301812  0.11198998  1
  O  O196  1  0.24571460  0.49601316  0.62931336  1
  O  O197  1  0.24289686  0.99153715  0.13104403  1
  O  O198  1  0.25273057  0.99236624  0.63325283  1
  O  O199  1  0.74511600  0.50968644  0.13828070  1
  O  O200  1  0.74387032  0.49527163  0.62660844  1
  O  O201  1  0.73393829  0.99935766  0.12180694  1
  O  O202  1  0.74370205  0.99356508  0.63089674  1
  O  O203  1  0.00665642  0.37128006  0.25015363  1
  O  O204  1  0.00936071  0.37441512  0.75582646  1
  O  O205  1  -0.00750091  0.86675333  0.25948624  1
  O  O206  1  0.00786333  0.86640705  0.75222375  1
  O  O207  1  0.50870196  0.37201096  0.25681391  1
  O  O208  1  0.50764444  0.36952451  0.75638138  1
  O  O209  1  0.50916401  0.86663725  0.25804341  1
  O  O210  1  0.49944767  0.86833815  0.75774546  1
  O  O211  1  0.50549904  0.13611444  0.24140011  1
  O  O212  1  0.49776902  0.13183269  0.74058991  1
  O  O213  1  0.50261115  0.63951907  0.25335512  1
  O  O214  1  0.50079814  0.62968968  0.73908556  1
  O  O215  1  0.99109539  0.13392007  0.24028209  1
  O  O216  1  0.99329666  0.12748867  0.74665317  1
  O  O217  1  1.00650885  0.63200467  0.23637639  1
  O  O218  1  0.99754305  0.62769977  0.74395147  1
  O  O219  1  0.36530931  0.24520349  0.00320702  1
  O  O220  1  0.37072276  0.25662801  0.50031767  1
  O  O221  1  0.38068936  0.76435795  0.00628530  1
  O  O222  1  0.35777494  0.74589728  0.50771631  1
  O  O223  1  0.86525992  0.25820123  -0.00551443  1
  O  O224  1  0.87201004  0.25587115  0.50310956  1
  O  O225  1  0.87869256  0.76125748  0.00043198  1
  O  O226  1  0.87149431  0.75824171  0.50510156  1
  O  O227  1  0.13325790  0.25396953  0.48870289  1
  O  O228  1  0.12774917  0.23651859  1.00231085  1
  O  O229  1  0.13538036  0.74978848  0.49057662  1
  O  O230  1  0.12587394  0.74161657  0.98959913  1
  O  O231  1  0.62937786  0.25383902  0.48501721  1
  O  O232  1  0.63276258  0.24659439  0.99365946  1
  O  O233  1  0.63514207  0.75577334  0.50519707  1
  O  O234  1  0.58475037  0.74461198  1.00060816  1
  O  O235  1  0.50830250  0.24148193  0.13505492  1
  O  O236  1  0.49895473  0.24505600  0.62672890  1
  O  O237  1  0.48963118  0.75332245  0.14859685  1
  O  O238  1  0.49108907  0.74195488  0.62736281  1
  O  O239  1  1.00509170  0.23948635  0.13197776  1
  O  O240  1  0.98759210  0.25030076  0.62322685  1
  O  O241  1  1.00476562  0.74396518  0.13456698  1
  O  O242  1  0.99776687  0.74413762  0.62787176  1
  O  O243  1  0.00758585  0.25853571  0.36569738  1
  O  O244  1  -0.00530381  0.26397446  0.87170551  1
  O  O245  1  0.00687450  0.75308434  0.36928085  1
  O  O246  1  0.01183699  0.74653491  0.86779165  1
  O  O247  1  0.50856537  0.26011096  0.37012636  1
  O  O248  1  0.50702193  0.25520092  0.87078338  1
  O  O249  1  0.49313793  0.75310459  0.36821975  1
  O  O250  1  0.48485708  0.76333507  0.86110351  1
  O  O251  1  0.25092918  0.14080050  0.50283583  1
  O  O252  1  0.23896510  0.13659750  1.00259088  1
  O  O253  1  0.24643448  0.63389155  0.50205310  1
  O  O254  1  0.24400902  0.62604971  0.99414619  1
  O  O255  1  0.75385353  0.09753032  0.48127095  1
  O  O256  1  0.74618924  0.13353974  0.99527891  1
  O  O257  1  0.75148203  0.63226243  0.49378253  1
  O  O258  1  0.75096035  0.61997484  0.98448174  1
  O  O259  1  0.24440197  0.36204998  0.00944991  1
  O  O260  1  0.25667947  0.36787063  0.50538510  1
  O  O261  1  0.25982293  0.87533288  0.00492185  1
  O  O262  1  0.24415096  0.87010068  0.51130273  1
  O  O263  1  0.76119613  0.36633117  -0.00839836  1
  O  O264  1  0.76308898  0.38001531  0.50245359  1
  O  O265  1  0.76319300  0.87512593  0.00077097  1
  O  O266  1  0.75768264  0.86777872  0.50366078  1
  O  O267  1  0.12114145  0.48484953  0.25088526  1
  O  O268  1  0.13505074  0.49055979  0.74126625  1
  O  O269  1  0.12546727  1.01079727  0.23680803  1
  O  O270  1  0.13533779  0.99293442  0.75105988  1
  O  O271  1  0.63231867  0.49542402  0.24103559  1
  O  O272  1  0.62979296  0.49313504  0.73841333  1
  O  O273  1  0.61670629  0.98913484  0.24537866  1
  O  O274  1  0.63108725  0.99673960  0.74241954  1
  O  O275  1  0.37458714  0.00505936  0.25895674  1
  O  O276  1  0.36583831  -0.00114730  0.75764191  1
  O  O277  1  0.38172902  0.51657936  0.25819575  1
  O  O278  1  0.36324894  0.49470892  0.74923392  1
  O  O279  1  0.87179711  0.01225277  0.25463094  1
  O  O280  1  0.86990183  0.00172113  0.75809818  1
  O  O281  1  0.86212797  0.49390834  0.24767691  1
  O  O282  1  0.87257816  0.50207255  0.75489629  1
  O  O283  1  0.11971803  0.36744659  0.36120550  1
  O  O284  1  0.11605629  0.38355185  0.86450338  1
  O  O285  1  0.11141507  0.86475905  0.37880423  1
  O  O286  1  0.12638056  0.86378045  0.87142176  1
  O  O287  1  0.61567928  0.37365252  0.36651253  1
  O  O288  1  0.61852757  0.37005535  0.86747167  1
  O  O289  1  0.62617711  0.88844681  0.36689421  1
  O  O290  1  0.60856974  0.88316888  0.87652535  1
  O  O291  1  0.38978588  0.11941136  0.11780252  1
  O  O292  1  0.38570960  0.13331770  0.62732842  1
  O  O293  1  0.37997843  0.62622397  0.14160411  1
  O  O294  1  0.38504494  0.63230594  0.62042296  1
  O  O295  1  0.88489244  0.11747082  0.13325677  1
  O  O296  1  0.87623033  0.13153421  0.62926890  1
  O  O297  1  0.89204659  0.62819907  0.11121978  1
  O  O298  1  0.88222176  0.62848515  0.63027269  1
  O  O299  1  0.25072914  0.25891093  0.11240479  1
  O  O300  1  0.25729125  0.25664070  0.61515721  1
  O  O301  1  0.25007099  0.76552379  0.12177788  1
  O  O302  1  0.25262253  0.75286293  0.61507132  1
  O  O303  1  0.74134999  0.24910970  0.11220750  1
  O  O304  1  0.75877854  0.24994556  0.61316123  1
  O  O305  1  0.73913227  0.74315353  0.12038072  1
  O  O306  1  0.75557890  0.75158925  0.61844540  1
  O  O307  1  0.24117809  0.26191918  0.38299291  1
  O  O308  1  0.25433199  0.25211075  0.89072640  1
  O  O309  1  0.23850050  0.75496000  0.38645669  1
  O  O310  1  0.24367954  0.74260527  0.87420612  1
  O  O311  1  0.73543319  0.25366418  0.37347995  1
  O  O312  1  0.74468100  0.24342116  0.87832846  1
  O  O313  1  0.75302494  0.73717405  0.38418016  1
  O  O314  1  0.75305960  0.73200498  0.86826207  1
  O  O315  1  0.00721276  0.12543772  0.00490966  1
  O  O316  1  -0.00280239  0.11041366  0.49781383  1
  O  O317  1  0.00916513  0.61759255  0.00233240  1
  O  O318  1  -0.00687945  0.61121504  0.50536901  1
  O  O319  1  0.50749890  0.12249416  0.00747157  1
  O  O320  1  0.49799997  0.11533876  0.51378679  1
  O  O321  1  0.49896606  0.60353820  0.00369813  1
  O  O322  1  0.49641157  0.61330301  0.50764797  1
  O  O323  1  0.49564393  0.38381183  0.49071638  1
  O  O324  1  0.50829123  0.38339587  0.99037538  1
  O  O325  1  0.50070373  0.88760865  0.50488706  1
  O  O326  1  0.48787213  0.88528354  0.99452942  1
  O  O327  1  0.99239908  0.38136255  0.49421119  1
  O  O328  1  0.99657251  0.38080912  0.99127686  1
  O  O329  1  0.99345208  0.87730334  0.49125147  1
  O  O330  1  0.98667776  0.87778066  0.99910947  1
  O  O331  1  0.49804160  0.49440165  0.38040814  1
  O  O332  1  0.50189173  0.49327864  0.88636532  1
  O  O333  1  0.49725082  1.00016192  0.39356534  1
  O  O334  1  0.49025342  0.99559031  0.87852619  1
  O  O335  1  1.00106891  0.49573519  0.38247520  1
  O  O336  1  0.99307924  0.49413168  0.88078894  1
  O  O337  1  0.99680986  0.99016772  0.38097507  1
  O  O338  1  0.98759105  0.99636280  0.87585873  1
  O  O339  1  0.00545987  0.00772555  0.12471483  1
  O  O340  1  0.00220354  -0.00347399  0.61248871  1
  O  O341  1  -0.00232186  0.50903490  0.10995567  1
  O  O342  1  0.00831471  0.50254728  0.61908789  1
  O  O343  1  0.50743085  0.00768601  0.12154461  1
  O  O344  1  0.50302437  0.00530006  0.62134570  1
  O  O345  1  0.50858763  0.49678043  0.11519465  1
  O  O346  1  0.50491773  0.50436095  0.61770244  1
  O  O347  1  0.23646762  0.36906750  0.23527758  1
  O  O348  1  0.24485456  0.38255256  0.74535767  1
  O  O349  1  0.25279905  0.87128095  0.23846608  1
  O  O350  1  0.24669248  0.88129900  0.74235178  1
  O  O351  1  0.74019603  0.39142217  0.25845787  1
  O  O352  1  0.74663901  0.37847696  0.74118870  1
  O  O353  1  0.73258634  0.86538091  0.24953819  1
  O  O354  1  0.74982246  0.87855191  0.74504866  1
  O  O355  1  0.24809020  0.14546931  0.23710449  1
  O  O356  1  0.25124508  0.11442187  0.75045175  1
  O  O357  1  0.25891921  0.63050792  0.24620727  1
  O  O358  1  0.24492210  0.61378885  0.76042126  1
  O  O359  1  0.76601305  0.13472309  0.24241260  1
  O  O360  1  0.75669173  0.11797802  0.75593966  1
  O  O361  1  0.74952731  0.61292426  0.26300751  1
  O  O362  1  0.75787709  0.61749737  0.75591060  1
  O  O363  1  0.38141982  0.10425643  0.38194933  1
  O  O364  1  0.37240913  0.11309156  0.87406272  1
  O  O365  1  0.37464727  0.61750638  0.36411095  1
  O  O366  1  0.36424420  0.62413709  0.88320000  1
  O  O367  1  0.88147076  0.12678185  0.35681560  1
  O  O368  1  0.87059424  0.11592460  0.87072827  1
  O  O369  1  0.85906478  0.62007750  0.37842954  1
  O  O370  1  0.87128894  0.61342702  0.86988356  1
  O  O371  1  0.12605040  0.37342723  0.13429327  1
  O  O372  1  0.13066460  0.38429745  0.63203627  1
  O  O373  1  0.13816309  0.88425829  0.11822290  1
  O  O374  1  0.13553986  0.87543534  0.63232237  1
  O  O375  1  0.62242591  0.38402991  0.13733996  1
  O  O376  1  0.63000669  0.38250175  0.62794913  1
  O  O377  1  0.62291576  0.88586104  0.13774485  1
  O  O378  1  0.63216408  0.88433041  0.63063787  1
  O  O379  1  0.11031770  0.26155567  0.25427477  1
  O  O380  1  0.12814686  0.26428034  0.74164842  1
  O  O381  1  0.11549411  0.74993707  0.26536179  1
  O  O382  1  0.12337104  0.75235373  0.75765595  1
  O  O383  1  0.61773315  0.26071878  0.25981728  1
  O  O384  1  0.62169387  0.25440059  0.75390628  1
  O  O385  1  0.61228269  0.76237468  0.25523290  1
  O  O386  1  0.60619623  0.75169645  0.74090215  1
  O  O387  1  0.39186226  0.25929642  0.25600721  1
  O  O388  1  0.38201832  0.25084686  0.74128975  1
  O  O389  1  0.37975628  0.73766429  0.25809315  1
  O  O390  1  0.38326800  0.75073358  0.73474299  1
  O  O391  1  0.88586542  0.24646859  0.25213636  1
  O  O392  1  0.87426901  0.24401677  0.73811173  1
  O  O393  1  0.88610856  0.75112570  0.24438396  1
  O  O394  1  0.88274527  0.74415192  0.74351526  1
  O  O395  1  0.38471311  0.49599215  0.49084425  1
  O  O396  1  0.38941377  0.49449321  1.00289348  1
  O  O397  1  0.38611664  0.99846377  0.50312626  1
  O  O398  1  0.37676480  0.99466395  0.99181021  1
  O  O399  1  0.88733572  0.48780064  0.50324900  1
  O  O400  1  0.88394874  0.49122155  0.98979066  1
  O  O401  1  0.88502990  0.98432450  0.49947643  1
  O  O402  1  0.87504551  0.99265833  0.99118863  1
  O  O403  1  0.12496750  0.01115261  0.01100210  1
  O  O404  1  0.11496205  -0.00085897  0.49668376  1
  O  O405  1  0.11533046  0.50884197  -0.01029821  1
  O  O406  1  0.11507681  0.48867322  0.51011034  1
  O  O407  1  0.61878876  0.00623695  0.00858696  1
  O  O408  1  0.61134468  -0.00237159  0.51749722  1
  O  O409  1  0.62215549  0.49259654  0.01303516  1
  O  O410  1  0.61565995  0.49088695  0.50844247  1
  O  O411  1  0.36152831  0.37624586  0.13515921  1
  O  O412  1  0.37256971  0.37033038  0.61687360  1
  O  O413  1  0.36218220  0.88190135  0.11963075  1
  O  O414  1  0.36475330  0.86298726  0.62691637  1
  O  O415  1  0.88160354  0.37793984  0.10805106  1
  O  O416  1  0.87083123  0.36588601  0.61672355  1
  O  O417  1  0.86844437  0.87284123  0.11390654  1
  O  O418  1  0.86982739  0.86812796  0.61670136  1
  O  O419  1  0.11777399  0.14093014  0.37384140  1
  O  O420  1  0.12488509  0.11786002  0.89031471  1
  O  O421  1  0.12173851  0.63792735  0.37643468  1
  O  O422  1  0.13320334  0.63149309  0.88273294  1
  O  O423  1  0.61823197  0.14210836  0.37032809  1
  O  O424  1  0.62963482  0.12882156  0.88116930  1
  O  O425  1  0.64376014  0.61777336  0.37730307  1
  O  O426  1  0.64092943  0.61851005  0.86760989  1
