# generated using pymatgen
data_V85Zn86O256
_symmetry_space_group_name_H-M   'P 1'
_cell_length_a   16.99062380
_cell_length_b   16.98455726
_cell_length_c   16.97912939
_cell_angle_alpha   89.86761328
_cell_angle_beta   90.14206405
_cell_angle_gamma   89.95473635
_symmetry_Int_Tables_number   1
_chemical_formula_structural   V85Zn86O256
_chemical_formula_sum   'V85 Zn86 O256'
_cell_volume   4899.77728854
_cell_formula_units_Z   1
loop_
 _symmetry_equiv_pos_site_id
 _symmetry_equiv_pos_as_xyz
  1  'x, y, z'
loop_
 _atom_site_type_symbol
 _atom_site_label
 _atom_site_symmetry_multiplicity
 _atom_site_fract_x
 _atom_site_fract_y
 _atom_site_fract_z
 _atom_site_occupancy
  V  V0  1  0.86987399  0.62388520  0.75787335  1
  V  V1  1  0.50200854  0.62468365  0.61620475  1
  V  V2  1  0.25617810  0.25425821  0.00633120  1
  V  V3  1  0.24205216  0.87803307  0.62628522  1
  V  V4  1  0.62329156  -0.00044814  0.12738482  1
  V  V5  1  0.37305848  0.62059411  0.25115066  1
  V  V6  1  0.49977415  0.39372963  0.38174889  1
  V  V7  1  0.62287313  0.62437616  0.00119202  1
  V  V8  1  -0.00025430  0.12325536  0.12422709  1
  V  V9  1  0.87034550  0.35910418  0.50533488  1
  V  V10  1  0.62338323  0.50762556  0.61401580  1
  V  V11  1  0.37533370  0.12876233  0.24953376  1
  V  V12  1  0.61992651  0.00461719  0.62500462  1
  V  V13  1  0.36840157  0.25192793  0.61240872  1
  V  V14  1  0.00696587  0.24657841  0.25595495  1
  V  V15  1  0.75111291  0.36701507  0.62186931  1
  V  V16  1  0.62451862  0.25068523  0.87495346  1
  V  V17  1  0.75803808  0.12078790  0.87258631  1
  V  V18  1  0.87429224  0.87322335  0.49785391  1
  V  V19  1  0.74844278  0.74347500  -0.00237313  1
  V  V20  1  0.61643860  0.12618511  0.50147789  1
  V  V21  1  0.62409766  0.12584248  0.00242876  1
  V  V22  1  0.62126258  0.37858300  0.75009441  1
  V  V23  1  -0.00231630  0.62404861  0.62563258  1
  V  V24  1  0.00040744  0.75562007  0.75295791  1
  V  V25  1  0.49629889  0.12829140  0.12668408  1
  V  V26  1  0.12773190  0.37158161  0.74412244  1
  V  V27  1  0.24140526  0.50188717  0.24544028  1
  V  V28  1  0.74929187  0.50227492  0.76275308  1
  V  V29  1  0.00331664  0.36715720  0.37844070  1
  V  V30  1  0.88022057  0.62309293  0.24126872  1
  V  V31  1  -0.01955213  0.24803200  0.74353560  1
  V  V32  1  0.10716346  0.61765237  0.00325961  1
  V  V33  1  0.87742141  0.88070591  -0.00757783  1
  V  V34  1  0.62492497  0.38280439  0.25006197  1
  V  V35  1  0.38004950  0.12409134  0.74199563  1
  V  V36  1  0.00969217  -0.00071919  0.50358262  1
  V  V37  1  0.75136165  0.87219776  0.12595197  1
  V  V38  1  0.49710836  0.37570099  0.87273958  1
  V  V39  1  0.62759331  0.87876538  0.75086540  1
  V  V40  1  0.62738756  0.25028657  0.37992160  1
  V  V41  1  0.37402676  0.75637170  0.62497724  1
  V  V42  1  0.49849143  0.00165925  0.00137271  1
  V  V43  1  0.50482286  0.49729402  0.00358379  1
  V  V44  1  0.37447307  0.62551501  0.75173501  1
  V  V45  1  0.37979447  -0.01457357  0.37631921  1
  V  V46  1  0.87477498  0.25182421  0.12307318  1
  V  V47  1  0.24973982  0.49781367  0.74808735  1
  V  V48  1  0.50206752  0.62097738  0.12947186  1
  V  V49  1  0.87231962  0.74913600  0.62218803  1
  V  V50  1  0.12122431  0.62697655  0.49946119  1
  V  V51  1  0.24974847  -0.00647180  0.25048245  1
  V  V52  1  0.25082775  0.75795378  0.49947361  1
  V  V53  1  0.49807869  -0.01683391  0.49505115  1
  V  V54  1  0.87540956  -0.00129097  0.37637953  1
  V  V55  1  0.12779665  0.24986073  0.87149006  1
  V  V56  1  0.12124051  0.75667210  0.87362963  1
  V  V57  1  0.24834093  0.87353227  0.12458318  1
  V  V58  1  0.37944646  0.74710665  0.12798490  1
  V  V59  1  0.74836092  0.63001441  0.38198469  1
  V  V60  1  -0.00678421  0.37773995  0.88362482  1
  V  V61  1  0.25013764  0.74181610  -0.00177583  1
  V  V62  1  0.74943781  -0.00221191  0.25096204  1
  V  V63  1  0.24488663  0.12749386  0.38223282  1
  V  V64  1  0.37484577  0.87447735  -0.00036160  1
  V  V65  1  0.12520452  0.12501401  -0.00105497  1
  V  V66  1  0.24454776  0.00113789  0.74458258  1
  V  V67  1  -0.00687723  0.11799344  0.63065365  1
  V  V68  1  0.25012291  0.62248177  0.37357379  1
  V  V69  1  0.12148002  0.75760676  0.37125959  1
  V  V70  1  0.37521891  0.00035333  0.87259605  1
  V  V71  1  0.12537948  -0.00512296  0.12804208  1
  V  V72  1  0.75161847  0.25783294  0.00201591  1
  V  V73  1  0.74876184  0.12697515  0.38225733  1
  V  V74  1  0.61344397  0.86274527  0.25413064  1
  V  V75  1  0.62748925  0.74660563  0.87428430  1
  V  V76  1  0.74972135  0.50134191  0.24720603  1
  V  V77  1  0.00277791  0.75161819  0.24089450  1
  V  V78  1  -0.00724732  0.49840156  0.49946372  1
  V  V79  1  0.49570875  0.25096893  0.24968844  1
  V  V80  1  0.50083882  0.87596750  0.87615028  1
  V  V81  1  0.12557827  0.49697640  0.62563819  1
  V  V82  1  0.87313451  0.12268665  0.25048645  1
  V  V83  1  0.49979118  0.24782509  0.73973587  1
  V  V84  1  0.74757819  0.37529965  0.13104445  1
  Zn  Zn85  1  0.24636976  0.62250004  0.87438403  1
  Zn  Zn86  1  0.38160284  0.37107877  0.01362659  1
  Zn  Zn87  1  0.00352028  0.87854767  0.36897122  1
  Zn  Zn88  1  0.22800069  0.27515133  0.50852043  1
  Zn  Zn89  1  0.89334163  0.00183094  0.85825639  1
  Zn  Zn90  1  0.87399264  0.49755254  0.37391604  1
  Zn  Zn91  1  0.37087706  0.40048588  0.49042952  1
  Zn  Zn92  1  0.12353297  0.37365057  0.25028570  1
  Zn  Zn93  1  0.11073227  0.49308142  0.12038584  1
  Zn  Zn94  1  0.75607996  0.01026582  0.74109814  1
  Zn  Zn95  1  0.11729938  0.88634550  0.75334434  1
  Zn  Zn96  1  0.74883790  0.87728664  0.62353691  1
  Zn  Zn97  1  0.74204508  0.74535757  0.50134198  1
  Zn  Zn98  1  0.00712872  -0.01030216  -0.00697304  1
  Zn  Zn99  1  0.25227215  0.12553522  0.87148432  1
  Zn  Zn100  1  0.12522675  0.13276209  0.50543953  1
  Zn  Zn101  1  0.25433325  0.36907987  0.13642012  1
  Zn  Zn102  1  0.49962499  0.74948074  0.75144229  1
  Zn  Zn103  1  0.59883705  0.75951198  0.39186390  1
  Zn  Zn104  1  0.88120451  0.50108387  0.88368777  1
  Zn  Zn105  1  0.87910439  0.74444927  0.11933542  1
  Zn  Zn106  1  0.37323105  0.49835242  0.87719372  1
  Zn  Zn107  1  0.18921181  0.18136843  0.18886373  1
  Zn  Zn108  1  0.18515586  0.18174310  0.68117715  1
  Zn  Zn109  1  0.18334615  0.68558402  0.18339129  1
  Zn  Zn110  1  0.18614669  0.68720927  0.68725884  1
  Zn  Zn111  1  0.68399063  0.18865641  0.19215893  1
  Zn  Zn112  1  0.68642810  0.18689928  0.68682994  1
  Zn  Zn113  1  0.68955339  0.68409500  0.18602440  1
  Zn  Zn114  1  0.68804691  0.68740804  0.68918297  1
  Zn  Zn115  1  0.29811138  0.33019440  0.34248374  1
  Zn  Zn116  1  0.31357556  0.31093419  0.80804104  1
  Zn  Zn117  1  0.31264558  0.80785207  0.31069204  1
  Zn  Zn118  1  0.30940152  0.81371546  0.81196014  1
  Zn  Zn119  1  0.81748664  0.31056697  0.31636527  1
  Zn  Zn120  1  0.80677894  0.31684961  0.81483452  1
  Zn  Zn121  1  0.81564895  0.80996601  0.31040687  1
  Zn  Zn122  1  0.81171564  0.81379422  0.81089000  1
  Zn  Zn123  1  0.18228821  0.44044019  0.43665054  1
  Zn  Zn124  1  0.18466079  0.43578569  0.93299811  1
  Zn  Zn125  1  0.19079142  0.93884356  0.43524849  1
  Zn  Zn126  1  0.19091253  0.93759565  0.93571124  1
  Zn  Zn127  1  0.68991778  0.44013110  0.43520731  1
  Zn  Zn128  1  0.73903567  0.48711320  0.98705859  1
  Zn  Zn129  1  0.68593946  0.93430698  0.43682835  1
  Zn  Zn130  1  0.68761926  0.93719493  0.93953843  1
  Zn  Zn131  1  0.31157293  0.06533939  0.06271034  1
  Zn  Zn132  1  0.31945477  0.06092599  0.56212731  1
  Zn  Zn133  1  0.31516457  0.55413000  0.06421925  1
  Zn  Zn134  1  0.30871377  0.57206649  0.56104586  1
  Zn  Zn135  1  0.81037379  0.06325635  0.06121201  1
  Zn  Zn136  1  0.81347577  0.06231494  0.56335666  1
  Zn  Zn137  1  0.92426228  0.54787689  0.06024134  1
  Zn  Zn138  1  0.80882082  0.55725752  0.56977704  1
  Zn  Zn139  1  0.43255993  0.43666448  0.19130145  1
  Zn  Zn140  1  0.41713718  0.45586855  0.64923367  1
  Zn  Zn141  1  0.43530380  0.93779906  0.18810551  1
  Zn  Zn142  1  0.43909469  0.93827294  0.68524424  1
  Zn  Zn143  1  0.93668787  0.43173886  0.19119675  1
  Zn  Zn144  1  0.93439634  0.43517479  0.69034789  1
  Zn  Zn145  1  0.93791698  0.93513321  0.18392806  1
  Zn  Zn146  1  0.93482073  0.93753638  0.68482716  1
  Zn  Zn147  1  0.06274992  0.06095561  0.31319543  1
  Zn  Zn148  1  0.06071020  0.06651151  0.81210340  1
  Zn  Zn149  1  0.06055101  0.56463668  0.31346492  1
  Zn  Zn150  1  0.06088417  0.56580329  0.81555253  1
  Zn  Zn151  1  0.56328793  0.05823161  0.31340120  1
  Zn  Zn152  1  0.56477472  0.06507916  0.81423490  1
  Zn  Zn153  1  0.54086397  0.59782055  0.34168095  1
  Zn  Zn154  1  0.56029962  0.56205303  0.81129630  1
  Zn  Zn155  1  0.43883926  0.18162306  0.43014126  1
  Zn  Zn156  1  0.43730197  0.18654162  0.93180144  1
  Zn  Zn157  1  0.43152373  0.69364568  0.44005399  1
  Zn  Zn158  1  0.43915941  0.68654160  0.93681876  1
  Zn  Zn159  1  0.93864364  0.18271428  0.44113901  1
  Zn  Zn160  1  0.93968252  0.19163277  0.93705869  1
  Zn  Zn161  1  0.93407635  0.68579277  0.42979155  1
  Zn  Zn162  1  0.93538364  0.69500990  0.93568217  1
  Zn  Zn163  1  0.06688122  0.31381746  0.06798789  1
  Zn  Zn164  1  0.05616044  0.30698187  0.56405740  1
  Zn  Zn165  1  0.06399155  0.80948872  0.05980838  1
  Zn  Zn166  1  0.06113589  0.81332364  0.56343095  1
  Zn  Zn167  1  0.56487039  0.31220682  0.06464215  1
  Zn  Zn168  1  0.56239602  0.31624620  0.56135774  1
  Zn  Zn169  1  0.56207587  0.81189540  0.06561733  1
  Zn  Zn170  1  0.56294003  0.81074283  0.56861202  1
  O  O171  1  0.12145443  0.11514277  0.11700896  1
  O  O172  1  0.10418823  0.12964545  0.62211066  1
  O  O173  1  0.12489248  0.62666036  0.10437650  1
  O  O174  1  0.11711550  0.61822837  0.61951337  1
  O  O175  1  0.61841464  0.11964061  0.12268392  1
  O  O176  1  0.63109909  0.11648950  0.61411606  1
  O  O177  1  0.61135909  0.63487486  0.11462788  1
  O  O178  1  0.61930938  0.61522064  0.63116574  1
  O  O179  1  0.39840737  0.37959779  0.36985281  1
  O  O180  1  0.38929846  0.37433234  0.87218712  1
  O  O181  1  0.37182169  0.88569877  0.36967916  1
  O  O182  1  0.38060879  0.87933524  0.87991715  1
  O  O183  1  0.88253500  0.37697504  0.38641325  1
  O  O184  1  0.89009544  0.37290247  0.87132384  1
  O  O185  1  0.87671709  0.88000632  0.38261395  1
  O  O186  1  0.86578600  0.87683052  0.89060139  1
  O  O187  1  0.25884498  0.00309382  0.36689373  1
  O  O188  1  0.25829228  0.00051025  0.86400428  1
  O  O189  1  0.23807267  0.51786539  0.36696272  1
  O  O190  1  0.25189318  0.50149405  0.86125256  1
  O  O191  1  0.75471101  0.00711772  0.37022996  1
  O  O192  1  0.74669459  0.01719726  0.87983605  1
  O  O193  1  0.75360200  0.50684973  0.36348603  1
  O  O194  1  0.74887923  0.49181977  0.86254822  1
  O  O195  1  0.24157628  0.50370812  0.13718778  1
  O  O196  1  0.23216306  0.50762485  0.63353879  1
  O  O197  1  0.24503428  0.99562810  0.13138086  1
  O  O198  1  0.26092167  0.98855810  0.63247625  1
  O  O199  1  0.75144409  0.48119121  0.13591438  1
  O  O200  1  0.73697102  0.49472552  0.63693884  1
  O  O201  1  0.74377830  0.99210858  0.12949981  1
  O  O202  1  0.73571209  0.99810069  0.62282282  1
  O  O203  1  -0.00285626  0.36216667  0.26202249  1
  O  O204  1  0.00640339  0.36118911  0.75393107  1
  O  O205  1  -0.00775862  0.85777823  0.25164581  1
  O  O206  1  0.00293493  0.85958644  0.73953892  1
  O  O207  1  0.50811354  0.37058754  0.25774675  1
  O  O208  1  0.50767674  0.36765705  0.75483715  1
  O  O209  1  0.51444727  0.87538293  0.24203365  1
  O  O210  1  0.51122990  0.87600655  0.75655600  1
  O  O211  1  0.49489071  0.13007094  0.24806296  1
  O  O212  1  0.49291092  0.13664748  0.75673321  1
  O  O213  1  0.48715723  0.60960864  0.23489453  1
  O  O214  1  0.48892458  0.62646217  0.74323877  1
  O  O215  1  0.99355403  0.12803042  0.24532620  1
  O  O216  1  0.99982389  0.13703297  0.74138731  1
  O  O217  1  0.99035498  0.63740537  0.25828071  1
  O  O218  1  0.99174876  0.63253869  0.74406448  1
  O  O219  1  0.35922753  0.24826972  -0.00883033  1
  O  O220  1  0.38328525  0.23916150  0.51220777  1
  O  O221  1  0.36765182  0.75283016  0.00600632  1
  O  O222  1  0.36012798  0.74463821  0.51110850  1
  O  O223  1  0.86534350  0.24382839  0.01307718  1
  O  O224  1  0.87752525  0.26017460  0.50072176  1
  O  O225  1  0.86481164  0.75874963  0.00048514  1
  O  O226  1  0.87758957  0.75548728  0.50806559  1
  O  O227  1  0.12151310  0.24780277  0.49772115  1
  O  O228  1  0.13374363  0.24262906  0.99103057  1
  O  O229  1  0.13055701  0.74610207  0.49364134  1
  O  O230  1  0.12987053  0.74045586  0.99291624  1
  O  O231  1  0.61862780  0.24180200  0.48886461  1
  O  O232  1  0.63215035  0.24497646  0.99634217  1
  O  O233  1  0.63152106  0.76053403  0.49873249  1
  O  O234  1  0.62815724  0.74726284  0.99294281  1
  O  O235  1  0.50697936  0.24415752  0.14062098  1
  O  O236  1  0.49539183  0.25301926  0.63532592  1
  O  O237  1  0.48658451  0.73855186  0.11621034  1
  O  O238  1  0.49018181  0.74456380  0.63009109  1
  O  O239  1  0.99161506  0.24460211  0.13264126  1
  O  O240  1  0.99432241  0.24466757  0.63972728  1
  O  O241  1  1.00151750  0.75041652  0.13743093  1
  O  O242  1  0.99100668  0.74308647  0.63085387  1
  O  O243  1  -0.00910605  0.25404466  0.36606921  1
  O  O244  1  0.00794830  0.25377104  0.86219153  1
  O  O245  1  0.00778673  0.75247661  0.36824014  1
  O  O246  1  0.00768915  0.74790079  0.86343742  1
  O  O247  1  0.51049123  0.25197479  0.36508675  1
  O  O248  1  0.50467236  0.25745927  0.86680393  1
  O  O249  1  0.50649985  0.70609557  0.36187476  1
  O  O250  1  0.50886843  0.75846244  0.87527801  1
  O  O251  1  0.24976027  0.11445985  0.48701625  1
  O  O252  1  0.24142374  0.13385174  0.99647119  1
  O  O253  1  0.24165428  0.63544059  0.49270601  1
  O  O254  1  0.25036716  0.63493205  0.99862000  1
  O  O255  1  0.73950283  0.11658006  0.48688619  1
  O  O256  1  0.74337719  0.13594979  0.99481925  1
  O  O257  1  0.76224141  0.62146203  0.48520582  1
  O  O258  1  0.73515882  0.64047255  1.00568086  1
  O  O259  1  0.24763175  0.35956760  -0.00454641  1
  O  O260  1  0.26570855  0.36717926  0.45702179  1
  O  O261  1  0.25585509  0.86408357  0.00414855  1
  O  O262  1  0.24536039  0.86472454  0.50808512  1
  O  O263  1  0.74206507  0.36254556  0.01376697  1
  O  O264  1  0.76002016  0.38438988  0.50864048  1
  O  O265  1  0.75460787  0.86795948  0.00808265  1
  O  O266  1  0.76536319  0.87518938  0.50009942  1
  O  O267  1  0.13048013  0.50340311  0.24718399  1
  O  O268  1  0.12826645  0.49356812  0.74436537  1
  O  O269  1  0.13553286  1.00571195  0.23759345  1
  O  O270  1  0.14049390  1.00393238  0.75380289  1
  O  O271  1  0.63651368  0.48622964  0.25310469  1
  O  O272  1  0.63091694  0.49264636  0.74864374  1
  O  O273  1  0.63044463  0.98985766  0.24574108  1
  O  O274  1  0.62520688  0.99686755  0.74208396  1
  O  O275  1  0.36936578  0.00589309  0.25664050  1
  O  O276  1  0.37185366  0.00678814  0.75240223  1
  O  O277  1  0.35981882  0.51445612  0.24628016  1
  O  O278  1  0.36355529  0.50783245  0.74209774  1
  O  O279  1  0.87043954  0.00361760  0.25459937  1
  O  O280  1  0.86512537  -0.01028322  0.75175027  1
  O  O281  1  0.86553069  0.50477213  0.25043225  1
  O  O282  1  0.86751555  0.50781529  0.75223556  1
  O  O283  1  0.10590600  0.37771584  0.37425536  1
  O  O284  1  0.11548547  0.36675381  0.86343262  1
  O  O285  1  0.12572329  0.86175771  0.37630293  1
  O  O286  1  0.12889678  0.86135943  0.87403630  1
  O  O287  1  0.61963741  0.36818949  0.37012426  1
  O  O288  1  0.61406099  0.36794134  0.86175501  1
  O  O289  1  0.62991975  0.87080028  0.35824400  1
  O  O290  1  0.62005991  0.87001869  0.87034052  1
  O  O291  1  0.38093391  0.11757028  0.13955161  1
  O  O292  1  0.37723992  0.13162019  0.63598486  1
  O  O293  1  0.38073185  0.63000246  0.12936443  1
  O  O294  1  0.37906351  0.63766029  0.63543764  1
  O  O295  1  0.87876121  0.13045929  0.13028270  1
  O  O296  1  0.89185563  0.12441694  0.61799073  1
  O  O297  1  0.87553223  0.62645724  0.13715393  1
  O  O298  1  0.87848203  0.63174257  0.63331318  1
  O  O299  1  0.24495682  0.24537245  0.10893854  1
  O  O300  1  0.26298743  0.24147769  0.61668163  1
  O  O301  1  0.25586004  0.75301223  0.11591142  1
  O  O302  1  0.25411711  0.75543449  0.61862488  1
  O  O303  1  0.75544131  0.25160413  0.12181745  1
  O  O304  1  0.73919842  0.26813968  0.62790058  1
  O  O305  1  0.74998682  0.75875284  0.11591294  1
  O  O306  1  0.76236128  0.75076553  0.62409404  1
  O  O307  1  0.25865765  0.22655726  0.37300878  1
  O  O308  1  0.24008717  0.24944686  0.87940303  1
  O  O309  1  0.24203730  0.74561187  0.38074981  1
  O  O310  1  0.24242783  0.74783830  0.88338174  1
  O  O311  1  0.73937744  0.23884957  0.36767190  1
  O  O312  1  0.74547347  0.24526050  0.88476214  1
  O  O313  1  0.75768942  0.73559027  0.37616348  1
  O  O314  1  0.73691596  0.75716423  0.88433813  1
  O  O315  1  0.01362811  0.13097793  0.00629277  1
  O  O316  1  0.00102482  0.11458108  0.50848692  1
  O  O317  1  0.00398441  0.62385717  -0.00227452  1
  O  O318  1  0.00161991  0.61670999  0.50329078  1
  O  O319  1  0.50337440  0.12213471  0.00525952  1
  O  O320  1  0.51405948  0.11529208  0.49343986  1
  O  O321  1  0.50425909  0.61647648  0.00642572  1
  O  O322  1  0.49254188  0.62726415  0.51822920  1
  O  O323  1  0.50183290  0.37455500  0.48388237  1
  O  O324  1  0.50506064  0.38039423  0.99203589  1
  O  O325  1  0.50244502  0.88466369  0.49791116  1
  O  O326  1  0.49431493  0.88173688  0.99741675  1
  O  O327  1  0.99022539  0.38047420  0.49787790  1
  O  O328  1  1.00761377  0.36202049  0.98127591  1
  O  O329  1  0.99022378  0.88150121  0.50080767  1
  O  O330  1  0.98058924  0.87019603  1.00723522  1
  O  O331  1  0.51250519  0.49181814  0.37224033  1
  O  O332  1  0.50091588  0.49139972  0.88411981  1
  O  O333  1  0.49534003  0.99998404  0.38580167  1
  O  O334  1  0.49565289  0.99620090  0.88194033  1
  O  O335  1  0.99807985  0.49198734  0.38643313  1
  O  O336  1  1.00142709  0.48190376  0.86867098  1
  O  O337  1  0.99376858  0.99840823  0.38262148  1
  O  O338  1  1.00223062  1.00436452  0.88198385  1
  O  O339  1  0.00931313  0.00389387  0.12035769  1
  O  O340  1  -0.00092061  0.00952116  0.61983242  1
  O  O341  1  -0.00242860  0.49120160  0.12137180  1
  O  O342  1  0.00702522  0.50353037  0.62016534  1
  O  O343  1  0.50339713  0.00682457  0.11977374  1
  O  O344  1  0.50961822  -0.00410869  0.61067420  1
  O  O345  1  0.49789804  0.50589576  0.11195590  1
  O  O346  1  0.51920957  0.50855660  0.63537859  1
  O  O347  1  0.24478163  0.38993102  0.26036023  1
  O  O348  1  0.23843652  0.38409294  0.75314459  1
  O  O349  1  0.25599811  0.88666974  0.24241677  1
  O  O350  1  0.24750915  0.88414976  0.74330118  1
  O  O351  1  0.74487822  0.37842704  0.25016741  1
  O  O352  1  0.74001220  0.38160039  0.74375774  1
  O  O353  1  0.74665094  0.87801919  0.24056770  1
  O  O354  1  0.73474945  0.87772796  0.75070280  1
  O  O355  1  0.25764713  0.11348915  0.25621924  1
  O  O356  1  0.26005865  0.11693323  0.74792036  1
  O  O357  1  0.25156606  0.62144382  0.25464174  1
  O  O358  1  0.25610025  0.61690304  0.74994104  1
  O  O359  1  0.75253542  0.11797096  0.25888099  1
  O  O360  1  0.74376511  0.12954657  0.76906482  1
  O  O361  1  0.75772270  0.61677951  0.25210995  1
  O  O362  1  0.75920819  0.61569473  0.74582095  1
  O  O363  1  0.36816227  0.11009595  0.36660764  1
  O  O364  1  0.37353865  0.11895636  0.86186810  1
  O  O365  1  0.35801011  0.63360352  0.36433056  1
  O  O366  1  0.37467088  0.62264168  0.86243832  1
  O  O367  1  0.86591489  0.11944504  0.37187607  1
  O  O368  1  0.86027909  0.12501724  0.88454100  1
  O  O369  1  0.86675630  0.61944530  0.36176927  1
  O  O370  1  0.88132651  0.62618301  0.85991043  1
  O  O371  1  0.13562838  0.37626650  0.13187670  1
  O  O372  1  0.11628840  0.38416499  0.63445733  1
  O  O373  1  0.13177394  0.88713132  0.11413406  1
  O  O374  1  0.13818394  0.86808190  0.63106468  1
  O  O375  1  0.63606515  0.36337730  0.14030788  1
  O  O376  1  0.62783098  0.38671480  0.63208492  1
  O  O377  1  0.63320175  0.87882289  0.13176305  1
  O  O378  1  0.62555214  0.88481545  0.63572466  1
  O  O379  1  0.10976204  0.24486776  0.24508412  1
  O  O380  1  0.12657909  0.25666166  0.75577787  1
  O  O381  1  0.11185982  0.74227093  0.25617645  1
  O  O382  1  0.11647936  0.74601417  0.75805929  1
  O  O383  1  0.61750006  0.25712904  0.26147660  1
  O  O384  1  0.61724662  0.25789458  0.75223014  1
  O  O385  1  0.62866452  0.76273577  0.24523970  1
  O  O386  1  0.62440716  0.75829945  0.75822226  1
  O  O387  1  0.38612772  0.23604538  0.26175868  1
  O  O388  1  0.38027419  0.24274095  0.74003609  1
  O  O389  1  0.36479509  0.73705427  0.23586352  1
  O  O390  1  0.37253014  0.74219814  0.74396476  1
  O  O391  1  0.88132677  0.24060668  0.24294679  1
  O  O392  1  0.88299652  0.25201132  0.75432081  1
  O  O393  1  0.88565071  0.74167483  0.24619911  1
  O  O394  1  0.87951335  0.74520801  0.74319226  1
  O  O395  1  0.38383750  0.49547173  0.54451114  1
  O  O396  1  0.38804988  0.49553087  0.99550731  1
  O  O397  1  0.39203921  1.00255535  0.49323796  1
  O  O398  1  0.37809209  0.99553527  0.99462920  1
  O  O399  1  0.88697482  0.49624840  0.50403181  1
  O  O400  1  0.84870895  0.50939940  0.99007442  1
  O  O401  1  0.88364511  0.99121390  0.49593218  1
  O  O402  1  0.87343872  0.98623337  1.00163021  1
  O  O403  1  0.13046083  0.00958012  0.00724623  1
  O  O404  1  0.11161387  -0.00271228  0.49508956  1
  O  O405  1  0.12991004  0.51673090  -0.00520623  1
  O  O406  1  0.11467328  0.50375096  0.50801479  1
  O  O407  1  0.61826621  0.00502858  0.00744139  1
  O  O408  1  0.61534152  0.00285105  0.50334937  1
  O  O409  1  0.62315115  0.51592744  -0.00380186  1
  O  O410  1  0.63013224  0.50000078  0.51588228  1
  O  O411  1  0.36674832  0.37493242  0.12564259  1
  O  O412  1  0.37589530  0.35276902  0.62030338  1
  O  O413  1  0.37005960  0.86577142  0.11994980  1
  O  O414  1  0.36598490  0.86192682  0.63273011  1
  O  O415  1  0.86209286  0.35798518  0.13637097  1
  O  O416  1  0.86318762  0.38195870  0.61806031  1
  O  O417  1  0.86267958  0.87276642  0.11686304  1
  O  O418  1  0.87375894  0.86384592  0.61590665  1
  O  O419  1  0.14236563  0.11583195  0.37454952  1
  O  O420  1  0.12737129  0.13553446  0.88157170  1
  O  O421  1  0.13020902  0.63718661  0.38068798  1
  O  O422  1  0.12525215  0.63501462  0.88609869  1
  O  O423  1  0.63089929  0.13041366  0.37992992  1
  O  O424  1  0.63169768  0.13243671  0.88343210  1
  O  O425  1  0.64913045  0.62345690  0.36858083  1
  O  O426  1  0.61431458  0.63872957  0.88410862  1
