# generated using pymatgen
data_V85Zn86O256
_symmetry_space_group_name_H-M   'P 1'
_cell_length_a   16.96833678
_cell_length_b   16.95985669
_cell_length_c   16.95513841
_cell_angle_alpha   90.03900085
_cell_angle_beta   90.05765953
_cell_angle_gamma   90.03188926
_symmetry_Int_Tables_number   1
_chemical_formula_structural   V85Zn86O256
_chemical_formula_sum   'V85 Zn86 O256'
_cell_volume   4879.35487053
_cell_formula_units_Z   1
loop_
 _symmetry_equiv_pos_site_id
 _symmetry_equiv_pos_as_xyz
  1  'x, y, z'
loop_
 _atom_site_type_symbol
 _atom_site_label
 _atom_site_symmetry_multiplicity
 _atom_site_fract_x
 _atom_site_fract_y
 _atom_site_fract_z
 _atom_site_occupancy
  V  V0  1  0.49230681  0.87899113  0.38792687  1
  V  V1  1  0.62091595  0.00397193  0.60891123  1
  V  V2  1  0.87904057  0.75475329  0.12217249  1
  V  V3  1  0.62638344  0.74871120  0.37643562  1
  V  V4  1  0.23752061  0.88079756  0.12354446  1
  V  V5  1  0.75637218  0.75468033  0.00040489  1
  V  V6  1  -0.00630210  0.50192420  0.49713747  1
  V  V7  1  0.76254283  0.75169939  0.50158755  1
  V  V8  1  0.49742546  0.37567260  0.37105106  1
  V  V9  1  0.75645024  0.61869399  0.37554743  1
  V  V10  1  0.37123166  0.24927897  0.62051685  1
  V  V11  1  0.12061089  0.87043327  0.74937065  1
  V  V12  1  0.36939070  0.37595682  0.49895422  1
  V  V13  1  0.37548738  0.75438344  0.62008828  1
  V  V14  1  0.00176331  -0.00359813  0.00422254  1
  V  V15  1  0.87538327  0.24892703  0.12618062  1
  V  V16  1  0.36326026  0.37674024  0.00704529  1
  V  V17  1  0.37407535  0.62641031  0.24690366  1
  V  V18  1  0.49916149  0.25067926  0.75057666  1
  V  V19  1  0.25217168  0.13037957  0.87890694  1
  V  V20  1  0.25346245  0.50596568  0.75990688  1
  V  V21  1  0.12446799  0.50180782  0.62664022  1
  V  V22  1  0.00196050  0.24851622  0.74607029  1
  V  V23  1  0.75004452  -0.00068776  0.25003243  1
  V  V24  1  0.62249688  0.24963652  0.87601818  1
  V  V25  1  0.62726372  0.49470363  0.62597530  1
  V  V26  1  0.24850702  0.62843409  0.37370068  1
  V  V27  1  0.00339645  0.11823504  0.12810849  1
  V  V28  1  0.24080799  0.13130800  0.37968872  1
  V  V29  1  0.12403179  0.87766239  0.27048589  1
  V  V30  1  0.62714131  0.75098405  0.87708971  1
  V  V31  1  0.37877960  0.00189080  0.87829234  1
  V  V32  1  0.37907073  0.88082218  0.00268453  1
  V  V33  1  0.37341940  0.50208084  0.37357605  1
  V  V34  1  0.87603781  0.37474033  0.00140841  1
  V  V35  1  0.49979362  0.88012103  0.87761531  1
  V  V36  1  0.48684640  0.12038431  0.12525701  1
  V  V37  1  0.88014283  -0.01820707  0.38013805  1
  V  V38  1  0.75903527  0.87216373  0.61979425  1
  V  V39  1  0.12545646  0.74723904  0.87204077  1
  V  V40  1  0.25320848  0.87677179  0.62086984  1
  V  V41  1  0.12455147  0.37405163  0.25037188  1
  V  V42  1  0.12990311  0.49713415  0.12410838  1
  V  V43  1  0.49924187  0.75209711  0.74914737  1
  V  V44  1  0.87152472  0.37525459  0.50690408  1
  V  V45  1  0.00087528  0.49936081  0.00034389  1
  V  V46  1  0.87414013  0.12409144  0.25967012  1
  V  V47  1  0.75051557  0.12441442  0.87579596  1
  V  V48  1  0.62429017  0.88056032  0.74830608  1
  V  V49  1  0.49341172  0.39118791  0.88202038  1
  V  V50  1  0.24916789  0.75211078  0.49537917  1
  V  V51  1  0.25038899  -0.00028405  0.75086622  1
  V  V52  1  0.88222611  0.12500134  0.74710744  1
  V  V53  1  0.86780600  0.25413916  0.62719361  1
  V  V54  1  0.62373694  0.37090316  0.24745726  1
  V  V55  1  -0.00221665  0.64156939  0.62720096  1
  V  V56  1  0.37312148  0.00973691  0.38163309  1
  V  V57  1  0.12909420  0.62388831  -0.00351090  1
  V  V58  1  -0.00743522  0.37744124  0.37549050  1
  V  V59  1  0.00612014  0.75061104  0.26454491  1
  V  V60  1  0.62051133  0.11709531  0.00364331  1
  V  V61  1  0.12509320  0.63056616  0.49598998  1
  V  V62  1  0.87585921  -0.00286571  0.87990679  1
  V  V63  1  0.24817490  0.37440867  0.62312175  1
  V  V64  1  0.24928311  0.49913630  0.24633333  1
  V  V65  1  0.12691864  0.12504205  0.00442836  1
  V  V66  1  0.50048727  0.62235112  0.11829122  1
  V  V67  1  0.87999769  0.63777154  0.74521354  1
  V  V68  1  0.62249815  0.50090344  0.11659433  1
  V  V69  1  0.75053201  0.37492010  0.12491323  1
  V  V70  1  0.75274037  0.49466935  0.74398977  1
  V  V71  1  0.50070312  0.62443862  0.62218593  1
  V  V72  1  0.12647714  0.25041016  0.87730560  1
  V  V73  1  0.37112162  0.62398886  0.76021655  1
  V  V74  1  0.12091243  0.00734060  0.62550202  1
  V  V75  1  0.48496318  0.24815225  0.23950942  1
  V  V76  1  0.50304192  0.12477639  0.61115153  1
  V  V77  1  -0.00508282  -0.00497012  0.50528942  1
  V  V78  1  0.62508192  0.87515417  0.24979939  1
  V  V79  1  0.25088131  0.74717945  -0.00489412  1
  V  V80  1  0.00197598  0.24891945  0.25523171  1
  V  V81  1  -0.00191661  0.87159816  0.87702374  1
  V  V82  1  0.87580890  0.50098144  0.87376085  1
  V  V83  1  0.75610512  0.49973833  0.25512182  1
  V  V84  1  0.37516043  0.75056927  0.12455710  1
  Zn  Zn85  1  0.74061889  0.24792309  0.50319695  1
  Zn  Zn86  1  0.62421325  0.62247962  -0.00408374  1
  Zn  Zn87  1  0.62023462  -0.00284988  0.12252220  1
  Zn  Zn88  1  0.26354898  0.33423621  0.12921049  1
  Zn  Zn89  1  0.50111337  0.50162661  0.49826177  1
  Zn  Zn90  1  0.49920804  0.75098494  0.25070319  1
  Zn  Zn91  1  0.12649880  0.37736574  0.75343157  1
  Zn  Zn92  1  0.62110944  0.23908006  0.38613980  1
  Zn  Zn93  1  0.75253275  0.00024785  0.74664609  1
  Zn  Zn94  1  0.75230767  0.62682705  0.87322033  1
  Zn  Zn95  1  0.75010280  0.24899394  0.00287995  1
  Zn  Zn96  1  0.62758614  0.62186244  0.49895234  1
  Zn  Zn97  1  0.11885900  0.13520662  0.51003830  1
  Zn  Zn98  1  0.87977054  0.62226010  0.25110148  1
  Zn  Zn99  1  0.62893325  0.37376230  0.74988960  1
  Zn  Zn100  1  0.25185480  0.00364206  0.24663411  1
  Zn  Zn101  1  0.00133568  0.37342113  0.87545232  1
  Zn  Zn102  1  0.73564948  0.12138525  0.39022065  1
  Zn  Zn103  1  0.12837156  0.25782271  0.39034600  1
  Zn  Zn104  1  0.37578493  0.12371781  0.74725613  1
  Zn  Zn105  1  0.75377611  0.87691392  0.12047979  1
  Zn  Zn106  1  -0.00026064  0.62653143  0.12624031  1
  Zn  Zn107  1  0.18981371  0.18328750  0.19900368  1
  Zn  Zn108  1  0.19095226  0.18897713  0.69248748  1
  Zn  Zn109  1  0.18596907  0.69080200  0.18462797  1
  Zn  Zn110  1  0.18835597  0.68696995  0.68554042  1
  Zn  Zn111  1  0.68538030  0.18585366  0.19076603  1
  Zn  Zn112  1  0.68878390  0.18512985  0.68771005  1
  Zn  Zn113  1  0.69024482  0.68632672  0.18685187  1
  Zn  Zn114  1  0.69135260  0.68572901  0.68864828  1
  Zn  Zn115  1  0.30816579  0.31179927  0.31144055  1
  Zn  Zn116  1  0.31486611  0.31691545  0.81134747  1
  Zn  Zn117  1  0.31197282  0.81652134  0.30965272  1
  Zn  Zn118  1  0.31232696  0.81315736  0.81028232  1
  Zn  Zn119  1  0.80946976  0.30876786  0.31728498  1
  Zn  Zn120  1  0.81300583  0.31273920  0.81333628  1
  Zn  Zn121  1  0.81330988  0.80595906  0.30865578  1
  Zn  Zn122  1  0.81051738  0.81598128  0.81082841  1
  Zn  Zn123  1  0.18403437  0.44186747  0.43663322  1
  Zn  Zn124  1  0.19131993  0.43426327  0.94068563  1
  Zn  Zn125  1  0.18862031  0.94524059  0.44198984  1
  Zn  Zn126  1  0.18788895  0.93909676  0.93839681  1
  Zn  Zn127  1  0.67872786  0.42519225  0.44360729  1
  Zn  Zn128  1  0.69013290  0.43551499  0.93387335  1
  Zn  Zn129  1  0.69060161  0.93695766  0.43400514  1
  Zn  Zn130  1  0.68955980  0.93719673  0.93810872  1
  Zn  Zn131  1  0.30738778  0.06504434  0.06484489  1
  Zn  Zn132  1  0.31432945  0.06144924  0.55570876  1
  Zn  Zn133  1  0.31781608  0.55697476  0.05290508  1
  Zn  Zn134  1  0.31384531  0.56374503  0.56567982  1
  Zn  Zn135  1  0.81386203  0.06233205  0.06453555  1
  Zn  Zn136  1  0.81185127  0.06284638  0.56321372  1
  Zn  Zn137  1  0.81025315  0.56868260  0.06390038  1
  Zn  Zn138  1  0.81243458  0.56614749  0.56453186  1
  Zn  Zn139  1  0.43587250  0.43999266  0.18247921  1
  Zn  Zn140  1  0.43778438  0.43862203  0.69234264  1
  Zn  Zn141  1  0.43467559  0.93896101  0.19591485  1
  Zn  Zn142  1  0.43880191  0.94120911  0.68609434  1
  Zn  Zn143  1  0.93984029  0.43799273  0.18558781  1
  Zn  Zn144  1  0.94072067  0.43800707  0.68883902  1
  Zn  Zn145  1  0.94073533  0.93246649  0.19236552  1
  Zn  Zn146  1  0.93947534  0.93745805  0.69126186  1
  Zn  Zn147  1  0.06251830  0.05891782  0.31756464  1
  Zn  Zn148  1  0.06428361  0.06085995  0.81505948  1
  Zn  Zn149  1  0.06247611  0.56239158  0.31276985  1
  Zn  Zn150  1  0.06055462  0.56488789  0.81089689  1
  Zn  Zn151  1  0.55676902  0.06158641  0.31276416  1
  Zn  Zn152  1  0.56062373  0.06576853  0.80778702  1
  Zn  Zn153  1  0.56453281  0.56197849  0.30590137  1
  Zn  Zn154  1  0.56377297  0.56719946  0.80557261  1
  Zn  Zn155  1  0.43532175  0.19154751  0.43273915  1
  Zn  Zn156  1  0.43549086  0.19155691  0.94534681  1
  Zn  Zn157  1  0.43715859  0.69079685  0.43602182  1
  Zn  Zn158  1  0.44042093  0.69138179  0.93887621  1
  Zn  Zn159  1  0.94097283  0.18572955  0.44597198  1
  Zn  Zn160  1  0.94070786  0.18744070  0.93840237  1
  Zn  Zn161  1  0.93697182  0.68703675  0.43909026  1
  Zn  Zn162  1  0.93951647  0.68570746  0.93758579  1
  Zn  Zn163  1  0.06527790  0.30858024  0.06617025  1
  Zn  Zn164  1  0.05711390  0.31242578  0.56499930  1
  Zn  Zn165  1  0.05951852  0.80987894  0.06196477  1
  Zn  Zn166  1  0.06439573  0.81894891  0.55516322  1
  Zn  Zn167  1  0.55873476  0.31063072  0.05877092  1
  Zn  Zn168  1  0.55741750  0.31372462  0.56241195  1
  Zn  Zn169  1  0.56267239  0.81122616  0.06409936  1
  Zn  Zn170  1  0.56912423  0.81123639  0.56156639  1
  O  O171  1  0.10854373  0.12179087  0.11977560  1
  O  O172  1  0.13293856  0.10983556  0.63149733  1
  O  O173  1  0.12439125  0.61784454  0.11278264  1
  O  O174  1  0.11922598  0.61941017  0.61702538  1
  O  O175  1  0.62086746  0.12299021  0.11675377  1
  O  O176  1  0.62017469  0.11047243  0.63040335  1
  O  O177  1  0.61746445  0.61817285  0.12590933  1
  O  O178  1  0.61435621  0.62008116  0.62654319  1
  O  O179  1  0.37727507  0.38042488  0.37986047  1
  O  O180  1  0.38927309  0.37661621  0.87622463  1
  O  O181  1  0.39069702  0.86726528  0.37789142  1
  O  O182  1  0.37830209  0.88208103  0.88149234  1
  O  O183  1  0.88811294  0.37147280  0.38338235  1
  O  O184  1  0.87556408  0.38530934  0.88180115  1
  O  O185  1  0.87048770  0.88383799  0.37416349  1
  O  O186  1  0.88618585  0.88514686  0.86538235  1
  O  O187  1  0.25860049  0.00681030  0.37574299  1
  O  O188  1  0.25811862  0.00638122  0.87033579  1
  O  O189  1  0.25408359  0.50701675  0.36732001  1
  O  O190  1  0.24163571  0.49582200  0.85829563  1
  O  O191  1  0.76305851  0.00202445  0.36861783  1
  O  O192  1  0.75933766  0.00624073  0.87394136  1
  O  O193  1  0.73701686  0.50796959  0.36591915  1
  O  O194  1  0.75975465  0.50386544  0.86690092  1
  O  O195  1  0.23750620  0.50646427  0.12929453  1
  O  O196  1  0.24110955  0.49483355  0.62899821  1
  O  O197  1  0.25632334  0.98607370  0.12920941  1
  O  O198  1  0.24513106  0.99238545  0.62883170  1
  O  O199  1  0.74243788  0.49537584  0.13341213  1
  O  O200  1  0.73954148  0.50698325  0.63230379  1
  O  O201  1  0.75177075  0.99604154  0.13716490  1
  O  O202  1  0.73750153  0.98983565  0.62578993  1
  O  O203  1  0.00277920  0.37179082  0.25826047  1
  O  O204  1  0.00560125  0.36525827  0.75454378  1
  O  O205  1  0.01377289  0.86305625  0.24945275  1
  O  O206  1  0.01240951  0.87942702  0.76069858  1
  O  O207  1  0.50282726  0.36767676  0.25093925  1
  O  O208  1  0.49994315  0.36397139  0.76056298  1
  O  O209  1  0.51218607  0.87244829  0.25993983  1
  O  O210  1  0.50698053  0.87173095  0.75472355  1
  O  O211  1  0.50198204  0.14074876  0.23903392  1
  O  O212  1  0.49715687  0.13662763  0.73992628  1
  O  O213  1  0.49227557  0.62809148  0.24001859  1
  O  O214  1  0.49229329  0.63297943  0.73983138  1
  O  O215  1  0.99417888  0.12566947  0.24561681  1
  O  O216  1  0.99100973  0.13336409  0.76074675  1
  O  O217  1  1.00240931  0.63682122  0.24916681  1
  O  O218  1  0.99290336  0.62192446  0.73852879  1
  O  O219  1  0.38221079  0.27488617  -0.00605363  1
  O  O220  1  0.37920064  0.26270082  0.51059706  1
  O  O221  1  0.36686644  0.75920608  0.00242102  1
  O  O222  1  0.36530682  0.74468879  0.51273722  1
  O  O223  1  0.87523143  0.25468488  0.00735112  1
  O  O224  1  0.88233503  0.25963038  0.51419145  1
  O  O225  1  0.86812481  0.74460357  0.00704784  1
  O  O226  1  0.86197676  0.75010544  0.49733395  1
  O  O227  1  0.12114272  0.24801015  0.50332655  1
  O  O228  1  0.11237229  0.23498587  0.98813585  1
  O  O229  1  0.13603609  0.73970625  0.50673796  1
  O  O230  1  0.13228505  0.74307888  0.99305135  1
  O  O231  1  0.63527457  0.29301270  0.48803510  1
  O  O232  1  0.62629094  0.23917629  0.99005285  1
  O  O233  1  0.63534998  0.74778488  0.48888660  1
  O  O234  1  0.63123665  0.75177606  0.98923113  1
  O  O235  1  0.50206231  0.24358861  0.13455349  1
  O  O236  1  0.49289920  0.24633301  0.63219839  1
  O  O237  1  0.49370368  0.74182754  0.12839232  1
  O  O238  1  0.49452351  0.74657939  0.62804199  1
  O  O239  1  0.99502203  0.23965258  0.13386515  1
  O  O240  1  0.99093008  0.25093444  0.64058984  1
  O  O241  1  0.99296315  0.74737392  0.12898942  1
  O  O242  1  1.00727139  0.74029218  0.61780968  1
  O  O243  1  0.00047032  0.26010088  0.37147881  1
  O  O244  1  0.00856573  0.25016462  0.86664415  1
  O  O245  1  -0.00189561  0.74777217  0.36361693  1
  O  O246  1  0.01282397  0.76096009  0.88339946  1
  O  O247  1  0.49726014  0.26171750  0.36096150  1
  O  O248  1  0.50865542  0.24820587  0.86658527  1
  O  O249  1  0.50991162  0.75801278  0.37362421  1
  O  O250  1  0.50871627  0.75979280  0.86951599  1
  O  O251  1  0.24433236  0.11876696  0.48559221  1
  O  O252  1  0.23855682  0.11568146  0.98825409  1
  O  O253  1  0.24352112  0.63181078  0.49712448  1
  O  O254  1  0.24281264  0.63657719  1.00282399  1
  O  O255  1  0.75900030  0.13488477  0.50067218  1
  O  O256  1  0.74380666  0.12598859  0.99022118  1
  O  O257  1  0.74828501  0.63223512  0.49316243  1
  O  O258  1  0.74500411  0.63850197  0.99451909  1
  O  O259  1  0.25886108  0.37283857  0.00562598  1
  O  O260  1  0.25844337  0.38407678  0.50972375  1
  O  O261  1  0.25694565  0.86926355  0.00528032  1
  O  O262  1  0.24009336  0.86625781  0.51339367  1
  O  O263  1  0.75743876  0.37209778  0.00666492  1
  O  O264  1  0.77183878  0.38029611  0.49269807  1
  O  O265  1  0.74706108  0.86121574  0.00127107  1
  O  O266  1  0.74540080  0.86925113  0.51280228  1
  O  O267  1  0.12904104  0.49594466  0.24231036  1
  O  O268  1  0.13150159  0.50327074  0.73932785  1
  O  O269  1  0.12298658  0.98072901  0.25590466  1
  O  O270  1  0.12942809  0.99078700  0.74594674  1
  O  O271  1  0.63235338  0.49073341  0.23830382  1
  O  O272  1  0.63665095  0.50240428  0.74340828  1
  O  O273  1  0.63564888  0.99150420  0.25293767  1
  O  O274  1  0.62691290  0.98968796  0.74829050  1
  O  O275  1  0.36599953  -0.01621942  0.27299105  1
  O  O276  1  0.36884858  0.00072493  0.75994181  1
  O  O277  1  0.36796720  0.50642946  0.25327432  1
  O  O278  1  0.36522319  0.51206705  0.74140580  1
  O  O279  1  0.87121051  0.00236485  0.26163946  1
  O  O280  1  0.87668174  0.00897611  0.76150762  1
  O  O281  1  0.86029211  0.49929954  0.24466064  1
  O  O282  1  0.87090102  0.50496443  0.75607817  1
  O  O283  1  0.11485301  0.37782353  0.36917893  1
  O  O284  1  0.12663592  0.36115328  0.87585662  1
  O  O285  1  0.13323295  0.87157255  0.36882905  1
  O  O286  1  0.11950716  0.86957635  0.86824414  1
  O  O287  1  0.60911725  0.38443976  0.35875966  1
  O  O288  1  0.61693239  0.36404351  0.87385803  1
  O  O289  1  0.61957037  0.86862210  0.36909308  1
  O  O290  1  0.62120043  0.87082596  0.86730114  1
  O  O291  1  0.38807511  0.12376670  0.11863398  1
  O  O292  1  0.38126611  0.13306457  0.62323489  1
  O  O293  1  0.38086756  0.62876386  0.12613856  1
  O  O294  1  0.38317882  0.63528407  0.63099004  1
  O  O295  1  0.88359257  0.12797764  0.13514423  1
  O  O296  1  0.87062190  0.13110386  0.64257000  1
  O  O297  1  0.87789813  0.63630804  0.13011076  1
  O  O298  1  0.88627921  0.62227815  0.63318303  1
  O  O299  1  0.22612272  0.23388177  0.11079162  1
  O  O300  1  0.26036684  0.26159290  0.63370240  1
  O  O301  1  0.25469774  0.75855979  0.11325050  1
  O  O302  1  0.25676190  0.75704955  0.61803051  1
  O  O303  1  0.75698869  0.25600761  0.12690290  1
  O  O304  1  0.76379136  0.25134427  0.63004177  1
  O  O305  1  0.75820183  0.75082611  0.11801535  1
  O  O306  1  0.74057566  0.76412757  0.61734651  1
  O  O307  1  0.25022272  0.23632987  0.37371556  1
  O  O308  1  0.24194686  0.23950000  0.86578975  1
  O  O309  1  0.25888524  0.74570978  0.38881824  1
  O  O310  1  0.23954022  0.76024022  0.88589971  1
  O  O311  1  0.74398220  0.24346974  0.37824460  1
  O  O312  1  0.74023021  0.24133960  0.87418500  1
  O  O313  1  0.74407788  0.74268607  0.38084189  1
  O  O314  1  0.74230174  0.75226218  0.88019539  1
  O  O315  1  0.00495574  0.11632591  0.00788083  1
  O  O316  1  0.00328639  0.10470773  0.49591250  1
  O  O317  1  0.01286578  0.61780388  0.00019278  1
  O  O318  1  0.00586160  0.62032417  0.50541845  1
  O  O319  1  0.50798151  0.13164723  0.01560355  1
  O  O320  1  0.50053705  0.13749932  0.51244205  1
  O  O321  1  0.50310266  0.63111138  0.01319678  1
  O  O322  1  0.50081339  0.62523944  0.51073121  1
  O  O323  1  0.48580947  0.37875164  0.48765820  1
  O  O324  1  0.50170018  0.37735326  0.98468887  1
  O  O325  1  0.50818147  0.87249150  0.48630540  1
  O  O326  1  0.48678296  0.86985710  0.99516820  1
  O  O327  1  0.99419846  0.38489123  0.49460821  1
  O  O328  1  0.99422412  0.38135948  1.00032502  1
  O  O329  1  1.00519285  0.89334035  0.49728362  1
  O  O330  1  1.00823862  0.88514482  0.98879418  1
  O  O331  1  0.49193696  0.49144333  0.37012080  1
  O  O332  1  0.50901258  0.48843772  0.86666370  1
  O  O333  1  0.48789802  0.98768473  0.37106745  1
  O  O334  1  0.48686736  0.99743189  0.86847783  1
  O  O335  1  1.00485940  0.49310175  0.38727330  1
  O  O336  1  0.99250712  0.49748662  0.88014047  1
  O  O337  1  0.98525464  0.99729249  0.38147718  1
  O  O338  1  0.99438519  0.99330215  0.88286481  1
  O  O339  1  -0.01159532  0.00587018  0.11509832  1
  O  O340  1  0.00643299  -0.00438069  0.61689465  1
  O  O341  1  0.01203506  0.50309602  0.11973667  1
  O  O342  1  0.01117420  0.50513431  0.61716993  1
  O  O343  1  0.50206301  0.01675052  0.13909929  1
  O  O344  1  0.51166392  0.00858547  0.62737803  1
  O  O345  1  0.51098858  0.51023711  0.13107711  1
  O  O346  1  0.50545213  0.51130414  0.62771934  1
  O  O347  1  0.24320547  0.38066041  0.24489288  1
  O  O348  1  0.25039521  0.38555545  0.73796354  1
  O  O349  1  0.23349812  0.86763084  0.24183887  1
  O  O350  1  0.24126023  0.87936721  0.74159795  1
  O  O351  1  0.74217670  0.38071682  0.24639929  1
  O  O352  1  0.74995665  0.38936962  0.75382309  1
  O  O353  1  0.74179204  0.88237936  0.25213652  1
  O  O354  1  0.73957662  0.87530867  0.73846354  1
  O  O355  1  0.24243944  0.11602781  0.27042481  1
  O  O356  1  0.25366677  0.11784349  0.76211378  1
  O  O357  1  0.25308940  0.62194365  0.25408501  1
  O  O358  1  0.25938632  0.61833623  0.74197574  1
  O  O359  1  0.76042361  0.11383823  0.24798014  1
  O  O360  1  0.75794583  0.12264353  0.76267753  1
  O  O361  1  0.74962757  0.61615392  0.25858925  1
  O  O362  1  0.76144940  0.61622227  0.75062352  1
  O  O363  1  0.36829332  0.11538517  0.37866230  1
  O  O364  1  0.36828634  0.11865261  0.87937050  1
  O  O365  1  0.36945197  0.62157643  0.36847326  1
  O  O366  1  0.38137716  0.63535603  0.85928650  1
  O  O367  1  0.87868892  0.12057111  0.36313545  1
  O  O368  1  0.86828936  0.11963643  0.87021396  1
  O  O369  1  0.86035569  0.62684464  0.37282393  1
  O  O370  1  0.87903846  0.61467161  0.86569306  1
  O  O371  1  0.12280331  0.38596471  0.13119547  1
  O  O372  1  0.13256710  0.38567822  0.62503826  1
  O  O373  1  0.13566785  0.87166398  0.12166890  1
  O  O374  1  0.13217678  0.88245457  0.63372569  1
  O  O375  1  0.62804129  0.38097704  0.12900358  1
  O  O376  1  0.61104608  0.39191585  0.63282188  1
  O  O377  1  0.62587948  0.87688947  0.13649153  1
  O  O378  1  0.62600097  0.88718762  0.63157751  1
  O  O379  1  0.11581021  0.25765517  0.25726441  1
  O  O380  1  0.11762274  0.24893789  0.75899224  1
  O  O381  1  0.11332059  0.75694716  0.24716260  1
  O  O382  1  0.13382177  0.75933936  0.75918857  1
  O  O383  1  0.61688004  0.26419596  0.24805559  1
  O  O384  1  0.61750656  0.24953934  0.75710844  1
  O  O385  1  0.62961478  0.75835787  0.26058706  1
  O  O386  1  0.62124180  0.76094013  0.75584634  1
  O  O387  1  0.38635092  0.25612753  0.24698459  1
  O  O388  1  0.38302568  0.24976862  0.73884743  1
  O  O389  1  0.37302348  0.74369232  0.24130213  1
  O  O390  1  0.37802637  0.74575371  0.73966194  1
  O  O391  1  0.88125418  0.24175310  0.24642372  1
  O  O392  1  0.88184149  0.24495888  0.74820361  1
  O  O393  1  0.89012195  0.74861804  0.24390135  1
  O  O394  1  0.87099052  0.73651389  0.75587737  1
  O  O395  1  0.37624377  0.49338341  0.49383256  1
  O  O396  1  0.37537561  0.48146353  0.99481404  1
  O  O397  1  0.37197740  0.99284491  0.48262885  1
  O  O398  1  0.36734780  0.98987170  0.99004466  1
  O  O399  1  0.88847740  0.49428033  0.51039684  1
  O  O400  1  0.87920880  0.49769988  0.99327512  1
  O  O401  1  0.88262288  0.99963764  0.49068039  1
  O  O402  1  0.88482203  1.00654069  0.98794144  1
  O  O403  1  0.11315292  0.01240533  -0.00805631  1
  O  O404  1  0.11532201  0.00188707  0.51140841  1
  O  O405  1  0.12361099  0.50583721  0.00460872  1
  O  O406  1  0.11849957  0.51012377  0.50896184  1
  O  O407  1  0.62786439  0.01159062  0.00058576  1
  O  O408  1  0.62623547  -0.00247892  0.51109926  1
  O  O409  1  0.63479100  0.50193785  0.01260123  1
  O  O410  1  0.62083360  0.50183031  0.51059402  1
  O  O411  1  0.37170420  0.37715122  0.11498595  1
  O  O412  1  0.36907891  0.37102220  0.61804185  1
  O  O413  1  0.37052172  0.87033889  0.11798729  1
  O  O414  1  0.36489976  0.86682929  0.63288538  1
  O  O415  1  0.87074949  0.36943751  0.12093556  1
  O  O416  1  0.88227608  0.36697539  0.61898783  1
  O  O417  1  0.87358948  0.86029729  0.13177625  1
  O  O418  1  0.85682107  0.88204696  0.63295564  1
  O  O419  1  0.13297757  0.12551023  0.38022205  1
  O  O420  1  0.13267074  0.13072726  0.88132840  1
  O  O421  1  0.13167742  0.61893994  0.38901281  1
  O  O422  1  0.12050289  0.63558340  0.88319169  1
  O  O423  1  0.62285324  0.12723384  0.37059960  1
  O  O424  1  0.63036199  0.12923557  0.88025825  1
  O  O425  1  0.63078001  0.63411354  0.37349853  1
  O  O426  1  0.62407029  0.64114074  0.87200796  1
