# generated using pymatgen
data_V85Zn86O256
_symmetry_space_group_name_H-M   'P 1'
_cell_length_a   16.95916921
_cell_length_b   16.94252711
_cell_length_c   16.94319258
_cell_angle_alpha   90.09134998
_cell_angle_beta   89.87129937
_cell_angle_gamma   90.02273446
_symmetry_Int_Tables_number   1
_chemical_formula_structural   V85Zn86O256
_chemical_formula_sum   'V85 Zn86 O256'
_cell_volume   4868.28874066
_cell_formula_units_Z   1
loop_
 _symmetry_equiv_pos_site_id
 _symmetry_equiv_pos_as_xyz
  1  'x, y, z'
loop_
 _atom_site_type_symbol
 _atom_site_label
 _atom_site_symmetry_multiplicity
 _atom_site_fract_x
 _atom_site_fract_y
 _atom_site_fract_z
 _atom_site_occupancy
  V  V0  1  0.37495961  0.12003571  0.24931632  1
  V  V1  1  0.12270936  0.37491997  0.75148652  1
  V  V2  1  0.86785465  0.75505908  0.62382641  1
  V  V3  1  0.37439700  0.49857744  0.37286320  1
  V  V4  1  0.00446045  0.25491500  0.24572529  1
  V  V5  1  0.12163530  0.49769045  0.62015640  1
  V  V6  1  0.75443059  0.50571632  0.24866616  1
  V  V7  1  0.13196679  -0.00604223  0.12487282  1
  V  V8  1  0.50697956  0.50164048  0.01475826  1
  V  V9  1  0.50717339  0.37137564  0.87346214  1
  V  V10  1  0.50127721  0.74773155  0.75018073  1
  V  V11  1  0.87393985  0.37804338  0.00131358  1
  V  V12  1  0.73992056  0.38149870  0.12634248  1
  V  V13  1  0.13683038  0.37337173  0.24253338  1
  V  V14  1  0.49972006  -0.00142119  -0.00246027  1
  V  V15  1  -0.00210115  0.88914452  0.37862315  1
  V  V16  1  0.49951638  -0.00005334  0.50588093  1
  V  V17  1  0.25151853  0.13012091  0.87762294  1
  V  V18  1  0.62541474  0.74526863  0.87748252  1
  V  V19  1  0.25138703  0.63064242  0.88041058  1
  V  V20  1  -0.00149272  0.62338911  0.61920098  1
  V  V21  1  0.38369183  0.24558508  0.63018195  1
  V  V22  1  0.13145419  0.49800172  0.12327221  1
  V  V23  1  0.36370015  0.37263989  0.00415306  1
  V  V24  1  0.75521417  0.12184008  0.87656892  1
  V  V25  1  0.87448994  0.25383969  0.12428039  1
  V  V26  1  0.49697666  0.49608201  0.49105970  1
  V  V27  1  0.36263816  0.25003276  0.12121136  1
  V  V28  1  0.75426700  -0.00116146  0.25040720  1
  V  V29  1  0.87248449  0.62734544  0.75045550  1
  V  V30  1  0.12833849  0.87535625  0.24853395  1
  V  V31  1  -0.00847451  0.74306835  0.25279342  1
  V  V32  1  0.61777904  0.25672877  0.37118735  1
  V  V33  1  0.11526629  0.02689791  0.62183874  1
  V  V34  1  0.87596579  -0.01021634  0.88089458  1
  V  V35  1  0.74955795  0.24944642  0.00012601  1
  V  V36  1  0.36049626  0.75365846  0.12321721  1
  V  V37  1  0.87564541  0.50147965  0.87315437  1
  V  V38  1  0.24805538  0.12225743  0.37805232  1
  V  V39  1  0.62954853  -0.00455083  0.12517408  1
  V  V40  1  -0.00131717  0.24517600  0.74542799  1
  V  V41  1  0.77008335  0.62098832  0.37634607  1
  V  V42  1  0.37495597  -0.00073043  0.87348501  1
  V  V43  1  0.49914433  0.25586024  0.25180158  1
  V  V44  1  0.87100082  0.75746938  0.11822319  1
  V  V45  1  0.74964243  0.12626744  0.37395497  1
  V  V46  1  0.49996838  0.12426097  0.12382155  1
  V  V47  1  0.37586167  0.62736720  0.24735972  1
  V  V48  1  0.74951407  0.76274774  0.00465328  1
  V  V49  1  0.74154306  0.26433773  0.50328913  1
  V  V50  1  0.87416407  0.88745052  0.50212511  1
  V  V51  1  0.12961019  0.62315275  0.49613631  1
  V  V52  1  0.12665682  0.63210598  0.00186210  1
  V  V53  1  0.73980469  0.48952713  0.74777238  1
  V  V54  1  0.50116892  0.74671850  0.24068897  1
  V  V55  1  0.62428164  0.62465810  0.49572684  1
  V  V56  1  0.25241577  0.37363591  0.62253971  1
  V  V57  1  0.12648763  0.25091586  0.87938286  1
  V  V58  1  -0.00092261  -0.00798273  0.00098119  1
  V  V59  1  0.62057905  0.12210470  0.50253513  1
  V  V60  1  0.12865833  0.12787004  0.00098569  1
  V  V61  1  -0.00088304  0.50189413  0.00335201  1
  V  V62  1  0.85425595  0.24890571  0.63090575  1
  V  V63  1  0.37995321  0.12475338  0.74768140  1
  V  V64  1  0.24858777  0.74643109  0.49315303  1
  V  V65  1  0.50268827  0.62216740  0.62458664  1
  V  V66  1  0.87511186  0.12535642  0.25087936  1
  V  V67  1  0.62639220  0.12342137  0.00047949  1
  V  V68  1  0.00559761  0.87400983  0.86761139  1
  V  V69  1  0.62236104  0.62504821  0.01987722  1
  V  V70  1  0.75395642  -0.00682320  0.74510057  1
  V  V71  1  0.62998303  0.87468643  0.24859854  1
  V  V72  1  0.36196297  0.87076582  0.00350182  1
  V  V73  1  0.49830292  0.87566971  0.87477891  1
  V  V74  1  0.23230747  0.87415220  0.62929091  1
  V  V75  1  0.00006935  0.37579390  0.87476665  1
  V  V76  1  0.12632392  0.75265518  0.86854927  1
  V  V77  1  0.37351102  0.87285340  0.50399500  1
  V  V78  1  0.24861983  0.50866434  0.25314180  1
  V  V79  1  0.25100980  0.50114302  0.75172940  1
  V  V80  1  0.62651047  0.87398354  0.74806119  1
  V  V81  1  0.37678238  0.62436243  0.75149204  1
  V  V82  1  0.13246444  0.24772960  0.37405358  1
  V  V83  1  0.63120624  -0.00734104  0.62251530  1
  V  V84  1  0.50050225  0.87237201  0.37540113  1
  Zn  Zn85  1  -0.00094288  0.12265136  0.12138413  1
  Zn  Zn86  1  0.24867346  0.24070056  0.50764639  1
  Zn  Zn87  1  0.25415899  -0.00891660  0.24842483  1
  Zn  Zn88  1  0.88675787  0.11522113  0.74319468  1
  Zn  Zn89  1  0.62833996  0.25282545  0.87037458  1
  Zn  Zn90  1  0.37514276  0.36576644  0.48746956  1
  Zn  Zn91  1  0.00558233  0.38922132  0.39619636  1
  Zn  Zn92  1  0.56330635  0.30147424  0.71420314  1
  Zn  Zn93  1  0.00226331  0.75516390  0.74586171  1
  Zn  Zn94  1  -0.00670272  0.62272020  0.12962004  1
  Zn  Zn95  1  0.63024839  0.74866455  0.37382303  1
  Zn  Zn96  1  0.62641074  0.47583521  0.62376923  1
  Zn  Zn97  1  0.12539041  0.74731111  0.37170640  1
  Zn  Zn98  1  0.37336748  0.74919794  0.62556786  1
  Zn  Zn99  1  0.74899729  0.75784482  0.50003685  1
  Zn  Zn100  1  0.37118877  -0.00147275  0.37619503  1
  Zn  Zn101  1  0.61408331  0.38931508  0.24748259  1
  Zn  Zn102  1  0.75130700  0.62491378  0.88151442  1
  Zn  Zn103  1  0.00028718  0.04284005  0.49953382  1
  Zn  Zn104  1  0.88619216  0.38414836  0.49778264  1
  Zn  Zn105  1  0.37740435  0.49927210  0.88056410  1
  Zn  Zn106  1  0.24334372  -0.00506384  0.75150337  1
  Zn  Zn107  1  0.18839548  0.17822371  0.18760956  1
  Zn  Zn108  1  0.19246525  0.18949005  0.69541082  1
  Zn  Zn109  1  0.18368682  0.68793300  0.18936043  1
  Zn  Zn110  1  0.18853345  0.68746524  0.68486146  1
  Zn  Zn111  1  0.68613816  0.18861530  0.18604876  1
  Zn  Zn112  1  0.68826690  0.17662026  0.68948091  1
  Zn  Zn113  1  0.69499271  0.68958260  0.19266478  1
  Zn  Zn114  1  0.68823665  0.68252166  0.68664757  1
  Zn  Zn115  1  0.31275653  0.31301089  0.30606048  1
  Zn  Zn116  1  0.31706505  0.31311512  0.81459608  1
  Zn  Zn117  1  0.31378946  0.81046571  0.31388280  1
  Zn  Zn118  1  0.31341705  0.81158337  0.81168376  1
  Zn  Zn119  1  0.81084030  0.32181669  0.31272913  1
  Zn  Zn120  1  0.81428339  0.31305257  0.81282503  1
  Zn  Zn121  1  0.81618285  0.81214147  0.31793032  1
  Zn  Zn122  1  0.81301416  0.81119780  0.81578050  1
  Zn  Zn123  1  0.18949745  0.43404699  0.43470066  1
  Zn  Zn124  1  0.18602403  0.44183177  0.93693291  1
  Zn  Zn125  1  0.18117514  0.94289908  0.44136453  1
  Zn  Zn126  1  0.18645913  0.93933027  0.93553895  1
  Zn  Zn127  1  0.68280284  0.44439570  0.42879669  1
  Zn  Zn128  1  0.68767411  0.44141173  0.93683268  1
  Zn  Zn129  1  0.68997775  0.93886016  0.43244221  1
  Zn  Zn130  1  0.68494661  0.93741980  0.93415425  1
  Zn  Zn131  1  0.31269710  0.05954942  0.06140343  1
  Zn  Zn132  1  0.30871837  0.05885608  0.56420550  1
  Zn  Zn133  1  0.31648651  0.56418861  0.06531451  1
  Zn  Zn134  1  0.31414405  0.56277134  0.56238240  1
  Zn  Zn135  1  0.81391303  0.05980246  0.06437645  1
  Zn  Zn136  1  0.81437792  0.06970590  0.56012246  1
  Zn  Zn137  1  0.81163925  0.57098029  0.06759278  1
  Zn  Zn138  1  0.80651122  0.55941935  0.56171357  1
  Zn  Zn139  1  0.43127945  0.43629466  0.18550855  1
  Zn  Zn140  1  0.43797202  0.43828299  0.68516783  1
  Zn  Zn141  1  0.43990953  0.93387784  0.18380575  1
  Zn  Zn142  1  0.43726171  0.93962560  0.68881902  1
  Zn  Zn143  1  0.95890931  0.46249698  0.22699200  1
  Zn  Zn144  1  0.91450466  0.45254569  0.65577035  1
  Zn  Zn145  1  0.94064195  0.93529934  0.18675572  1
  Zn  Zn146  1  0.94486423  0.94182330  0.68393265  1
  Zn  Zn147  1  0.06128715  0.06561584  0.30987546  1
  Zn  Zn148  1  0.06685194  0.05966050  0.81041026  1
  Zn  Zn149  1  0.06243467  0.56029394  0.32186201  1
  Zn  Zn150  1  0.06108670  0.56559538  0.81065332  1
  Zn  Zn151  1  0.56104626  0.06273586  0.31470526  1
  Zn  Zn152  1  0.57592529  0.08615215  0.79677971  1
  Zn  Zn153  1  0.56404693  0.56396413  0.30804846  1
  Zn  Zn154  1  0.55920031  0.55842280  0.82100609  1
  Zn  Zn155  1  0.43377156  0.18610785  0.43836640  1
  Zn  Zn156  1  0.43665721  0.18900935  0.93746517  1
  Zn  Zn157  1  0.43449709  0.68462192  0.43257732  1
  Zn  Zn158  1  0.43816214  0.68633743  0.94287688  1
  Zn  Zn159  1  0.92321310  0.22326978  0.42396802  1
  Zn  Zn160  1  0.94080436  0.18408169  0.93572176  1
  Zn  Zn161  1  0.94182815  0.69517904  0.44243126  1
  Zn  Zn162  1  0.93890188  0.68972199  0.94006562  1
  Zn  Zn163  1  0.06324176  0.31474552  0.06352190  1
  Zn  Zn164  1  0.03543286  0.24438128  0.53700425  1
  Zn  Zn165  1  0.06204805  0.81122759  0.06336604  1
  Zn  Zn166  1  0.05745093  0.80793469  0.55895054  1
  Zn  Zn167  1  0.55768226  0.30984313  0.05955845  1
  Zn  Zn168  1  0.55783429  0.31447450  0.54909906  1
  Zn  Zn169  1  0.55880392  0.81351530  0.06165604  1
  Zn  Zn170  1  0.56449384  0.80915413  0.56311461  1
  O  O171  1  0.12278660  0.11481281  0.11656041  1
  O  O172  1  0.13410254  0.12585206  0.61850323  1
  O  O173  1  0.12359064  0.61935892  0.11547589  1
  O  O174  1  0.11859093  0.61832594  0.61939267  1
  O  O175  1  0.62052807  0.11556827  0.12028255  1
  O  O176  1  0.62921279  0.11042385  0.60974054  1
  O  O177  1  0.62542401  0.63344603  0.11858251  1
  O  O178  1  0.61554831  0.62537425  0.61380617  1
  O  O179  1  0.37010934  0.39130928  0.37036472  1
  O  O180  1  0.38333493  0.37481381  0.88972551  1
  O  O181  1  0.38225226  0.87608104  0.38562727  1
  O  O182  1  0.37966204  0.87784331  0.88129566  1
  O  O183  1  0.88827318  0.33472463  0.39010088  1
  O  O184  1  0.87984386  0.38129923  0.88270871  1
  O  O185  1  0.88856417  0.87569202  0.38511133  1
  O  O186  1  0.88463898  0.88384825  0.87534847  1
  O  O187  1  0.25027236  0.00690278  0.37102645  1
  O  O188  1  0.25599363  0.00916298  0.87288039  1
  O  O189  1  0.25610604  0.49956654  0.36188812  1
  O  O190  1  0.25016551  0.51031667  0.86519298  1
  O  O191  1  0.74407542  0.01493570  0.36252590  1
  O  O192  1  0.75964153  0.00129301  0.87168364  1
  O  O193  1  0.75355307  0.51099664  0.36692567  1
  O  O194  1  0.75727644  0.50515868  0.86748403  1
  O  O195  1  0.23936727  0.50734680  0.13396030  1
  O  O196  1  0.24628131  0.49548172  0.63461161  1
  O  O197  1  0.23662373  1.00164916  0.12708247  1
  O  O198  1  0.23737786  0.98586925  0.62048768  1
  O  O199  1  0.74873296  0.49360817  0.13375293  1
  O  O200  1  0.74016101  0.50650072  0.64309523  1
  O  O201  1  0.73850350  1.00445952  0.13512166  1
  O  O202  1  0.74412904  1.00369469  0.63412444  1
  O  O203  1  0.01688649  0.36068085  0.23685878  1
  O  O204  1  0.00718554  0.36513872  0.75914956  1
  O  O205  1  0.00512539  0.87120185  0.26305877  1
  O  O206  1  -0.00021260  0.87573256  0.76309446  1
  O  O207  1  0.49861334  0.36022369  0.24243292  1
  O  O208  1  0.49245400  0.37862626  0.76887648  1
  O  O209  1  0.50852633  0.87017583  0.25789849  1
  O  O210  1  0.50593429  0.86876383  0.75423039  1
  O  O211  1  0.49152351  0.12934355  0.24506438  1
  O  O212  1  0.47937684  0.11571273  0.75049957  1
  O  O213  1  0.49216487  0.63848947  0.25528648  1
  O  O214  1  0.49757434  0.62632311  0.74391578  1
  O  O215  1  0.98973956  0.13195603  0.24438690  1
  O  O216  1  0.99738675  0.13997100  0.77033602  1
  O  O217  1  1.00740080  0.64159002  0.25312412  1
  O  O218  1  0.98802077  0.62605326  0.74077608  1
  O  O219  1  0.37934335  0.26303916  0.00747906  1
  O  O220  1  0.37122542  0.24901853  0.51299638  1
  O  O221  1  0.38188530  0.75799555  0.01134963  1
  O  O222  1  0.36799455  0.75621258  0.50036382  1
  O  O223  1  0.87096735  0.25415863  0.00651424  1
  O  O224  1  0.85101964  0.24597675  0.51933683  1
  O  O225  1  0.86634432  0.75056297  0.00861288  1
  O  O226  1  0.87333636  0.76202926  0.50824903  1
  O  O227  1  0.13595916  0.25128982  0.47735834  1
  O  O228  1  0.11794700  0.23646498  0.99641232  1
  O  O229  1  0.13203223  0.74062509  0.49941828  1
  O  O230  1  0.12046266  0.73865750  0.99124342  1
  O  O231  1  0.62380999  0.23952099  0.49158697  1
  O  O232  1  0.63180312  0.24021235  0.99711919  1
  O  O233  1  0.63048005  0.74153671  0.49753899  1
  O  O234  1  0.62729747  0.74469722  0.99640217  1
  O  O235  1  0.49267216  0.24129289  0.13185384  1
  O  O236  1  0.48418251  0.25142652  0.62418778  1
  O  O237  1  0.49201596  0.75661735  0.13771236  1
  O  O238  1  0.49972876  0.73921250  0.63111555  1
  O  O239  1  0.99051002  0.24616537  0.12699544  1
  O  O240  1  0.99285456  0.24416582  0.64368580  1
  O  O241  1  0.99301946  0.75012274  0.13666256  1
  O  O242  1  0.99066017  0.74105765  0.62763646  1
  O  O243  1  0.02009425  0.24608195  0.35167739  1
  O  O244  1  0.00578971  0.25871603  0.87380453  1
  O  O245  1  0.00012724  0.75879798  0.36322475  1
  O  O246  1  0.00708961  0.75883579  0.87497721  1
  O  O247  1  0.50548408  0.24171251  0.36442887  1
  O  O248  1  0.50242538  0.26669300  0.88476915  1
  O  O249  1  0.49955419  0.76128344  0.36650265  1
  O  O250  1  0.50761236  0.75391621  0.87096304  1
  O  O251  1  0.25809340  0.12350552  0.48253554  1
  O  O252  1  0.24033548  0.11839097  0.99028342  1
  O  O253  1  0.24149226  0.63562006  0.51116867  1
  O  O254  1  0.24168257  0.61635981  0.98914900  1
  O  O255  1  0.73873764  0.12875561  0.49003158  1
  O  O256  1  0.74792799  0.12806249  0.99518921  1
  O  O257  1  0.74252438  0.62055730  0.48814298  1
  O  O258  1  0.73819086  0.63544829  1.00017446  1
  O  O259  1  0.26542033  0.38321033  -0.00427929  1
  O  O260  1  0.25564055  0.37567185  0.51262854  1
  O  O261  1  0.26305797  0.87697276  -0.00561629  1
  O  O262  1  0.25465753  0.86832448  0.50902161  1
  O  O263  1  0.75382263  0.37144421  0.00626896  1
  O  O264  1  0.73941108  0.36475923  0.49574354  1
  O  O265  1  0.73995030  0.86229877  0.00073991  1
  O  O266  1  0.76947492  0.87845894  0.48933487  1
  O  O267  1  0.13304474  0.49476907  0.24276671  1
  O  O268  1  0.13494930  0.49814401  0.74439157  1
  O  O269  1  0.12195643  0.99231855  0.24031109  1
  O  O270  1  0.12862950  1.00751771  0.72983057  1
  O  O271  1  0.63973100  0.49976868  0.25592745  1
  O  O272  1  0.63795994  0.50695735  0.75638094  1
  O  O273  1  0.63103346  0.99476278  0.24422545  1
  O  O274  1  0.63226342  0.99653648  0.74041408  1
  O  O275  1  0.37727249  0.00746242  0.24964351  1
  O  O276  1  0.36798893  0.00466780  0.75470251  1
  O  O277  1  0.36898221  0.50776140  0.25123302  1
  O  O278  1  0.36487408  0.50516513  0.75167285  1
  O  O279  1  0.86520430  0.01160342  0.23907009  1
  O  O280  1  0.86989156  -0.00241277  0.75882028  1
  O  O281  1  0.85392399  0.50026219  0.24289346  1
  O  O282  1  0.86506766  0.50884742  0.75142439  1
  O  O283  1  0.12940581  0.36549443  0.35958788  1
  O  O284  1  0.12132128  0.37153229  0.87179904  1
  O  O285  1  0.11151627  0.87377861  0.37075073  1
  O  O286  1  0.12028231  0.86388264  0.87834568  1
  O  O287  1  0.62566202  0.35975844  0.37080514  1
  O  O288  1  0.61266758  0.37358821  0.87936370  1
  O  O289  1  0.61758770  0.87329324  0.36685079  1
  O  O290  1  0.61844691  0.86501617  0.86941505  1
  O  O291  1  0.37991297  0.12860940  0.12970703  1
  O  O292  1  0.36240536  0.13733580  0.63201014  1
  O  O293  1  0.37397846  0.63485747  0.13802027  1
  O  O294  1  0.38631190  0.62588867  0.63110789  1
  O  O295  1  0.87163912  0.13705716  0.13266183  1
  O  O296  1  0.86757608  0.13939708  0.63169385  1
  O  O297  1  0.87996285  0.64380196  0.12337325  1
  O  O298  1  0.88110046  0.63401829  0.63092485  1
  O  O299  1  0.26383113  0.24240481  0.12815235  1
  O  O300  1  0.25508065  0.26089286  0.62681598  1
  O  O301  1  0.26106061  0.75007842  0.13006026  1
  O  O302  1  0.25147515  0.76048469  0.61651110  1
  O  O303  1  0.75658497  0.25596835  0.12085258  1
  O  O304  1  0.74731167  0.24807266  0.62255571  1
  O  O305  1  0.76271740  0.74991457  0.12175875  1
  O  O306  1  0.76304644  0.74592723  0.62245841  1
  O  O307  1  0.24768127  0.24081790  0.36876193  1
  O  O308  1  0.24353892  0.23899780  0.87058563  1
  O  O309  1  0.24632018  0.75424615  0.38893841  1
  O  O310  1  0.24270652  0.73824671  0.86905954  1
  O  O311  1  0.73693014  0.24223786  0.38180374  1
  O  O312  1  0.75160830  0.23820913  0.88057291  1
  O  O313  1  0.75097460  0.73413216  0.37566826  1
  O  O314  1  0.74065063  0.74960312  0.88464611  1
  O  O315  1  0.01105442  0.11208137  -0.00270317  1
  O  O316  1  -0.01113116  0.15237078  0.48481470  1
  O  O317  1  0.01111059  0.61863319  -0.00043268  1
  O  O318  1  0.01029358  0.63048617  0.51262551  1
  O  O319  1  0.50502938  0.11821913  0.00347681  1
  O  O320  1  0.50953609  0.11116928  0.48979436  1
  O  O321  1  0.50580857  0.60991082  -0.00177432  1
  O  O322  1  0.50457447  0.62017444  0.50530067  1
  O  O323  1  0.49054579  0.39133556  0.49936710  1
  O  O324  1  0.49622330  0.38624411  0.99463432  1
  O  O325  1  0.49394276  0.87780666  0.49435076  1
  O  O326  1  0.49408786  0.88093896  0.99281160  1
  O  O327  1  1.00050475  0.34903450  0.50115909  1
  O  O328  1  0.99437913  0.38257947  0.99599993  1
  O  O329  1  0.99311820  0.87092869  0.48611985  1
  O  O330  1  1.00763200  0.88608037  0.98909684  1
  O  O331  1  0.49019487  0.50761037  0.38172708  1
  O  O332  1  0.49632534  0.48844113  0.88715029  1
  O  O333  1  0.50067559  0.98718448  0.38451136  1
  O  O334  1  0.49373528  0.99413399  0.87960764  1
  O  O335  1  0.98872389  0.48183442  0.33768222  1
  O  O336  1  0.99577684  0.49517337  0.88006548  1
  O  O337  1  1.00398597  0.99207556  0.37984490  1
  O  O338  1  0.99590965  0.99285562  0.88015897  1
  O  O339  1  0.00742679  0.00082178  0.11577017  1
  O  O340  1  0.01037574  0.01491730  0.62508078  1
  O  O341  1  0.01287146  0.50398967  0.12520973  1
  O  O342  1  0.01627224  0.51010125  0.63647664  1
  O  O343  1  0.51016635  0.00449447  0.11964326  1
  O  O344  1  0.51097434  -0.00635987  0.61261626  1
  O  O345  1  0.50168263  0.49393048  0.11388586  1
  O  O346  1  0.50040695  0.50986571  0.61563574  1
  O  O347  1  0.24271849  0.38585855  0.24558088  1
  O  O348  1  0.24653658  0.38389277  0.74727645  1
  O  O349  1  0.23300351  0.87345105  0.26015068  1
  O  O350  1  0.25510812  0.87258987  0.73154875  1
  O  O351  1  0.74580182  0.38532286  0.24425364  1
  O  O352  1  0.74991462  0.38990751  0.75763710  1
  O  O353  1  0.74058257  0.88518367  0.26231694  1
  O  O354  1  0.74353111  0.88635190  0.75856187  1
  O  O355  1  0.26339371  0.11945709  0.25499582  1
  O  O356  1  0.25911648  0.12143715  0.76253721  1
  O  O357  1  0.25692278  0.61753503  0.24879964  1
  O  O358  1  0.25539255  0.61837629  0.75580991  1
  O  O359  1  0.75416610  0.12037222  0.25426039  1
  O  O360  1  0.75186382  0.10771227  0.76211175  1
  O  O361  1  0.74773626  0.61739185  0.26494568  1
  O  O362  1  0.76137269  0.62181692  0.75502383  1
  O  O363  1  0.36925035  0.12201830  0.36401016  1
  O  O364  1  0.36846280  0.12142960  0.87137453  1
  O  O365  1  0.37498307  0.61600519  0.35940635  1
  O  O366  1  0.36693047  0.62367455  0.87213096  1
  O  O367  1  0.86043623  0.13955979  0.35909847  1
  O  O368  1  0.86581553  0.11237651  0.87708806  1
  O  O369  1  0.86795705  0.62553224  0.38428785  1
  O  O370  1  0.87771657  0.62133566  0.86612903  1
  O  O371  1  0.12642019  0.38683054  0.12780800  1
  O  O372  1  0.13860697  0.38561957  0.63489349  1
  O  O373  1  0.11651913  0.88299111  0.13534030  1
  O  O374  1  0.13223723  0.86937724  0.62441441  1
  O  O375  1  0.63724211  0.36497976  0.12660275  1
  O  O376  1  0.60846939  0.36579983  0.63408579  1
  O  O377  1  0.61863683  0.88453963  0.13701368  1
  O  O378  1  0.62493537  0.88415317  0.62956474  1
  O  O379  1  0.12482370  0.25662175  0.24443502  1
  O  O380  1  0.11813277  0.25506115  0.75890873  1
  O  O381  1  0.11283190  0.75883427  0.24986370  1
  O  O382  1  0.12023650  0.73865502  0.76382676  1
  O  O383  1  0.61421134  0.24528520  0.25654498  1
  O  O384  1  0.61086236  0.21280355  0.76333786  1
  O  O385  1  0.61926331  0.75909733  0.25034542  1
  O  O386  1  0.62232382  0.75255467  0.75782717  1
  O  O387  1  0.38179255  0.24086867  0.24222024  1
  O  O388  1  0.37084094  0.24234392  0.73860990  1
  O  O389  1  0.38084730  0.74692652  0.24431110  1
  O  O390  1  0.38382316  0.74236716  0.74866840  1
  O  O391  1  0.88271057  0.24647491  0.23997918  1
  O  O392  1  0.87708990  0.24361817  0.74576193  1
  O  O393  1  0.88677208  0.75440935  0.24390878  1
  O  O394  1  0.87567472  0.74469251  0.74367364  1
  O  O395  1  0.37996817  0.50481716  0.48817297  1
  O  O396  1  0.38596771  0.49016284  1.00464632  1
  O  O397  1  0.38374703  0.99133959  0.50081694  1
  O  O398  1  0.38089438  0.99173550  0.99535800  1
  O  O399  1  0.88470732  0.48450860  0.54620529  1
  O  O400  1  0.87904725  0.49825276  0.99582763  1
  O  O401  1  0.88482073  0.99051821  0.50935598  1
  O  O402  1  0.88594798  1.00400125  0.99288178  1
  O  O403  1  0.11886593  0.00578346  0.00572727  1
  O  O404  1  0.11645356  0.00026184  0.51664169  1
  O  O405  1  0.11987140  0.50754887  0.00635993  1
  O  O406  1  0.13560481  0.50732665  0.51130658  1
  O  O407  1  0.62143622  0.00170157  0.00880283  1
  O  O408  1  0.62072281  0.00180779  0.50364769  1
  O  O409  1  0.61528980  0.50951748  -0.00129259  1
  O  O410  1  0.61472188  0.50700454  0.50044071  1
  O  O411  1  0.37683149  0.36556482  0.11262807  1
  O  O412  1  0.36699660  0.36318836  0.62903906  1
  O  O413  1  0.37790713  0.86792001  0.11563768  1
  O  O414  1  0.37128974  0.87412480  0.61293259  1
  O  O415  1  0.86267061  0.36366658  0.11934918  1
  O  O416  1  0.87475143  0.34840029  0.63336824  1
  O  O417  1  0.88171629  0.85826942  0.12732990  1
  O  O418  1  0.88721858  0.86859710  0.61163770  1
  O  O419  1  0.13964394  0.13467768  0.35738357  1
  O  O420  1  0.13343156  0.12817083  0.88273461  1
  O  O421  1  0.12114234  0.62546779  0.39135413  1
  O  O422  1  0.13145446  0.63033617  0.88232534  1
  O  O423  1  0.63080774  0.13112695  0.38109113  1
  O  O424  1  0.64234577  0.11265901  0.88600748  1
  O  O425  1  0.62558840  0.62742036  0.38749751  1
  O  O426  1  0.62283935  0.63851011  0.88274851  1
