# generated using pymatgen
data_V85Zn86O256
_symmetry_space_group_name_H-M   'P 1'
_cell_length_a   16.97000293
_cell_length_b   16.99335791
_cell_length_c   16.97701655
_cell_angle_alpha   90.00586102
_cell_angle_beta   89.83236763
_cell_angle_gamma   90.06381452
_symmetry_Int_Tables_number   1
_chemical_formula_structural   V85Zn86O256
_chemical_formula_sum   'V85 Zn86 O256'
_cell_volume   4895.76274739
_cell_formula_units_Z   1
loop_
 _symmetry_equiv_pos_site_id
 _symmetry_equiv_pos_as_xyz
  1  'x, y, z'
loop_
 _atom_site_type_symbol
 _atom_site_label
 _atom_site_symmetry_multiplicity
 _atom_site_fract_x
 _atom_site_fract_y
 _atom_site_fract_z
 _atom_site_occupancy
  V  V0  1  0.87660971  0.25649872  0.12162055  1
  V  V1  1  0.60928979  0.25480818  0.87507510  1
  V  V2  1  0.37966581  0.49521139  0.38778241  1
  V  V3  1  0.87459776  0.12533058  0.25061368  1
  V  V4  1  0.13133419  0.24310136  0.37367753  1
  V  V5  1  0.74574804  0.73758544  -0.00353998  1
  V  V6  1  0.87351380  0.37401608  0.50581969  1
  V  V7  1  0.50087945  0.12816936  0.12391654  1
  V  V8  1  -0.00416119  0.49893748  0.49687341  1
  V  V9  1  -0.01151474  0.62974449  0.62908426  1
  V  V10  1  0.62627245  0.37531136  0.24971128  1
  V  V11  1  0.24447214  0.75750144  0.00704673  1
  V  V12  1  0.13316275  -0.00470893  0.13116860  1
  V  V13  1  0.63024568  0.49238491  0.62386544  1
  V  V14  1  0.24738696  -0.00164070  0.74870653  1
  V  V15  1  -0.00301958  0.37636743  0.37605224  1
  V  V16  1  0.37374558  0.62595850  0.75002553  1
  V  V17  1  0.75469682  0.37460528  0.12264746  1
  V  V18  1  0.74336103  0.87953700  0.63832316  1
  V  V19  1  0.38652582  0.49648387  0.87234006  1
  V  V20  1  0.12542071  0.49793593  0.62510324  1
  V  V21  1  0.12089226  0.00283429  0.62467020  1
  V  V22  1  0.87479892  0.87325200  0.50771070  1
  V  V23  1  0.50740160  0.75531860  0.74941845  1
  V  V24  1  0.37847932  0.75242052  0.12474363  1
  V  V25  1  0.62521264  0.73761461  0.88142412  1
  V  V26  1  0.62429428  0.87522956  0.24906544  1
  V  V27  1  0.25544301  0.25406614  -0.00043596  1
  V  V28  1  0.37346854  -0.00302441  0.87672493  1
  V  V29  1  0.37652271  0.87580953  0.49911359  1
  V  V30  1  0.62684122  0.12143403  0.50481626  1
  V  V31  1  -0.00338754  0.00293655  -0.00421231  1
  V  V32  1  -0.00264322  0.49718600  0.00025890  1
  V  V33  1  0.12707748  0.62281044  0.49936722  1
  V  V34  1  0.87059169  0.51705002  0.87650471  1
  V  V35  1  0.24887290  0.87476629  0.62430388  1
  V  V36  1  0.50339298  0.87595251  0.87373897  1
  V  V37  1  0.12805325  0.50128423  0.12038590  1
  V  V38  1  0.12104533  0.74704399  0.36696483  1
  V  V39  1  0.75262700  0.75209834  0.50665938  1
  V  V40  1  0.49633746  0.24890600  0.24608258  1
  V  V41  1  0.87941222  0.24024278  0.62502922  1
  V  V42  1  0.25355189  0.62119758  0.37377630  1
  V  V43  1  0.25129494  0.74851800  0.49895708  1
  V  V44  1  0.74829753  0.87725609  0.12101759  1
  V  V45  1  0.62468737  0.62175469  0.49969282  1
  V  V46  1  0.62517296  0.24954065  0.37647315  1
  V  V47  1  0.76026032  0.50683546  0.25676487  1
  V  V48  1  0.24877146  0.12662943  0.87390214  1
  V  V49  1  -0.01195447  0.37448523  0.87583568  1
  V  V50  1  0.50405640  0.00032716  0.50207115  1
  V  V51  1  0.86372677  0.11878157  0.76701787  1
  V  V52  1  0.00128512  0.12575203  0.12458632  1
  V  V53  1  0.36469823  0.12124887  0.25051293  1
  V  V54  1  0.25567058  0.49867609  0.24910639  1
  V  V55  1  0.12826567  0.37364068  0.24919464  1
  V  V56  1  0.00093196  0.25040392  0.24975716  1
  V  V57  1  0.25963187  0.37377510  0.12194346  1
  V  V58  1  0.25311347  0.25287989  0.49750615  1
  V  V59  1  0.75839544  0.50705094  0.74338006  1
  V  V60  1  0.87111136  0.88065239  -0.00700592  1
  V  V61  1  0.38568105  0.37902074  -0.00489143  1
  V  V62  1  0.75481244  0.24756805  -0.00988875  1
  V  V63  1  0.50156575  0.74515504  0.24676391  1
  V  V64  1  0.50380624  0.62049054  0.62062822  1
  V  V65  1  0.12484803  0.25359402  0.87407839  1
  V  V66  1  0.49715236  0.37770563  0.38580593  1
  V  V67  1  -0.00114716  0.00340689  0.50244070  1
  V  V68  1  0.37658005  0.12688407  0.74625574  1
  V  V69  1  0.75139044  0.12420553  0.37549546  1
  V  V70  1  -0.00020720  0.86971711  0.36803361  1
  V  V71  1  0.87838003  0.74599066  0.12880740  1
  V  V72  1  0.00058894  0.87401782  0.87287497  1
  V  V73  1  0.25071133  0.49846420  0.75007409  1
  V  V74  1  0.37444970  0.25540318  0.61960388  1
  V  V75  1  0.74978636  0.00151399  0.24963041  1
  V  V76  1  0.12740524  0.12365423  0.49887813  1
  V  V77  1  0.50092738  0.87520443  0.37315456  1
  V  V78  1  0.62146727  0.51136909  0.12024296  1
  V  V79  1  0.36292716  0.00374799  0.37434094  1
  V  V80  1  0.75090956  0.25289705  0.50746560  1
  V  V81  1  0.37596859  0.75051975  0.62394204  1
  V  V82  1  0.62054490  0.00148791  0.12225878  1
  V  V83  1  0.62743277  0.74942605  0.37513884  1
  V  V84  1  -0.00019154  0.24452201  0.74587088  1
  Zn  Zn85  1  0.49553006  0.26213029  0.74821652  1
  Zn  Zn86  1  0.62859422  -0.00140072  0.65115900  1
  Zn  Zn87  1  -0.10086686  0.64290799  0.27596161  1
  Zn  Zn88  1  0.50230868  0.12432400  0.62723167  1
  Zn  Zn89  1  0.63242932  0.12231069  -0.00388724  1
  Zn  Zn90  1  0.25571127  0.37770815  0.61906081  1
  Zn  Zn91  1  -0.00731938  0.74577162  0.75016044  1
  Zn  Zn92  1  0.75928498  0.62228318  0.38057555  1
  Zn  Zn93  1  0.62316087  0.38252932  0.76223728  1
  Zn  Zn94  1  0.50095333  0.00018226  -0.00065989  1
  Zn  Zn95  1  0.12662204  0.12445471  -0.00008500  1
  Zn  Zn96  1  0.12125467  0.87176506  0.74843130  1
  Zn  Zn97  1  0.13214234  0.87057451  0.24648788  1
  Zn  Zn98  1  0.38576735  0.61909772  0.24639658  1
  Zn  Zn99  1  0.51137496  0.51515592  -0.00402072  1
  Zn  Zn100  1  0.00488637  0.63084628  0.12790280  1
  Zn  Zn101  1  0.24845464  0.62651925  0.87903733  1
  Zn  Zn102  1  0.87654662  -0.00150996  0.37435482  1
  Zn  Zn103  1  0.37175892  0.88242199  0.01286796  1
  Zn  Zn104  1  0.12590222  0.62524633  -0.00465285  1
  Zn  Zn105  1  0.12483253  0.37380781  0.74725324  1
  Zn  Zn106  1  0.12747960  0.74794227  0.86840834  1
  Zn  Zn107  1  0.18591446  0.18821832  0.18188770  1
  Zn  Zn108  1  0.18812956  0.18573807  0.68434912  1
  Zn  Zn109  1  0.19426017  0.68438684  0.18650422  1
  Zn  Zn110  1  0.18073483  0.68844909  0.68776510  1
  Zn  Zn111  1  0.68782667  0.18814723  0.18598095  1
  Zn  Zn112  1  0.68738295  0.18888173  0.69240756  1
  Zn  Zn113  1  0.69290644  0.68883927  0.18643270  1
  Zn  Zn114  1  0.69417460  0.68664454  0.69053166  1
  Zn  Zn115  1  0.31613003  0.31206196  0.31243203  1
  Zn  Zn116  1  0.31465590  0.31585516  0.81057545  1
  Zn  Zn117  1  0.31290082  0.80975533  0.31361589  1
  Zn  Zn118  1  0.31015957  0.81230492  0.81433685  1
  Zn  Zn119  1  0.81268490  0.31256040  0.31392158  1
  Zn  Zn120  1  0.80972308  0.32020000  0.80187234  1
  Zn  Zn121  1  0.81108968  0.81532594  0.31551640  1
  Zn  Zn122  1  0.81595270  0.80215638  0.81343929  1
  Zn  Zn123  1  0.18798193  0.43471179  0.43559030  1
  Zn  Zn124  1  0.19004474  0.43818695  0.93381574  1
  Zn  Zn125  1  0.18529618  0.93206819  0.43552609  1
  Zn  Zn126  1  0.18345987  0.93674062  0.93993057  1
  Zn  Zn127  1  0.68732665  0.43621174  0.43736762  1
  Zn  Zn128  1  0.69443025  0.43528550  0.93880019  1
  Zn  Zn129  1  0.69001592  0.93619392  0.43785717  1
  Zn  Zn130  1  0.68335911  0.93537286  0.92788422  1
  Zn  Zn131  1  0.31446949  0.07053326  0.06250942  1
  Zn  Zn132  1  0.30976566  0.06451577  0.55931174  1
  Zn  Zn133  1  0.32232587  0.57125452  0.05722891  1
  Zn  Zn134  1  0.31335999  0.56330902  0.56372132  1
  Zn  Zn135  1  0.81358385  0.06614475  0.06358100  1
  Zn  Zn136  1  0.81226342  0.05909334  0.56937375  1
  Zn  Zn137  1  0.81170559  0.55946498  0.06328243  1
  Zn  Zn138  1  0.81147196  0.56160139  0.55916166  1
  Zn  Zn139  1  0.44035161  0.43782418  0.18933180  1
  Zn  Zn140  1  0.44363309  0.43593472  0.68540155  1
  Zn  Zn141  1  0.30727831  0.93599387  0.19165722  1
  Zn  Zn142  1  0.43743206  0.93869039  0.68684799  1
  Zn  Zn143  1  0.94230451  0.44059866  0.18988065  1
  Zn  Zn144  1  0.93726867  0.43489791  0.68830681  1
  Zn  Zn145  1  0.93832580  0.93703042  0.18343471  1
  Zn  Zn146  1  0.93119333  0.93822665  0.69027428  1
  Zn  Zn147  1  0.06100143  0.06063201  0.31348333  1
  Zn  Zn148  1  0.05883955  0.06404975  0.81170850  1
  Zn  Zn149  1  0.06572195  0.56152614  0.30931437  1
  Zn  Zn150  1  0.06216629  0.56431260  0.81349202  1
  Zn  Zn151  1  0.55978766  0.06189654  0.31334893  1
  Zn  Zn152  1  0.55863425  0.07537573  0.82381856  1
  Zn  Zn153  1  0.56715600  0.55947399  0.31376314  1
  Zn  Zn154  1  0.56542092  0.56476728  0.80591731  1
  Zn  Zn155  1  0.43857442  0.18673705  0.43378050  1
  Zn  Zn156  1  0.43520743  0.18625751  0.93960478  1
  Zn  Zn157  1  0.43873299  0.68443770  0.43421547  1
  Zn  Zn158  1  0.43567906  0.68663656  0.93941211  1
  Zn  Zn159  1  0.94014536  0.18697129  0.43683406  1
  Zn  Zn160  1  0.93680438  0.18716121  0.93683226  1
  Zn  Zn161  1  0.93809397  0.68943262  0.44719256  1
  Zn  Zn162  1  0.93971661  0.69017942  0.94486433  1
  Zn  Zn163  1  0.06527597  0.31676998  0.05970066  1
  Zn  Zn164  1  0.06361581  0.31149656  0.56225831  1
  Zn  Zn165  1  0.06026612  0.81780567  0.06048515  1
  Zn  Zn166  1  0.06330843  0.81267306  0.55807652  1
  Zn  Zn167  1  0.56832763  0.31484513  0.06148513  1
  Zn  Zn168  1  0.55966433  0.30943731  0.56665868  1
  Zn  Zn169  1  0.55756781  0.81375531  0.05858688  1
  Zn  Zn170  1  0.56720793  0.81341089  0.56459425  1
  O  O171  1  0.11902525  0.11723974  0.12092145  1
  O  O172  1  0.12723983  0.11185089  0.61516014  1
  O  O173  1  0.12823886  0.60898515  0.12387788  1
  O  O174  1  0.12183872  0.61191585  0.61768744  1
  O  O175  1  0.61932861  0.11869701  0.12372242  1
  O  O176  1  0.62651036  0.12006583  0.61684884  1
  O  O177  1  0.63418820  0.60953430  0.12786463  1
  O  O178  1  0.62056192  0.62108462  0.61810507  1
  O  O179  1  0.38589747  0.38266381  0.36829478  1
  O  O180  1  0.37125857  0.38597686  0.88207246  1
  O  O181  1  0.38157385  0.88352020  0.38138092  1
  O  O182  1  0.38084740  0.88727389  0.87163409  1
  O  O183  1  0.89033021  0.36437422  0.38540391  1
  O  O184  1  0.88630622  0.37971040  0.87184614  1
  O  O185  1  0.88243713  0.87670334  0.38526015  1
  O  O186  1  0.88034193  0.87308001  0.88804505  1
  O  O187  1  0.26472869  0.00207458  0.39155610  1
  O  O188  1  0.25485482  0.00517283  0.87002050  1
  O  O189  1  0.25799800  0.50002455  0.36922048  1
  O  O190  1  0.25905168  0.50347977  0.86266040  1
  O  O191  1  0.75191694  0.00630328  0.36789083  1
  O  O192  1  0.70195433  -0.00590956  0.82328877  1
  O  O193  1  0.74549899  0.49862618  0.35954736  1
  O  O194  1  0.76686107  0.50100518  0.87526736  1
  O  O195  1  0.24572178  0.49192448  0.12713410  1
  O  O196  1  0.24373318  0.49909016  0.63063828  1
  O  O197  1  0.23824237  1.00290303  0.11979598  1
  O  O198  1  0.24188446  0.99466344  0.62722252  1
  O  O199  1  0.74463071  0.49148304  0.13319751  1
  O  O200  1  0.74700932  0.50293117  0.63557544  1
  O  O201  1  0.74087550  0.99814277  0.12940170  1
  O  O202  1  0.74520962  0.98600969  0.62470530  1
  O  O203  1  0.00696539  0.37080065  0.25807203  1
  O  O204  1  0.00189995  0.36493995  0.75841491  1
  O  O205  1  0.00244843  0.88138171  0.26485155  1
  O  O206  1  -0.00311803  0.87990655  0.76413712  1
  O  O207  1  0.51002918  0.36576993  0.25289251  1
  O  O208  1  0.51085602  0.37352952  0.74662805  1
  O  O209  1  0.51043467  0.86041566  0.25856818  1
  O  O210  1  0.49140978  0.86323420  0.75678211  1
  O  O211  1  0.49905046  0.13247225  0.24276062  1
  O  O212  1  0.48621532  0.12846288  0.74966400  1
  O  O213  1  0.50622265  0.64103059  0.25666520  1
  O  O214  1  0.49183873  0.63450624  0.74034011  1
  O  O215  1  0.99498792  0.13186280  0.24526246  1
  O  O216  1  0.98978486  0.14073376  0.75822429  1
  O  O217  1  0.99541666  0.60654957  0.23694356  1
  O  O218  1  1.00338874  0.61832315  0.73066729  1
  O  O219  1  0.36241140  0.26178347  -0.01021170  1
  O  O220  1  0.36390143  0.23606409  0.50697062  1
  O  O221  1  0.36733545  0.75368724  0.01252532  1
  O  O222  1  0.37193479  0.75487937  0.50365028  1
  O  O223  1  0.86795474  0.24814913  0.01251026  1
  O  O224  1  0.87119012  0.25322939  0.50599746  1
  O  O225  1  0.86412279  0.76055056  0.00643924  1
  O  O226  1  0.86443460  0.76239987  0.50038059  1
  O  O227  1  0.12882527  0.24190452  0.49352787  1
  O  O228  1  0.13486101  0.25197085  0.98910059  1
  O  O229  1  0.13298273  0.74243442  0.49137646  1
  O  O230  1  0.13682211  0.75038470  1.00592818  1
  O  O231  1  0.63274701  0.24130126  0.49849678  1
  O  O232  1  0.63885607  0.25150770  0.99338000  1
  O  O233  1  0.63226700  0.74306295  0.49525846  1
  O  O234  1  0.62973087  0.75404634  0.98955729  1
  O  O235  1  0.51076578  0.24181382  0.13593912  1
  O  O236  1  0.48903125  0.24200663  0.62492936  1
  O  O237  1  0.48831362  0.75644266  0.13258961  1
  O  O238  1  0.49714775  0.74432378  0.63171071  1
  O  O239  1  0.99592926  0.24923349  0.12846446  1
  O  O240  1  0.99422673  0.25490813  0.63530571  1
  O  O241  1  0.98217530  0.75236705  0.11667203  1
  O  O242  1  1.00691505  0.73108496  0.61665590  1
  O  O243  1  0.01072078  0.25691519  0.37046629  1
  O  O244  1  0.00681070  0.25733399  0.87096074  1
  O  O245  1  0.01013506  0.75734002  0.38427913  1
  O  O246  1  0.00309731  0.76468253  0.88327825  1
  O  O247  1  0.50637353  0.25649751  0.36620279  1
  O  O248  1  0.50662515  0.25302177  0.87701392  1
  O  O249  1  0.50699344  0.75553997  0.37010124  1
  O  O250  1  0.50376526  0.75584212  0.86868722  1
  O  O251  1  0.23581323  0.13454002  0.50096793  1
  O  O252  1  0.25127094  0.13843311  0.99301447  1
  O  O253  1  0.24636695  0.62850638  0.49423202  1
  O  O254  1  0.24976246  0.63992340  0.99855356  1
  O  O255  1  0.74410126  0.13085094  0.49642527  1
  O  O256  1  0.75116852  0.14360143  1.00739746  1
  O  O257  1  0.74232536  0.63578507  0.50343221  1
  O  O258  1  0.75423076  0.63929500  1.00059036  1
  O  O259  1  0.25788161  0.37166680  0.00412688  1
  O  O260  1  0.24389469  0.35827680  0.50121664  1
  O  O261  1  0.25333923  0.86243382  -0.00455615  1
  O  O262  1  0.25681507  0.86814183  0.50477623  1
  O  O263  1  0.75077613  0.36309629  0.01592278  1
  O  O264  1  0.76182831  0.36334003  0.48940395  1
  O  O265  1  0.75569952  0.87595684  0.00049815  1
  O  O266  1  0.75664561  0.86977495  0.50528878  1
  O  O267  1  0.13542097  0.49103433  0.24158490  1
  O  O268  1  0.13469822  0.50057131  0.74175540  1
  O  O269  1  0.12109824  1.00462803  0.23331346  1
  O  O270  1  0.12801273  1.00144990  0.73971767  1
  O  O271  1  0.63541567  0.49116568  0.24157325  1
  O  O272  1  0.63508907  0.50345100  0.73984511  1
  O  O273  1  0.62960977  0.99587334  0.24271941  1
  O  O274  1  0.63513362  0.99968998  0.77663755  1
  O  O275  1  0.36883627  0.01299259  0.25872011  1
  O  O276  1  0.36864876  0.00791104  0.75569451  1
  O  O277  1  0.36969869  0.50074076  0.25528078  1
  O  O278  1  0.37030627  0.50697492  0.75124843  1
  O  O279  1  0.86834466  0.00736180  0.24778577  1
  O  O280  1  0.88198656  0.02227330  0.74512319  1
  O  O281  1  0.85995127  0.49585567  0.24522998  1
  O  O282  1  0.86689370  0.49670689  0.76010892  1
  O  O283  1  0.11722066  0.36467559  0.36996885  1
  O  O284  1  0.11940993  0.36548532  0.87077029  1
  O  O285  1  0.11572835  0.86312537  0.37793905  1
  O  O286  1  0.11375048  0.87376747  0.87281459  1
  O  O287  1  0.61901245  0.37128993  0.36612801  1
  O  O288  1  0.63028570  0.35856929  0.88276086  1
  O  O289  1  0.62135363  0.86969003  0.36996602  1
  O  O290  1  0.60706452  0.86342211  0.87657591  1
  O  O291  1  0.38808817  0.11747061  0.13996453  1
  O  O292  1  0.37264738  0.13038490  0.63406128  1
  O  O293  1  0.36801076  0.64434572  0.13306940  1
  O  O294  1  0.38450793  0.62963462  0.62964331  1
  O  O295  1  0.88115878  0.13654299  0.13170214  1
  O  O296  1  0.87589259  0.13804940  0.62640767  1
  O  O297  1  0.87115008  0.64277013  0.12027978  1
  O  O298  1  0.89021783  0.62031609  0.61643971  1
  O  O299  1  0.24250234  0.26269426  0.11110042  1
  O  O300  1  0.25610172  0.25104279  0.61624491  1
  O  O301  1  0.25625840  0.75070585  0.11504556  1
  O  O302  1  0.25572151  0.75363599  0.61916651  1
  O  O303  1  0.75902749  0.25741406  0.12359211  1
  O  O304  1  0.75752003  0.24804082  0.61220539  1
  O  O305  1  0.75411069  0.75868801  0.11416221  1
  O  O306  1  0.74072412  0.76205280  0.61396139  1
  O  O307  1  0.23886016  0.25563655  0.38017036  1
  O  O308  1  0.24246376  0.24870394  0.87858215  1
  O  O309  1  0.24416526  0.74076579  0.38122459  1
  O  O310  1  0.25059939  0.74802199  0.88819512  1
  O  O311  1  0.74535306  0.24400536  0.38416341  1
  O  O312  1  0.75833081  0.25835315  0.89079664  1
  O  O313  1  0.74288703  0.75192310  0.38670209  1
  O  O314  1  0.73130390  0.75670242  0.88044525  1
  O  O315  1  0.00019820  0.11874117  0.00545657  1
  O  O316  1  0.01114936  0.11385771  0.49436398  1
  O  O317  1  0.00404953  0.61156118  0.00770703  1
  O  O318  1  0.00733812  0.61348095  0.50691427  1
  O  O319  1  0.49878907  0.12479124  0.01309323  1
  O  O320  1  0.51032288  0.11701959  0.49940119  1
  O  O321  1  0.48966753  0.62271080  0.00856364  1
  O  O322  1  0.51224635  0.63377972  0.51003259  1
  O  O323  1  0.50598232  0.36838170  0.48417925  1
  O  O324  1  0.48694865  0.37893325  1.00975339  1
  O  O325  1  0.49744925  0.88228379  0.49564241  1
  O  O326  1  0.49070089  0.87908394  0.98861887  1
  O  O327  1  0.99494381  0.37946957  0.49434709  1
  O  O328  1  1.00586150  0.38605287  0.98855229  1
  O  O329  1  0.99200650  0.88138652  0.49383503  1
  O  O330  1  0.99094281  0.88461081  0.99385215  1
  O  O331  1  0.49279207  0.48971869  0.36750801  1
  O  O332  1  0.48946085  0.50505554  0.87152118  1
  O  O333  1  0.49399151  0.99438903  0.38414530  1
  O  O334  1  0.48982770  0.99462547  0.87466099  1
  O  O335  1  1.01191305  0.48721860  0.38664662  1
  O  O336  1  0.99106109  0.49390631  0.87890553  1
  O  O337  1  1.00142336  0.98986507  0.38640906  1
  O  O338  1  1.00647725  0.99355366  0.88862867  1
  O  O339  1  0.00699519  0.00656265  0.11591615  1
  O  O340  1  0.00986300  -0.00973904  0.61253281  1
  O  O341  1  0.01225910  0.48989941  0.11375412  1
  O  O342  1  0.00721274  0.50373953  0.61636238  1
  O  O343  1  0.51510564  0.01053622  0.12359016  1
  O  O344  1  0.50806677  0.00089744  0.61708759  1
  O  O345  1  0.51967855  0.49575664  0.13050096  1
  O  O346  1  0.51082463  0.51534717  0.62947672  1
  O  O347  1  0.24907729  0.37692045  0.24013268  1
  O  O348  1  0.24949616  0.38825360  0.74510276  1
  O  O349  1  0.24334241  0.87994297  0.26395620  1
  O  O350  1  0.24861831  0.88137979  0.74200693  1
  O  O351  1  0.74344505  0.37997530  0.24580300  1
  O  O352  1  0.74053531  0.39705142  0.75718511  1
  O  O353  1  0.74359543  0.88132341  0.24288035  1
  O  O354  1  0.75712474  0.86688974  0.73512997  1
  O  O355  1  0.26733759  0.13768493  0.24390063  1
  O  O356  1  0.25719406  0.11917161  0.75443418  1
  O  O357  1  0.25139790  0.61413067  0.25872511  1
  O  O358  1  0.26129358  0.61707174  0.74301691  1
  O  O359  1  0.75424552  0.12189855  0.25545661  1
  O  O360  1  0.76563790  0.13264809  0.74841513  1
  O  O361  1  0.75248703  0.61181968  0.25188899  1
  O  O362  1  0.74736999  0.60798170  0.75280609  1
  O  O363  1  0.38426177  0.11641848  0.35997080  1
  O  O364  1  0.36975483  0.11776265  0.86643332  1
  O  O365  1  0.37174000  0.61439475  0.37147581  1
  O  O366  1  0.37367067  0.61802244  0.86016477  1
  O  O367  1  0.87019863  0.12429514  0.36855382  1
  O  O368  1  0.87230600  0.12694554  0.86738686  1
  O  O369  1  0.87204937  0.62807912  0.38193175  1
  O  O370  1  0.88309417  0.61492589  0.87517059  1
  O  O371  1  0.13591691  0.38256639  0.12860207  1
  O  O372  1  0.12580122  0.38771810  0.62544327  1
  O  O373  1  0.11795373  0.89126134  0.12787702  1
  O  O374  1  0.13088316  0.88571798  0.62169835  1
  O  O375  1  0.63636443  0.37676707  0.13624499  1
  O  O376  1  0.62242317  0.39214543  0.61452350  1
  O  O377  1  0.62816721  0.88331811  0.12753573  1
  O  O378  1  0.63651852  0.87921649  0.62719617  1
  O  O379  1  0.12146631  0.25371910  0.25538922  1
  O  O380  1  0.11883054  0.24908581  0.75616052  1
  O  O381  1  0.12881910  0.74554240  0.26388272  1
  O  O382  1  0.11207864  0.75446096  0.74946920  1
  O  O383  1  0.62107997  0.25753582  0.25615585  1
  O  O384  1  0.62478461  0.25164469  0.76632123  1
  O  O385  1  0.62361542  0.75525333  0.25381585  1
  O  O386  1  0.61382536  0.74260737  0.76124367  1
  O  O387  1  0.38887246  0.23815807  0.25673585  1
  O  O388  1  0.37124218  0.24112453  0.74123221  1
  O  O389  1  0.38468556  0.74891610  0.24367961  1
  O  O390  1  0.38116250  0.74212497  0.74428108  1
  O  O391  1  0.88113501  0.24588216  0.24291670  1
  O  O392  1  0.88031757  0.24616971  0.74250844  1
  O  O393  1  0.86458995  0.75184092  0.23308383  1
  O  O394  1  0.88254225  0.74323559  0.75130424  1
  O  O395  1  0.37177310  0.50072133  0.48748583  1
  O  O396  1  0.37451710  0.49375792  0.98781510  1
  O  O397  1  0.38646850  0.99787584  0.49715270  1
  O  O398  1  0.37365969  1.00225385  0.98775167  1
  O  O399  1  0.88621392  0.48794840  0.50501062  1
  O  O400  1  0.88385356  0.50346129  0.98860742  1
  O  O401  1  0.88367922  0.99465169  0.49932260  1
  O  O402  1  0.88403595  0.99214999  1.01002426  1
  O  O403  1  0.11603662  0.00272899  0.01088282  1
  O  O404  1  0.11991622  0.00539006  0.50406608  1
  O  O405  1  0.12030321  0.49851561  0.00614293  1
  O  O406  1  0.11883257  0.50156300  0.50643418  1
  O  O407  1  0.62659418  0.00278543  0.00754849  1
  O  O408  1  0.61726866  0.00856823  0.49521884  1
  O  O409  1  0.62808477  0.49035105  0.01638496  1
  O  O410  1  0.63850419  0.51427509  0.50760333  1
  O  O411  1  0.36495016  0.38265411  0.11557780  1
  O  O412  1  0.37570912  0.35971271  0.62698156  1
  O  O413  1  0.36752775  0.85964621  0.12901726  1
  O  O414  1  0.37033772  0.87020342  0.61841392  1
  O  O415  1  0.86880576  0.36496710  0.13445894  1
  O  O416  1  0.88046610  0.36337537  0.61201648  1
  O  O417  1  0.86866959  0.86735594  0.11581089  1
  O  O418  1  0.86350817  0.88165332  0.61369126  1
  O  O419  1  0.12043105  0.13569641  0.38109216  1
  O  O420  1  0.12973380  0.13709242  0.87570249  1
  O  O421  1  0.13080948  0.62812945  0.38060081  1
  O  O422  1  0.12867749  0.62920076  0.87758431  1
  O  O423  1  0.63009485  0.12991024  0.38421807  1
  O  O424  1  0.62386912  0.14690188  0.88318859  1
  O  O425  1  0.62949723  0.62942689  0.38555951  1
  O  O426  1  0.61672444  0.63887579  0.87804616  1
