# generated using pymatgen
data_V85Zn86O256
_symmetry_space_group_name_H-M   'P 1'
_cell_length_a   16.96786067
_cell_length_b   16.96454854
_cell_length_c   16.96416965
_cell_angle_alpha   90.03035835
_cell_angle_beta   90.09156001
_cell_angle_gamma   90.09361176
_symmetry_Int_Tables_number   1
_chemical_formula_structural   V85Zn86O256
_chemical_formula_sum   'V85 Zn86 O256'
_cell_volume   4883.15834507
_cell_formula_units_Z   1
loop_
 _symmetry_equiv_pos_site_id
 _symmetry_equiv_pos_as_xyz
  1  'x, y, z'
loop_
 _atom_site_type_symbol
 _atom_site_label
 _atom_site_symmetry_multiplicity
 _atom_site_fract_x
 _atom_site_fract_y
 _atom_site_fract_z
 _atom_site_occupancy
  V  V0  1  0.00017273  0.00143155  0.50156115  1
  V  V1  1  0.00342398  0.12751892  0.62083535  1
  V  V2  1  0.62007041  0.37153693  0.24929760  1
  V  V3  1  0.37580416  0.00998449  0.87146112  1
  V  V4  1  0.62265576  0.25015024  0.37817214  1
  V  V5  1  -0.00273215  0.75049994  0.74919497  1
  V  V6  1  0.12518002  0.12484369  -0.00010235  1
  V  V7  1  0.74643029  0.63120583  0.87955178  1
  V  V8  1  0.00272652  0.87105770  0.37675190  1
  V  V9  1  0.52037610  0.11894221  0.61241818  1
  V  V10  1  0.11700615  0.50016812  0.12069136  1
  V  V11  1  0.25412769  0.00918973  0.74923129  1
  V  V12  1  0.74940377  0.49895565  0.25029369  1
  V  V13  1  0.24814799  -0.00146301  0.24828730  1
  V  V14  1  0.24968525  0.24808166  -0.00002804  1
  V  V15  1  0.24541894  0.24879952  0.50163948  1
  V  V16  1  0.24869799  0.62442235  0.37864103  1
  V  V17  1  0.86276352  0.86167901  -0.00058429  1
  V  V18  1  0.50131376  0.49972341  0.50868312  1
  V  V19  1  0.74696742  0.24289366  0.49587706  1
  V  V20  1  0.49814687  0.61810136  0.12722235  1
  V  V21  1  0.49770051  0.24882732  0.75032747  1
  V  V22  1  0.86915627  0.25630604  0.62405436  1
  V  V23  1  -0.00161370  0.37791400  0.38038084  1
  V  V24  1  0.11888685  0.62307854  -0.00036905  1
  V  V25  1  0.74366470  0.00182911  0.74355585  1
  V  V26  1  0.37959314  0.25019194  0.13037788  1
  V  V27  1  -0.00712221  0.24566346  0.25029563  1
  V  V28  1  0.12648906  0.87191366  0.24833115  1
  V  V29  1  0.62637885  0.62632419  0.49923454  1
  V  V30  1  0.12240926  0.50240648  0.62584943  1
  V  V31  1  -0.00230036  0.62790620  0.62451471  1
  V  V32  1  0.26288809  0.50348707  0.75516763  1
  V  V33  1  0.87529013  0.12652013  0.74988920  1
  V  V34  1  0.62852798  0.12808472  0.00109557  1
  V  V35  1  0.87528322  0.37812762  0.00079382  1
  V  V36  1  0.12340465  -0.00097989  0.12409099  1
  V  V37  1  -0.00256738  0.00035047  -0.00098755  1
  V  V38  1  0.12367473  0.24856471  0.37704519  1
  V  V39  1  0.74496226  0.86289634  0.13167765  1
  V  V40  1  0.50277556  0.87065231  0.37269189  1
  V  V41  1  0.24965994  0.87384723  0.62700409  1
  V  V42  1  0.86997819  0.37809001  0.50158155  1
  V  V43  1  0.64305472  0.49516101  0.62644300  1
  V  V44  1  0.50432714  0.75034790  0.25057895  1
  V  V45  1  0.24482275  0.12463549  0.37908056  1
  V  V46  1  0.87352442  0.00114355  0.87713150  1
  V  V47  1  0.49876857  0.87256753  0.86888243  1
  V  V48  1  0.12546303  0.00314688  0.62317175  1
  V  V49  1  -0.00488565  0.12410258  0.12723455  1
  V  V50  1  0.61967040  0.87158409  0.74176940  1
  V  V51  1  0.37285525  0.62496063  0.25286162  1
  V  V52  1  0.74729726  0.36953673  0.11945346  1
  V  V53  1  0.12465363  0.37531983  0.24998926  1
  V  V54  1  0.63775175  0.37442422  0.74200375  1
  V  V55  1  0.88198095  0.00752407  0.35588879  1
  V  V56  1  0.38000052  0.87658601  0.50067481  1
  V  V57  1  0.37804934  0.37579547  -0.01120196  1
  V  V58  1  0.75804296  0.74979835  0.50458896  1
  V  V59  1  0.50189683  0.12494656  0.12834197  1
  V  V60  1  0.38024696  0.12582574  0.25073372  1
  V  V61  1  0.12866232  0.75013325  0.87986613  1
  V  V62  1  0.74865622  0.13163418  0.87943975  1
  V  V63  1  0.86674329  0.49806734  0.87089385  1
  V  V64  1  0.86926354  0.62303056  0.74697399  1
  V  V65  1  0.37152713  0.87191533  0.00172206  1
  V  V66  1  0.62065969  0.25649671  0.87675348  1
  V  V67  1  0.37769167  -0.00174191  0.37842336  1
  V  V68  1  0.87522582  0.50084403  0.37518948  1
  V  V69  1  0.12119550  0.62245092  0.50155858  1
  V  V70  1  0.75842752  0.87333832  0.62589157  1
  V  V71  1  0.12524460  0.37833943  0.75302782  1
  V  V72  1  0.37502099  0.50034784  0.38015367  1
  V  V73  1  0.38448398  0.74867200  0.63334306  1
  V  V74  1  0.37392419  0.23955509  0.62975730  1
  V  V75  1  0.25211991  0.37590389  0.62703505  1
  V  V76  1  0.49477296  0.49704271  -0.01334552  1
  V  V77  1  0.00131204  0.38387936  0.88048279  1
  V  V78  1  0.49843114  0.37358765  0.37264239  1
  V  V79  1  0.26256082  0.62788003  0.88370101  1
  V  V80  1  -0.00545243  0.74434728  0.24147246  1
  V  V81  1  0.87005107  0.24618351  0.12246198  1
  V  V82  1  0.00041018  0.25338367  0.75135910  1
  V  V83  1  0.63103907  -0.00414895  0.13807669  1
  V  V84  1  0.24914552  0.37578948  0.12604465  1
  Zn  Zn85  1  0.24319103  0.86645637  0.11332818  1
  Zn  Zn86  1  0.62380716  0.49733362  0.12109346  1
  Zn  Zn87  1  0.36876672  0.74293717  0.11616588  1
  Zn  Zn88  1  0.12561438  0.74655769  0.37609323  1
  Zn  Zn89  1  0.25126049  0.12849349  0.87113347  1
  Zn  Zn90  1  0.62885311  0.75458633  0.37275257  1
  Zn  Zn91  1  -0.01157559  0.62155891  0.11294021  1
  Zn  Zn92  1  0.38664771  0.63105984  0.76402753  1
  Zn  Zn93  1  0.12345307  0.25069744  0.87656204  1
  Zn  Zn94  1  0.12311259  0.87518032  0.75294457  1
  Zn  Zn95  1  -0.00036344  0.87329579  0.87654632  1
  Zn  Zn96  1  0.73204924  0.09717797  0.37649538  1
  Zn  Zn97  1  0.87934993  0.87084615  0.50310630  1
  Zn  Zn98  1  0.50757686  0.62943143  0.63601663  1
  Zn  Zn99  1  0.63016897  0.62856760  0.00459543  1
  Zn  Zn100  1  0.86698823  0.63307888  0.24108604  1
  Zn  Zn101  1  0.62768213  0.75580486  0.87683892  1
  Zn  Zn102  1  0.24978215  0.74951222  0.50291450  1
  Zn  Zn103  1  0.75189001  0.63056647  0.37298960  1
  Zn  Zn104  1  0.24846202  0.49958339  0.25048245  1
  Zn  Zn105  1  0.37633116  0.37370650  0.50290745  1
  Zn  Zn106  1  0.50138031  0.00005840  -0.00203330  1
  Zn  Zn107  1  0.18642532  0.18687722  0.18921061  1
  Zn  Zn108  1  0.18441778  0.18985204  0.68783448  1
  Zn  Zn109  1  0.18690870  0.68801844  0.18392468  1
  Zn  Zn110  1  0.19125492  0.68759785  0.69502556  1
  Zn  Zn111  1  0.69064553  0.18208311  0.19963319  1
  Zn  Zn112  1  0.68696088  0.18837632  0.68826681  1
  Zn  Zn113  1  0.68500391  0.68527465  0.18569216  1
  Zn  Zn114  1  0.68695180  0.68886426  0.68736129  1
  Zn  Zn115  1  0.31251977  0.31286990  0.31363378  1
  Zn  Zn116  1  0.31271243  0.31119616  0.81018085  1
  Zn  Zn117  1  0.31188168  0.80830822  0.31036147  1
  Zn  Zn118  1  0.31242894  0.81704502  0.81484405  1
  Zn  Zn119  1  0.80798865  0.30878963  0.31086950  1
  Zn  Zn120  1  0.81260753  0.31173648  0.81360817  1
  Zn  Zn121  1  0.81279251  0.81783366  0.31636564  1
  Zn  Zn122  1  0.81174068  0.81095197  0.81077019  1
  Zn  Zn123  1  0.18660725  0.43710738  0.44050756  1
  Zn  Zn124  1  0.19181356  0.44141553  0.93849138  1
  Zn  Zn125  1  0.18836182  0.93863046  0.43963283  1
  Zn  Zn126  1  0.18873263  0.93912270  0.93438694  1
  Zn  Zn127  1  0.68896638  0.43453790  0.43882792  1
  Zn  Zn128  1  0.68432274  0.44109483  0.93684901  1
  Zn  Zn129  1  0.69298325  0.93537476  0.43859678  1
  Zn  Zn130  1  0.68387619  0.94189433  0.93695458  1
  Zn  Zn131  1  0.31255935  0.05736373  0.06095316  1
  Zn  Zn132  1  0.31456912  0.06226576  0.56080304  1
  Zn  Zn133  1  0.31078886  0.55899443  0.06169588  1
  Zn  Zn134  1  0.31199907  0.56339621  0.56582063  1
  Zn  Zn135  1  0.80933020  0.05944711  0.06556353  1
  Zn  Zn136  1  0.81400789  0.06310538  0.56021708  1
  Zn  Zn137  1  0.81354265  0.55909122  0.06135257  1
  Zn  Zn138  1  0.81642386  0.56456621  0.55885905  1
  Zn  Zn139  1  0.43391878  0.43779686  0.18795763  1
  Zn  Zn140  1  0.44332007  0.42879465  0.69125668  1
  Zn  Zn141  1  0.44140639  0.94037797  0.18862978  1
  Zn  Zn142  1  0.43765583  0.94587878  0.68441844  1
  Zn  Zn143  1  0.93572472  0.43524130  0.18982418  1
  Zn  Zn144  1  0.93744384  0.44041051  0.68929267  1
  Zn  Zn145  1  0.93572066  0.92711487  0.17959951  1
  Zn  Zn146  1  0.93674219  0.93790236  0.69047298  1
  Zn  Zn147  1  0.06115682  0.06165107  0.31127111  1
  Zn  Zn148  1  0.06445483  0.06404447  0.81140497  1
  Zn  Zn149  1  0.06286458  0.55979581  0.31027286  1
  Zn  Zn150  1  0.06428278  0.56418819  0.81286856  1
  Zn  Zn151  1  0.57859976  0.04348737  0.33803288  1
  Zn  Zn152  1  0.55933682  0.06531882  0.80634304  1
  Zn  Zn153  1  0.56281243  0.55967817  0.31487117  1
  Zn  Zn154  1  0.56334399  0.55606272  0.80689230  1
  Zn  Zn155  1  0.43544755  0.18769741  0.44100260  1
  Zn  Zn156  1  0.44070669  0.18926678  0.94098407  1
  Zn  Zn157  1  0.43756652  0.68946374  0.44408750  1
  Zn  Zn158  1  0.46158186  0.69778447  0.94442147  1
  Zn  Zn159  1  0.93496171  0.18812860  0.43908768  1
  Zn  Zn160  1  0.93711348  0.19211120  0.94058682  1
  Zn  Zn161  1  0.93874840  0.68493420  0.43400038  1
  Zn  Zn162  1  0.93818222  0.68476538  0.93183968  1
  Zn  Zn163  1  0.06025912  0.31272521  0.06289027  1
  Zn  Zn164  1  0.06221218  0.31528286  0.56343763  1
  Zn  Zn165  1  0.05727461  0.81202972  0.05801480  1
  Zn  Zn166  1  0.06542737  0.81014579  0.56338947  1
  Zn  Zn167  1  0.56056921  0.31227497  0.06114876  1
  Zn  Zn168  1  0.56153935  0.30991841  0.56323401  1
  Zn  Zn169  1  0.55912605  0.80996576  0.05850714  1
  Zn  Zn170  1  0.56616041  0.81621281  0.56068190  1
  O  O171  1  0.11757626  0.11879937  0.12051302  1
  O  O172  1  0.11408442  0.11625866  0.63014873  1
  O  O173  1  0.12341305  0.61768609  0.11615555  1
  O  O174  1  0.12145978  0.62039277  0.62144936  1
  O  O175  1  0.62139482  0.11960618  0.12218323  1
  O  O176  1  0.62102120  0.12896413  0.61819470  1
  O  O177  1  0.61090467  0.62069858  0.12300833  1
  O  O178  1  0.62671350  0.61514241  0.61772673  1
  O  O179  1  0.38127086  0.38207820  0.37635642  1
  O  O180  1  0.37394444  0.36754945  0.88983359  1
  O  O181  1  0.37596242  0.87920490  0.38231388  1
  O  O182  1  0.37880078  0.88704029  0.88129638  1
  O  O183  1  0.88051374  0.37897245  0.38134676  1
  O  O184  1  0.87913821  0.37944319  0.88001955  1
  O  O185  1  0.89425427  0.88150517  0.37587832  1
  O  O186  1  0.87099949  0.88538214  0.88299463  1
  O  O187  1  0.25614653  0.00711564  0.37069760  1
  O  O188  1  0.25643651  0.00313679  0.86510005  1
  O  O189  1  0.25527662  0.50879798  0.37705600  1
  O  O190  1  0.24814342  0.51638760  0.86792821  1
  O  O191  1  0.78523379  -0.01774533  0.37501478  1
  O  O192  1  0.75757762  0.01047513  0.86729656  1
  O  O193  1  0.75768410  0.49770750  0.36645795  1
  O  O194  1  0.76097491  0.50574366  0.87361659  1
  O  O195  1  0.23998739  0.49269133  0.12772041  1
  O  O196  1  0.24276438  0.49729719  0.63451210  1
  O  O197  1  0.24208878  0.99449448  0.13108494  1
  O  O198  1  0.24470921  0.99583539  0.62878448  1
  O  O199  1  0.74650277  0.48858941  0.13370592  1
  O  O200  1  0.74185469  0.50053310  0.62050809  1
  O  O201  1  0.73525680  0.99375812  0.12290308  1
  O  O202  1  0.75694868  0.99397959  0.63545253  1
  O  O203  1  0.00466742  0.36458368  0.25920531  1
  O  O204  1  0.00513718  0.37250310  0.75872825  1
  O  O205  1  0.00897492  0.86526572  0.25472197  1
  O  O206  1  0.00005657  0.86486494  0.75272981  1
  O  O207  1  0.50756815  0.38578759  0.26158796  1
  O  O208  1  0.51432745  0.35780310  0.74642401  1
  O  O209  1  0.48673920  0.86100598  0.25946783  1
  O  O210  1  0.51603469  0.88724395  0.74923230  1
  O  O211  1  0.48518299  0.11809221  0.24023252  1
  O  O212  1  0.51088969  0.14119931  0.73462141  1
  O  O213  1  0.49201887  0.62701657  0.24691476  1
  O  O214  1  0.49578816  0.61989581  0.74717595  1
  O  O215  1  1.00657807  0.13847990  0.24363376  1
  O  O216  1  0.99479345  0.13129825  0.74208605  1
  O  O217  1  1.00330685  0.64000917  0.25233948  1
  O  O218  1  0.99380243  0.63156439  0.74467437  1
  O  O219  1  0.36924290  0.25483815  0.01052163  1
  O  O220  1  0.36060470  0.25256222  0.50813720  1
  O  O221  1  0.38338477  0.76832958  -0.00195551  1
  O  O222  1  0.36976236  0.76018388  0.51079074  1
  O  O223  1  0.87595357  0.26343840  0.01082792  1
  O  O224  1  0.86970830  0.25822403  0.50559645  1
  O  O225  1  0.87652714  0.76383851  -0.00944996  1
  O  O226  1  0.86296457  0.74985794  0.49450509  1
  O  O227  1  0.13696108  0.25452985  0.49579657  1
  O  O228  1  0.13500462  0.24555421  1.00291714  1
  O  O229  1  0.12964336  0.73683559  0.49884694  1
  O  O230  1  0.12137401  0.74222070  0.98954659  1
  O  O231  1  0.63742538  0.25993643  0.49235345  1
  O  O232  1  0.61828219  0.23886958  0.99168152  1
  O  O233  1  0.63268364  0.74023511  0.50092528  1
  O  O234  1  0.58348055  0.73004524  0.97939294  1
  O  O235  1  0.48878149  0.24018788  0.12220664  1
  O  O236  1  0.49174414  0.24243249  0.62822936  1
  O  O237  1  0.49233776  0.73825795  0.13365135  1
  O  O238  1  0.48731819  0.75359960  0.62129024  1
  O  O239  1  0.99123738  0.24631428  0.13189424  1
  O  O240  1  0.99417223  0.24417169  0.62898245  1
  O  O241  1  1.00267019  0.74844530  0.13854044  1
  O  O242  1  1.00827074  0.73869186  0.63616712  1
  O  O243  1  0.00264495  0.25580050  0.36887326  1
  O  O244  1  -0.00101411  0.26232874  0.86903329  1
  O  O245  1  0.00505973  0.75748077  0.36880196  1
  O  O246  1  0.01017684  0.74945913  0.86589929  1
  O  O247  1  0.50059086  0.27006667  0.38732251  1
  O  O248  1  0.51160408  0.24106159  0.86618086  1
  O  O249  1  0.49869137  0.75474204  0.36944603  1
  O  O250  1  0.48808051  0.77224619  0.85814707  1
  O  O251  1  0.25474366  0.13298276  0.48785237  1
  O  O252  1  0.24461159  0.13408249  1.00303275  1
  O  O253  1  0.24170344  0.62486873  0.49389567  1
  O  O254  1  0.24310838  0.62255599  0.98812831  1
  O  O255  1  0.76351610  0.13946665  0.48992299  1
  O  O256  1  0.74135985  0.12067607  0.98981989  1
  O  O257  1  0.74398002  0.63314984  0.49934922  1
  O  O258  1  0.74781357  0.61773791  0.98416763  1
  O  O259  1  0.25756242  0.36734904  0.00592139  1
  O  O260  1  0.25124923  0.36698865  0.50760119  1
  O  O261  1  0.26626327  0.87980525  -0.00350525  1
  O  O262  1  0.25777309  0.87550434  0.51070556  1
  O  O263  1  0.75503150  0.38039128  0.01207569  1
  O  O264  1  0.76399115  0.36530885  0.49758856  1
  O  O265  1  0.75851330  0.87769485  -0.00005199  1
  O  O266  1  0.75036052  0.86793777  0.50973793  1
  O  O267  1  0.12777766  0.49281639  0.24172733  1
  O  O268  1  0.13597452  0.49852051  0.74373794  1
  O  O269  1  0.12668801  0.99089310  0.24459195  1
  O  O270  1  0.13150649  0.99726305  0.73974262  1
  O  O271  1  0.63392631  0.49008080  0.25158112  1
  O  O272  1  0.62275874  0.48128215  0.74183884  1
  O  O273  1  0.61922810  1.00046636  0.23598062  1
  O  O274  1  0.63878918  0.99157769  0.75732153  1
  O  O275  1  0.36732555  0.00627503  0.25699002  1
  O  O276  1  0.36398992  -0.00453589  0.75845920  1
  O  O277  1  0.37307325  0.51062663  0.25977020  1
  O  O278  1  0.36447410  0.49759727  0.74367349  1
  O  O279  1  0.89472856  -0.00167300  0.25694940  1
  O  O280  1  0.86779731  0.00593125  0.75927066  1
  O  O281  1  0.86316646  0.49288631  0.25964331  1
  O  O282  1  0.87885382  0.51052446  0.75867522  1
  O  O283  1  0.11660699  0.37083158  0.37244110  1
  O  O284  1  0.11722733  0.37742006  0.87267913  1
  O  O285  1  0.11753976  0.87623117  0.36756285  1
  O  O286  1  0.12292397  0.86519520  0.87477038  1
  O  O287  1  0.61669012  0.37284059  0.36878214  1
  O  O288  1  0.63224825  0.36339579  0.86610547  1
  O  O289  1  0.60567746  0.87348105  0.38295851  1
  O  O290  1  0.61745896  0.87744339  0.86526206  1
  O  O291  1  0.38061865  0.12908782  0.13037557  1
  O  O292  1  0.37367131  0.13741690  0.62385212  1
  O  O293  1  0.37904032  0.62087493  0.13704042  1
  O  O294  1  0.37363500  0.64370120  0.62340553  1
  O  O295  1  0.87900625  0.13707047  0.11569847  1
  O  O296  1  0.88441931  0.13409515  0.63006608  1
  O  O297  1  0.87858459  0.61520415  0.13048891  1
  O  O298  1  0.88795511  0.61612677  0.63261732  1
  O  O299  1  0.25759508  0.25323188  0.11747985  1
  O  O300  1  0.25328410  0.25409469  0.62060191  1
  O  O301  1  0.25984520  0.75823249  0.13789757  1
  O  O302  1  0.25626455  0.76178959  0.62735564  1
  O  O303  1  0.75828088  0.25999911  0.13435562  1
  O  O304  1  0.76459023  0.24398618  0.61737467  1
  O  O305  1  0.73173222  0.76407912  0.11723513  1
  O  O306  1  0.74611206  0.75994409  0.61610916  1
  O  O307  1  0.24573942  0.24400434  0.38203961  1
  O  O308  1  0.24915677  0.24889556  0.88810768  1
  O  O309  1  0.24769553  0.73580713  0.37761708  1
  O  O310  1  0.24031268  0.73765240  0.86579223  1
  O  O311  1  0.73769491  0.25582663  0.38295210  1
  O  O312  1  0.74110675  0.23742936  0.86939754  1
  O  O313  1  0.74601620  0.75220622  0.38486840  1
  O  O314  1  0.74924414  0.73555134  0.87410888  1
  O  O315  1  0.00467951  0.12086968  0.00628348  1
  O  O316  1  -0.00312413  0.11824381  0.51299035  1
  O  O317  1  0.01315642  0.62575837  -0.00315055  1
  O  O318  1  0.00956655  0.63010081  0.51044491  1
  O  O319  1  0.50786360  0.12379245  0.01301660  1
  O  O320  1  0.49883466  0.13157145  0.51366955  1
  O  O321  1  0.48565722  0.60652819  0.01274996  1
  O  O322  1  0.50927499  0.61673654  0.50557976  1
  O  O323  1  0.50016248  0.38608760  0.49407278  1
  O  O324  1  0.49249737  0.38787156  1.00684089  1
  O  O325  1  0.48694661  0.87004997  0.49129418  1
  O  O326  1  0.49218915  0.88123486  0.98638459  1
  O  O327  1  0.99061137  0.36822181  0.48736191  1
  O  O328  1  0.99082483  0.37108018  0.99027120  1
  O  O329  1  1.00254170  0.87975245  0.49395383  1
  O  O330  1  0.98339312  0.88227222  0.99917849  1
  O  O331  1  0.49576138  0.49404481  0.38748640  1
  O  O332  1  0.49727401  0.50377961  0.88858470  1
  O  O333  1  0.48187890  0.98671661  0.36536664  1
  O  O334  1  0.49085880  0.99531691  0.86971812  1
  O  O335  1  0.98949564  0.48715668  0.36527404  1
  O  O336  1  0.99021845  0.48960777  0.86936163  1
  O  O337  1  1.00025285  0.99249218  0.38323296  1
  O  O338  1  0.98802684  1.00089496  0.87770798  1
  O  O339  1  0.00338457  0.00391849  0.11845862  1
  O  O340  1  0.00595364  0.00630542  0.62207650  1
  O  O341  1  0.01347660  0.49870940  0.13210168  1
  O  O342  1  0.01439825  0.51189735  0.63497814  1
  O  O343  1  0.51124558  0.00889907  0.12292782  1
  O  O344  1  0.49800706  0.02112029  0.62816828  1
  O  O345  1  0.50115018  0.50790408  0.12609162  1
  O  O346  1  0.50854553  0.49652861  0.61593580  1
  O  O347  1  0.24263005  0.37441303  0.24473977  1
  O  O348  1  0.24467010  0.38304382  0.74782986  1
  O  O349  1  0.23753556  0.88058009  0.25652796  1
  O  O350  1  0.24822458  0.88626163  0.73965579  1
  O  O351  1  0.74209206  0.38193878  0.24180160  1
  O  O352  1  0.73739036  0.36720282  0.74805669  1
  O  O353  1  0.75533188  0.86917740  0.23096613  1
  O  O354  1  0.74389990  0.88196466  0.74474315  1
  O  O355  1  0.25844148  0.11981297  0.25767811  1
  O  O356  1  0.24467487  0.11377354  0.74985707  1
  O  O357  1  0.25633323  0.62320841  0.26146524  1
  O  O358  1  0.25904391  0.61934574  0.76155959  1
  O  O359  1  0.75167905  0.12879252  0.27191798  1
  O  O360  1  0.75476613  0.11916650  0.75691822  1
  O  O361  1  0.74739344  0.61345254  0.25206182  1
  O  O362  1  0.76330088  0.63116664  0.75600603  1
  O  O363  1  0.36888538  0.11880607  0.36899676  1
  O  O364  1  0.37367766  0.11431144  0.88257333  1
  O  O365  1  0.36806772  0.62022937  0.37365002  1
  O  O366  1  0.36390219  0.63818812  0.88311592  1
  O  O367  1  0.88757912  0.10748130  0.37565364  1
  O  O368  1  0.86826549  0.12156896  0.87216928  1
  O  O369  1  0.87456207  0.61234811  0.36870182  1
  O  O370  1  0.86644606  0.61666921  0.86908406  1
  O  O371  1  0.12885781  0.38041510  0.12855171  1
  O  O372  1  0.12910024  0.38441753  0.63128079  1
  O  O373  1  0.12215048  0.87972819  0.13268823  1
  O  O374  1  0.13412522  0.88387474  0.62612693  1
  O  O375  1  0.63037401  0.37353716  0.13131442  1
  O  O376  1  0.62662238  0.37802543  0.63430116  1
  O  O377  1  0.63056152  0.88769498  0.11478960  1
  O  O378  1  0.63419226  0.87608894  0.63626206  1
  O  O379  1  0.11643762  0.25607144  0.25561842  1
  O  O380  1  0.11908517  0.25996985  0.75224421  1
  O  O381  1  0.11621964  0.75802233  0.25331863  1
  O  O382  1  0.11609051  0.74927213  0.76005337  1
  O  O383  1  0.62848909  0.26841725  0.25673912  1
  O  O384  1  0.62161857  0.25836754  0.75586704  1
  O  O385  1  0.60839046  0.74112583  0.25438619  1
  O  O386  1  0.63015357  0.76813385  0.75402733  1
  O  O387  1  0.36713633  0.23922954  0.24022853  1
  O  O388  1  0.38385222  0.25468176  0.74190578  1
  O  O389  1  0.38400227  0.73446358  0.25530951  1
  O  O390  1  0.37178299  0.75555891  0.73551303  1
  O  O391  1  0.88533937  0.25965970  0.23895797  1
  O  O392  1  0.87991641  0.24754498  0.74182098  1
  O  O393  1  0.89144452  0.75214612  0.25685027  1
  O  O394  1  0.88743486  0.73870599  0.75853742  1
  O  O395  1  0.38464612  0.50012486  0.49913928  1
  O  O396  1  0.38379063  0.48782603  1.00653803  1
  O  O397  1  0.36817853  0.99012886  0.48857760  1
  O  O398  1  0.37860413  0.99342397  0.98945577  1
  O  O399  1  0.86984537  0.49104982  0.48730059  1
  O  O400  1  0.87334924  0.48566885  0.98897127  1
  O  O401  1  0.89227797  0.99479203  0.50068748  1
  O  O402  1  0.87699853  0.99755143  0.99022735  1
  O  O403  1  0.11843971  0.00343439  0.00407262  1
  O  O404  1  0.11478346  -0.00365772  0.51198273  1
  O  O405  1  0.13032357  0.50881459  0.00964752  1
  O  O406  1  0.13045141  0.50961464  0.51427322  1
  O  O407  1  0.62200321  0.01515374  0.00490532  1
  O  O408  1  0.64778454  0.03418334  0.42727033  1
  O  O409  1  0.60832348  0.50341798  0.00063778  1
  O  O410  1  0.62153008  0.50459996  0.50752700  1
  O  O411  1  0.36991334  0.36502605  0.12320357  1
  O  O412  1  0.36833073  0.36354972  0.62453898  1
  O  O413  1  0.38035124  0.88252855  0.10708733  1
  O  O414  1  0.37001047  0.87128430  0.61912484  1
  O  O415  1  0.86822286  0.36989011  0.11822841  1
  O  O416  1  0.88746262  0.36641199  0.61527261  1
  O  O417  1  0.85838203  0.87820640  0.10911188  1
  O  O418  1  0.86326221  0.87591709  0.62575419  1
  O  O419  1  0.13779215  0.13018898  0.36781084  1
  O  O420  1  0.12693935  0.12894344  0.88421446  1
  O  O421  1  0.13120776  0.61921970  0.38498622  1
  O  O422  1  0.13216579  0.63069725  0.88214355  1
  O  O423  1  0.59690366  0.15702099  0.35802243  1
  O  O424  1  0.63095873  0.13119793  0.88118147  1
  O  O425  1  0.62699227  0.62325295  0.38995447  1
  O  O426  1  0.64395366  0.61882892  0.86453223  1
