# generated using pymatgen
data_V85Zn86O256
_symmetry_space_group_name_H-M   'P 1'
_cell_length_a   16.99474994
_cell_length_b   16.98341854
_cell_length_c   16.95777650
_cell_angle_alpha   89.98627129
_cell_angle_beta   89.91901029
_cell_angle_gamma   90.06259615
_symmetry_Int_Tables_number   1
_chemical_formula_structural   V85Zn86O256
_chemical_formula_sum   'V85 Zn86 O256'
_cell_volume   4894.49729456
_cell_formula_units_Z   1
loop_
 _symmetry_equiv_pos_site_id
 _symmetry_equiv_pos_as_xyz
  1  'x, y, z'
loop_
 _atom_site_type_symbol
 _atom_site_label
 _atom_site_symmetry_multiplicity
 _atom_site_fract_x
 _atom_site_fract_y
 _atom_site_fract_z
 _atom_site_occupancy
  V  V0  1  0.75356229  0.62464728  0.86982519  1
  V  V1  1  0.87726755  0.74290193  0.63157526  1
  V  V2  1  0.37397703  0.86843583  0.50540826  1
  V  V3  1  0.12717085  0.87029641  0.76135470  1
  V  V4  1  0.24972375  0.00092568  0.75033787  1
  V  V5  1  0.87476744  0.62503091  0.24935132  1
  V  V6  1  0.24768596  0.14071988  0.87765983  1
  V  V7  1  0.37478535  0.00267916  0.87571073  1
  V  V8  1  0.00031883  -0.00002107  0.50030402  1
  V  V9  1  0.74109079  0.37794031  0.13253054  1
  V  V10  1  0.00304365  0.73881198  0.75275087  1
  V  V11  1  0.12187295  0.50396548  0.61166567  1
  V  V12  1  0.49943860  0.49516777  -0.00154635  1
  V  V13  1  0.50025165  0.00225927  0.00168570  1
  V  V14  1  0.88118467  0.38154700  -0.00202883  1
  V  V15  1  0.87573170  -0.00118032  0.37773361  1
  V  V16  1  0.12582724  0.12278513  0.49894819  1
  V  V17  1  0.12460819  0.62385758  -0.00061130  1
  V  V18  1  0.12307097  0.37580266  0.24837363  1
  V  V19  1  0.88128168  0.50404486  0.38048174  1
  V  V20  1  0.74729020  0.87372924  0.62617817  1
  V  V21  1  0.12941287  0.87943745  0.24934779  1
  V  V22  1  0.75066712  0.12853274  0.38319770  1
  V  V23  1  0.62446229  0.62414982  0.00339790  1
  V  V24  1  0.00797035  0.25910017  0.76118460  1
  V  V25  1  -0.01706479  0.87539613  0.87648127  1
  V  V26  1  0.25427326  0.86090137  0.62248359  1
  V  V27  1  0.37534047  0.74705747  0.12497267  1
  V  V28  1  0.49614738  0.12440274  0.13267241  1
  V  V29  1  0.62682221  0.13694235  0.50079562  1
  V  V30  1  0.37082665  0.00215486  0.36263127  1
  V  V31  1  0.37514259  0.24848866  0.62234593  1
  V  V32  1  0.49661675  0.75096096  0.74291925  1
  V  V33  1  0.12435453  0.24871772  0.37380781  1
  V  V34  1  0.37148025  0.49989035  0.37146325  1
  V  V35  1  0.37480353  0.87626919  -0.00106764  1
  V  V36  1  0.74782819  0.62065561  0.37704886  1
  V  V37  1  0.12810448  0.13728195  -0.00527262  1
  V  V38  1  0.74524630  0.25013126  -0.00949029  1
  V  V39  1  0.38532030  0.37414202  0.49016520  1
  V  V40  1  0.50122250  0.00138013  0.49838382  1
  V  V41  1  -0.00351965  0.25066904  0.25048487  1
  V  V42  1  -0.00265686  0.12491785  0.12166939  1
  V  V43  1  0.00114929  0.75196000  0.24866796  1
  V  V44  1  0.49897400  0.87529460  0.87450350  1
  V  V45  1  0.24736924  0.62891188  0.87333769  1
  V  V46  1  0.12561123  -0.00346233  0.62449801  1
  V  V47  1  -0.00157899  0.37666526  0.38304025  1
  V  V48  1  0.49707970  0.25661590  0.25524046  1
  V  V49  1  0.25269383  0.11922657  0.36052924  1
  V  V50  1  0.74784729  0.74358882  0.50008421  1
  V  V51  1  0.13754386  0.73964527  0.38465252  1
  V  V52  1  0.36863131  0.24881036  0.12115941  1
  V  V53  1  0.37901728  0.12919729  0.75076911  1
  V  V54  1  0.50084113  0.12413559  0.62621267  1
  V  V55  1  0.62379688  0.75031711  0.87491091  1
  V  V56  1  0.37814317  0.50229588  0.87492996  1
  V  V57  1  0.74869265  -0.00138062  0.24742163  1
  V  V58  1  0.12757358  0.00083869  0.12375502  1
  V  V59  1  0.87523981  0.75525930  0.11766028  1
  V  V60  1  0.37615045  0.63011196  0.73858323  1
  V  V61  1  0.12252714  0.50048974  0.12206144  1
  V  V62  1  0.88023062  0.24729823  0.62135204  1
  V  V63  1  0.50974843  0.50467771  0.49187183  1
  V  V64  1  0.62197338  0.74618515  0.37971226  1
  V  V65  1  0.75354738  0.87596416  0.12055485  1
  V  V66  1  0.25049554  0.24891839  0.49613877  1
  V  V67  1  0.24601205  0.75123232  -0.00365394  1
  V  V68  1  0.24906925  0.87898011  0.12496493  1
  V  V69  1  0.86578434  0.38021480  0.50896493  1
  V  V70  1  0.87132022  0.24885803  0.12845701  1
  V  V71  1  0.51265836  0.62403901  0.61998297  1
  V  V72  1  0.24805268  0.50662534  0.25206804  1
  V  V73  1  0.87274921  0.12633990  0.25071348  1
  V  V74  1  -0.01053866  -0.00254393  -0.00524613  1
  V  V75  1  0.00496280  0.62536438  0.61030190  1
  V  V76  1  0.49910008  0.87431308  0.37612748  1
  V  V77  1  0.74866881  0.49178417  0.74777199  1
  V  V78  1  0.87592570  0.87387645  0.49972437  1
  V  V79  1  0.49970100  0.74864955  0.25178069  1
  V  V80  1  -0.00151809  0.62117061  0.12037278  1
  V  V81  1  0.24654377  0.50122223  0.74803734  1
  V  V82  1  0.62676602  0.12745492  -0.00426929  1
  V  V83  1  0.00195819  0.87486385  0.37444619  1
  V  V84  1  0.88219480  0.50204969  0.87541182  1
  Zn  Zn85  1  0.37372838  0.36130439  -0.01095922  1
  Zn  Zn86  1  0.75731177  0.00005596  0.76549186  1
  Zn  Zn87  1  0.50713851  0.37489893  0.84728865  1
  Zn  Zn88  1  0.88178473  0.10994071  0.76643718  1
  Zn  Zn89  1  0.24615173  0.37527991  0.62165808  1
  Zn  Zn90  1  0.62720866  -0.00048841  0.62794875  1
  Zn  Zn91  1  0.73947575  0.36172354  0.63596501  1
  Zn  Zn92  1  0.62172661  0.24514240  0.36968269  1
  Zn  Zn93  1  0.61267559  0.25528269  0.85666589  1
  Zn  Zn94  1  0.74483406  0.50321088  0.25023252  1
  Zn  Zn95  1  0.00646416  0.12776691  0.63169690  1
  Zn  Zn96  1  0.49859909  0.62371207  0.12568573  1
  Zn  Zn97  1  0.61819732  0.50047306  0.13198916  1
  Zn  Zn98  1  0.36797249  0.62859629  0.25376456  1
  Zn  Zn99  1  0.61052248  0.38915411  0.28121050  1
  Zn  Zn100  1  0.24868424  0.37081574  0.12019386  1
  Zn  Zn101  1  0.62647299  0.87451972  0.25095427  1
  Zn  Zn102  1  0.12981401  0.36747272  0.75835362  1
  Zn  Zn103  1  0.62424861  -0.00045803  0.12697204  1
  Zn  Zn104  1  0.62514990  0.88103094  0.75018942  1
  Zn  Zn105  1  0.75486523  0.75426681  -0.00393295  1
  Zn  Zn106  1  0.58701881  0.45748497  0.66715827  1
  Zn  Zn107  1  0.18324732  0.18627004  0.18503910  1
  Zn  Zn108  1  0.18868461  0.18513989  0.68812346  1
  Zn  Zn109  1  0.18609125  0.69108298  0.18916448  1
  Zn  Zn110  1  0.18212418  0.68476792  0.68604756  1
  Zn  Zn111  1  0.68300913  0.18762362  0.18774253  1
  Zn  Zn112  1  0.70113587  0.17607676  0.69538382  1
  Zn  Zn113  1  0.68833763  0.69043939  0.18956335  1
  Zn  Zn114  1  0.68819002  0.68477539  0.69033571  1
  Zn  Zn115  1  0.31251228  0.31314897  0.30554421  1
  Zn  Zn116  1  0.31891687  0.31674132  0.80786193  1
  Zn  Zn117  1  0.31314849  0.81763749  0.31457950  1
  Zn  Zn118  1  0.31286915  0.81396586  0.81020162  1
  Zn  Zn119  1  0.77146416  0.34276856  0.34992528  1
  Zn  Zn120  1  0.82259197  0.30994660  0.81063150  1
  Zn  Zn121  1  0.81305851  0.81058287  0.31045892  1
  Zn  Zn122  1  0.81238970  0.81273711  0.80946589  1
  Zn  Zn123  1  0.18973531  0.43593803  0.43410215  1
  Zn  Zn124  1  0.19101243  0.40644692  0.93803209  1
  Zn  Zn125  1  0.19138790  0.93286141  0.43761159  1
  Zn  Zn126  1  0.18701009  0.94729062  0.93970429  1
  Zn  Zn127  1  0.63504102  0.37202812  0.49284929  1
  Zn  Zn128  1  0.68677349  0.43473584  0.93488597  1
  Zn  Zn129  1  0.68761106  0.93678266  0.43941147  1
  Zn  Zn130  1  0.68343718  0.93610037  0.94163665  1
  Zn  Zn131  1  0.31183430  0.06823233  0.06224420  1
  Zn  Zn132  1  0.31182366  0.05751864  0.55764819  1
  Zn  Zn133  1  0.30826518  0.55686020  0.06109641  1
  Zn  Zn134  1  0.30296089  0.56090804  0.55748766  1
  Zn  Zn135  1  0.81168172  0.06695343  -0.06402856  1
  Zn  Zn136  1  0.80357580  0.07254923  0.58572969  1
  Zn  Zn137  1  0.80939420  0.56391020  0.06011033  1
  Zn  Zn138  1  0.81547474  0.56265502  0.56411957  1
  Zn  Zn139  1  0.43549749  0.43480423  0.18435276  1
  Zn  Zn140  1  0.42223379  0.44109228  0.67762016  1
  Zn  Zn141  1  0.43881371  0.93383759  0.18583764  1
  Zn  Zn142  1  0.43631741  0.93921728  0.68802308  1
  Zn  Zn143  1  0.93308686  0.43719589  0.19118257  1
  Zn  Zn144  1  0.94275106  0.44296994  0.69395135  1
  Zn  Zn145  1  0.93768337  0.94031568  0.18590482  1
  Zn  Zn146  1  0.93708112  0.93300717  0.68865030  1
  Zn  Zn147  1  0.06238766  0.06328257  0.31148080  1
  Zn  Zn148  1  0.05977946  0.06434977  0.81311201  1
  Zn  Zn149  1  0.06189042  0.56436457  0.31138661  1
  Zn  Zn150  1  0.08648703  0.51613369  0.84428118  1
  Zn  Zn151  1  0.56325807  0.06294006  0.31346071  1
  Zn  Zn152  1  0.56985856  0.06269500  0.81286276  1
  Zn  Zn153  1  0.55908771  0.56560094  0.31563240  1
  Zn  Zn154  1  0.56437997  0.56558198  0.81422659  1
  Zn  Zn155  1  0.43534259  0.18294281  0.43467746  1
  Zn  Zn156  1  0.44414890  0.18982972  0.93613332  1
  Zn  Zn157  1  0.38928835  0.66555982  0.46512378  1
  Zn  Zn158  1  0.43731510  0.68565532  0.93616606  1
  Zn  Zn159  1  0.93592329  0.18826730  0.44162538  1
  Zn  Zn160  1  0.94187553  0.19136729  0.93748218  1
  Zn  Zn161  1  0.93967296  0.69260059  0.43594290  1
  Zn  Zn162  1  0.94075945  0.68766403  0.93394164  1
  Zn  Zn163  1  0.05975480  0.31458646  0.06149200  1
  Zn  Zn164  1  0.06417177  0.31684695  0.56803184  1
  Zn  Zn165  1  0.06061773  0.81248780  0.05900369  1
  Zn  Zn166  1  0.06549613  0.81224494  0.56354682  1
  Zn  Zn167  1  0.55802717  0.31146323  0.06179700  1
  Zn  Zn168  1  0.56296731  0.29937225  0.67950542  1
  Zn  Zn169  1  0.56557552  0.81478801  0.06404492  1
  Zn  Zn170  1  0.56151097  0.81184670  0.56069165  1
  O  O171  1  0.11847844  0.11812082  0.11776051  1
  O  O172  1  0.12732369  0.11205861  0.61812783  1
  O  O173  1  0.11720431  0.62076061  0.12100280  1
  O  O174  1  0.11992477  0.61440781  0.62214782  1
  O  O175  1  0.61563940  0.12350904  0.11575818  1
  O  O176  1  0.61340444  0.12222750  0.61595979  1
  O  O177  1  0.62534487  0.62663754  0.11432223  1
  O  O178  1  0.61285694  0.62348834  0.62797695  1
  O  O179  1  0.37133427  0.38120605  0.38095976  1
  O  O180  1  0.37871981  0.39281170  0.87070003  1
  O  O181  1  0.37909882  0.88331621  0.38432237  1
  O  O182  1  0.37930989  0.88176553  0.87977428  1
  O  O183  1  0.87662995  0.38386179  0.38759263  1
  O  O184  1  0.86913425  0.38635375  0.88979454  1
  O  O185  1  0.88116362  0.87787851  0.37946847  1
  O  O186  1  0.88466149  0.87416353  0.87623603  1
  O  O187  1  0.25865191  0.00815018  0.38192239  1
  O  O188  1  0.25806909  0.00772920  0.86877903  1
  O  O189  1  0.25621348  0.49302039  0.36163692  1
  O  O190  1  0.26136645  0.51421241  0.86543246  1
  O  O191  1  0.75623490  0.00441399  0.36870589  1
  O  O192  1  0.74295838  0.00234122  0.87834113  1
  O  O193  1  0.76445856  0.51414077  0.37497571  1
  O  O194  1  0.75582441  0.50686269  0.86871331  1
  O  O195  1  0.23753225  0.50011728  0.13383496  1
  O  O196  1  0.24192790  0.50107438  0.63109852  1
  O  O197  1  0.23652153  0.99473111  0.11520440  1
  O  O198  1  0.24029520  0.99639546  0.63001139  1
  O  O199  1  0.74845681  0.48733503  0.12557273  1
  O  O200  1  0.76140150  0.50448691  0.64631815  1
  O  O201  1  0.75122097  0.98952902  0.14099583  1
  O  O202  1  0.74644539  0.97515049  0.60540505  1
  O  O203  1  0.00215897  0.36986010  0.25923646  1
  O  O204  1  0.00462174  0.36354438  0.74703302  1
  O  O205  1  0.00863056  0.87192835  0.25323937  1
  O  O206  1  0.00866678  0.86962056  0.76286638  1
  O  O207  1  0.50215425  0.36209681  0.24710539  1
  O  O208  1  0.50767729  0.38877375  0.73077505  1
  O  O209  1  0.50049192  0.86370169  0.25649249  1
  O  O210  1  0.49941355  0.86703850  0.75511803  1
  O  O211  1  0.50699607  0.13307301  0.23886928  1
  O  O212  1  0.48759246  0.11682590  0.73972793  1
  O  O213  1  0.49547412  0.63884068  0.24728448  1
  O  O214  1  0.49492222  0.63087256  0.74280399  1
  O  O215  1  0.99336120  0.13033231  0.24397852  1
  O  O216  1  0.99848232  0.13720944  0.74844160  1
  O  O217  1  0.99478718  0.63193382  0.23840603  1
  O  O218  1  1.00677167  0.63992190  0.74163557  1
  O  O219  1  0.38111891  0.24662304  0.01642629  1
  O  O220  1  0.36936665  0.25355848  0.50189994  1
  O  O221  1  0.36742838  0.75498422  0.00583391  1
  O  O222  1  0.39525585  0.77210966  0.50014172  1
  O  O223  1  0.86369302  0.26071683  0.00924498  1
  O  O224  1  0.88539482  0.27017316  0.50848308  1
  O  O225  1  0.87450854  0.74407369  0.01387817  1
  O  O226  1  0.86771733  0.75467678  0.50682736  1
  O  O227  1  0.13315818  0.24580069  0.49451758  1
  O  O228  1  0.12113155  0.23691096  1.00593886  1
  O  O229  1  0.12345025  0.75791898  0.48308879  1
  O  O230  1  0.13846290  0.73983865  1.00806311  1
  O  O231  1  0.62012751  0.23669397  0.49621947  1
  O  O232  1  0.63714865  0.24557576  1.00692402  1
  O  O233  1  0.63442823  0.75166837  0.49042757  1
  O  O234  1  0.62261085  0.74252555  0.98924988  1
  O  O235  1  0.49274005  0.24257315  0.13307054  1
  O  O236  1  0.48475807  0.23487409  0.61908781  1
  O  O237  1  0.49075343  0.75250615  0.13218469  1
  O  O238  1  0.50581053  0.74308212  0.63659367  1
  O  O239  1  0.99048761  0.24648481  0.12949865  1
  O  O240  1  0.99575236  0.25088510  0.63064706  1
  O  O241  1  0.99389186  0.74386419  0.12836367  1
  O  O242  1  0.99583704  0.74569165  0.63054844  1
  O  O243  1  0.00412449  0.25686354  0.37037560  1
  O  O244  1  -0.00032400  0.25395808  0.86074754  1
  O  O245  1  0.00707241  0.75781274  0.36692740  1
  O  O246  1  -0.00415596  0.76289673  0.86693734  1
  O  O247  1  0.49753505  0.24206371  0.35880891  1
  O  O248  1  0.49477895  0.26062081  0.86852150  1
  O  O249  1  0.50837609  0.75492017  0.36720057  1
  O  O250  1  0.50583913  0.75375290  0.86751620  1
  O  O251  1  0.24553115  0.13381192  0.49244318  1
  O  O252  1  0.24056831  0.12076966  0.98904967  1
  O  O253  1  0.28249383  0.64619603  0.49519955  1
  O  O254  1  0.24536571  0.63275717  0.99374373  1
  O  O255  1  0.73815201  0.11409839  0.49423011  1
  O  O256  1  0.74188814  0.14313242  1.00344681  1
  O  O257  1  0.75792870  0.63553815  0.49198715  1
  O  O258  1  0.73870494  0.62765456  0.99171459  1
  O  O259  1  0.26587876  0.38987658  0.00977436  1
  O  O260  1  0.25624808  0.35965023  0.49668375  1
  O  O261  1  0.25385504  0.86839194  0.00293557  1
  O  O262  1  0.26198523  0.88007479  0.51042804  1
  O  O263  1  0.75555038  0.36610306  0.01330477  1
  O  O264  1  0.76603176  0.37790759  0.51001284  1
  O  O265  1  0.74571948  0.87248509  0.01607990  1
  O  O266  1  0.75500012  0.85911181  0.50256789  1
  O  O267  1  0.12903912  0.49630759  0.24293154  1
  O  O268  1  0.14148118  0.51007873  0.73968665  1
  O  O269  1  0.11617794  0.99125697  0.23592297  1
  O  O270  1  0.12928349  0.99166141  0.74174876  1
  O  O271  1  0.62587354  0.49854314  0.24992224  1
  O  O272  1  0.64269530  0.50538476  0.75445310  1
  O  O273  1  0.63593980  0.99750417  0.25106888  1
  O  O274  1  0.63312862  0.99820481  0.74463137  1
  O  O275  1  0.37758374  -0.00913326  0.26348553  1
  O  O276  1  0.36970602  0.01025541  0.75504849  1
  O  O277  1  0.36522639  0.49700875  0.25339258  1
  O  O278  1  0.36645531  0.51156091  0.75378258  1
  O  O279  1  0.86943405  0.00618849  0.25682860  1
  O  O280  1  0.87531577  -0.00528631  0.75451478  1
  O  O281  1  0.87093567  0.50738718  0.26058903  1
  O  O282  1  0.86665973  0.49520115  0.76871716  1
  O  O283  1  0.11643299  0.36963606  0.36927179  1
  O  O284  1  0.11591441  0.40775513  0.86444874  1
  O  O285  1  0.12122114  0.87294104  0.36450027  1
  O  O286  1  0.13115425  0.87839504  0.86294666  1
  O  O287  1  0.65687536  0.35666176  0.38140992  1
  O  O288  1  0.61762034  0.36895906  0.88025011  1
  O  O289  1  0.61910847  0.86410876  0.37533416  1
  O  O290  1  0.61735312  0.86357671  0.87583651  1
  O  O291  1  0.38504973  0.13381610  0.12278925  1
  O  O292  1  0.37910838  0.12826318  0.62910189  1
  O  O293  1  0.37292967  0.63937035  0.12409831  1
  O  O294  1  0.38406670  0.62110988  0.63711040  1
  O  O295  1  0.88027228  0.13869118  0.13034741  1
  O  O296  1  0.89076733  0.14520616  0.60219215  1
  O  O297  1  0.88122745  0.63008391  0.12789777  1
  O  O298  1  0.88533108  0.63705276  0.62200403  1
  O  O299  1  0.26525281  0.24599238  0.13274550  1
  O  O300  1  0.25847069  0.24591573  0.61235042  1
  O  O301  1  0.25720971  0.75659646  0.11684492  1
  O  O302  1  0.24809001  0.76250294  0.63137588  1
  O  O303  1  0.75616916  0.26022565  0.12366792  1
  O  O304  1  0.77709719  0.25253292  0.63013566  1
  O  O305  1  0.75937122  0.75800493  0.12655086  1
  O  O306  1  0.75671457  0.75013552  0.61942089  1
  O  O307  1  0.24559247  0.24204334  0.37851765  1
  O  O308  1  0.25690199  0.24009520  0.86937828  1
  O  O309  1  0.23585564  0.75327290  0.36631392  1
  O  O310  1  0.25790327  0.74050854  0.88462366  1
  O  O311  1  0.75779670  0.22862305  0.37167660  1
  O  O312  1  0.74991542  0.26167948  0.89128408  1
  O  O313  1  0.74471102  0.74228412  0.38115744  1
  O  O314  1  0.74251858  0.74456901  0.87520188  1
  O  O315  1  0.00854758  0.11891449  0.00218993  1
  O  O316  1  0.01084086  0.11662694  0.49706011  1
  O  O317  1  0.01200422  0.63422322  0.01020234  1
  O  O318  1  -0.00179622  0.62876243  0.51086893  1
  O  O319  1  0.50608075  0.12070809  0.01078697  1
  O  O320  1  0.50485505  0.11810690  0.50523604  1
  O  O321  1  0.50933817  0.61916422  -0.00041218  1
  O  O322  1  0.48947911  0.61277834  0.50737845  1
  O  O323  1  0.48830659  0.39067089  0.50112746  1
  O  O324  1  0.49309006  0.39029113  1.00458801  1
  O  O325  1  0.49697159  0.88601873  0.49681623  1
  O  O326  1  0.49440934  0.88033865  0.99513631  1
  O  O327  1  0.99962502  0.37561963  0.48566232  1
  O  O328  1  0.97965843  0.37258511  1.00576014  1
  O  O329  1  0.99547442  0.88023407  0.49489354  1
  O  O330  1  1.00692465  0.87991874  0.98357820  1
  O  O331  1  0.49088540  0.50067293  0.38486920  1
  O  O332  1  0.49199338  0.50367261  0.87993712  1
  O  O333  1  0.49310095  0.99600581  0.38050072  1
  O  O334  1  0.49445927  0.99566331  0.88074486  1
  O  O335  1  0.98911465  0.49170967  0.36683070  1
  O  O336  1  0.97944082  0.51377037  0.87693377  1
  O  O337  1  0.99541752  0.99424548  0.37917359  1
  O  O338  1  1.00602769  0.98424695  0.88040665  1
  O  O339  1  0.00727495  0.00443831  0.11616201  1
  O  O340  1  0.01298466  -0.00386624  0.61967344  1
  O  O341  1  0.00752642  0.51214922  0.13256812  1
  O  O342  1  0.01458741  0.51038732  0.63087223  1
  O  O343  1  0.49900254  0.00679598  0.12071170  1
  O  O344  1  0.49793385  0.00934139  0.61561119  1
  O  O345  1  0.49855477  0.50528917  0.11537390  1
  O  O346  1  0.49689442  0.50806180  0.61098896  1
  O  O347  1  0.23930818  0.38219261  0.24324260  1
  O  O348  1  0.25285899  0.38856888  0.74501868  1
  O  O349  1  0.23739508  0.87248219  0.24059123  1
  O  O350  1  0.24612220  0.88038162  0.74318719  1
  O  O351  1  0.75014819  0.37680658  0.23797846  1
  O  O352  1  0.75567339  0.38743847  0.75074734  1
  O  O353  1  0.75012405  0.88210122  0.24595714  1
  O  O354  1  0.74733043  0.87187661  0.73640678  1
  O  O355  1  0.24262899  0.12496771  0.26170895  1
  O  O356  1  0.25852852  0.12013760  0.75668097  1
  O  O357  1  0.24927732  0.61200113  0.24357496  1
  O  O358  1  0.25744080  0.62494062  0.75513619  1
  O  O359  1  0.75354618  0.11617847  0.25728763  1
  O  O360  1  0.77741372  0.09932091  0.70284824  1
  O  O361  1  0.75693745  0.62709532  0.26027840  1
  O  O362  1  0.75042098  0.61918523  0.76414459  1
  O  O363  1  0.36422473  0.11387752  0.37860946  1
  O  O364  1  0.36940508  0.12197073  0.86784508  1
  O  O365  1  0.37907664  0.60465178  0.36793202  1
  O  O366  1  0.36884897  0.62037612  0.86465914  1
  O  O367  1  0.87040459  0.11766839  0.37317875  1
  O  O368  1  0.86537649  0.14270304  0.87382741  1
  O  O369  1  0.87171873  0.62201204  0.37093121  1
  O  O370  1  0.86315104  0.61285399  0.89074470  1
  O  O371  1  0.11990282  0.38605530  0.12892793  1
  O  O372  1  0.12749464  0.39187244  0.63068020  1
  O  O373  1  0.12757404  0.88185170  0.12887398  1
  O  O374  1  0.13382690  0.88217903  0.63094114  1
  O  O375  1  0.63796238  0.37503985  0.12254975  1
  O  O376  1  0.62975903  0.36957196  0.60736516  1
  O  O377  1  0.63563881  0.87684182  0.13071684  1
  O  O378  1  0.63423805  0.87102825  0.62671239  1
  O  O379  1  0.11634414  0.25509364  0.25345325  1
  O  O380  1  0.11443103  0.25105823  0.74216610  1
  O  O381  1  0.11873774  0.76209189  0.25195193  1
  O  O382  1  0.11589407  0.76156789  0.74362270  1
  O  O383  1  0.61023322  0.25364399  0.24914365  1
  O  O384  1  0.63200169  0.24160785  0.74527269  1
  O  O385  1  0.61667174  0.75086644  0.25962679  1
  O  O386  1  0.61543213  0.74781205  0.76211272  1
  O  O387  1  0.38849107  0.25121597  0.23968980  1
  O  O388  1  0.36732700  0.23942742  0.73448436  1
  O  O389  1  0.38065444  0.75203168  0.24224964  1
  O  O390  1  0.38759534  0.74222568  0.75744585  1
  O  O391  1  0.87928398  0.24558662  0.24088681  1
  O  O392  1  0.89094894  0.25442959  0.73495247  1
  O  O393  1  0.88180944  0.74374048  0.24171485  1
  O  O394  1  0.88661778  0.75584278  0.73902578  1
  O  O395  1  0.37265203  0.48862887  0.48916630  1
  O  O396  1  0.38529416  0.51240310  0.98733608  1
  O  O397  1  0.38720299  0.99503459  0.49256635  1
  O  O398  1  0.37984267  0.99559197  0.99589498  1
  O  O399  1  0.87606562  0.49191379  0.49320130  1
  O  O400  1  0.86702839  0.48802042  0.99430477  1
  O  O401  1  0.88222583  0.99231595  0.49589848  1
  O  O402  1  0.89153154  1.00772637  1.00102480  1
  O  O403  1  0.11564414  0.00762915  0.00902795  1
  O  O404  1  0.12154530  0.00113920  0.50675907  1
  O  O405  1  0.13017196  0.51459870  0.01401943  1
  O  O406  1  0.13273552  0.49675298  0.51287946  1
  O  O407  1  0.61675318  0.01009795  0.00464047  1
  O  O408  1  0.61124931  0.00500028  0.49937141  1
  O  O409  1  0.61608801  0.50988458  0.00016128  1
  O  O410  1  0.60711084  0.49611826  0.49129350  1
  O  O411  1  0.37500066  0.35704312  0.12396711  1
  O  O412  1  0.36832565  0.36328189  0.61056590  1
  O  O413  1  0.36932599  0.86678942  0.11857248  1
  O  O414  1  0.36466047  0.88526069  0.61808949  1
  O  O415  1  0.86592392  0.36999453  0.11905777  1
  O  O416  1  0.88480720  0.37611115  0.61381763  1
  O  O417  1  0.86841109  0.86468163  0.13226342  1
  O  O418  1  0.86869962  0.86174551  0.61823192  1
  O  O419  1  0.13191705  0.12880523  0.37926605  1
  O  O420  1  0.13612091  0.11915618  0.88301094  1
  O  O421  1  0.11926784  0.64147536  0.36904774  1
  O  O422  1  0.13820860  0.61480593  0.88608403  1
  O  O423  1  0.63359488  0.12442889  0.38325898  1
  O  O424  1  0.61400930  0.13453015  0.89254428  1
  O  O425  1  0.63588825  0.63549223  0.37189475  1
  O  O426  1  0.63199119  0.63314180  0.88285216  1
