# generated using pymatgen
data_V85Zn86O256
_symmetry_space_group_name_H-M   'P 1'
_cell_length_a   17.01165892
_cell_length_b   17.02001123
_cell_length_c   17.03774448
_cell_angle_alpha   90.22577083
_cell_angle_beta   90.00581124
_cell_angle_gamma   89.74493447
_symmetry_Int_Tables_number   1
_chemical_formula_structural   V85Zn86O256
_chemical_formula_sum   'V85 Zn86 O256'
_cell_volume   4932.99792927
_cell_formula_units_Z   1
loop_
 _symmetry_equiv_pos_site_id
 _symmetry_equiv_pos_as_xyz
  1  'x, y, z'
loop_
 _atom_site_type_symbol
 _atom_site_label
 _atom_site_symmetry_multiplicity
 _atom_site_fract_x
 _atom_site_fract_y
 _atom_site_fract_z
 _atom_site_occupancy
  V  V0  1  0.50638917  0.24927161  0.25414558  1
  V  V1  1  0.87631060  0.75343159  0.12493293  1
  V  V2  1  0.37825375  0.24407644  0.63000010  1
  V  V3  1  0.25076720  0.87435237  0.12604055  1
  V  V4  1  0.12422993  0.62518754  0.00123983  1
  V  V5  1  0.62570909  0.12386085  -0.00035932  1
  V  V6  1  0.50038717  0.37225573  0.37201056  1
  V  V7  1  0.63048972  0.37013426  0.74342289  1
  V  V8  1  0.11905543  0.11860431  0.49834051  1
  V  V9  1  0.37579512  0.62049335  0.74945409  1
  V  V10  1  0.49851891  0.87026317  0.37730844  1
  V  V11  1  -0.00209661  0.25704420  0.25248649  1
  V  V12  1  0.51449006  0.74852193  0.76209097  1
  V  V13  1  0.12370665  0.50163687  0.62422124  1
  V  V14  1  0.12312914  0.12415717  -0.00021254  1
  V  V15  1  0.37998331  0.87275014  -0.00421192  1
  V  V16  1  0.74648079  0.25390090  -0.00213292  1
  V  V17  1  0.49862831  0.12755276  0.12348714  1
  V  V18  1  0.75300396  0.62717811  0.37364242  1
  V  V19  1  0.74739968  0.75428744  0.50185894  1
  V  V20  1  0.24720950  0.49937839  0.75024953  1
  V  V21  1  0.37477726  0.62545100  0.24948803  1
  V  V22  1  0.37428097  0.37411864  -0.00048021  1
  V  V23  1  0.00111165  0.63206296  0.12979290  1
  V  V24  1  -0.00055237  0.12521219  0.11966870  1
  V  V25  1  -0.00023651  0.88875818  0.88072760  1
  V  V26  1  0.25096561  0.74838202  -0.00002343  1
  V  V27  1  0.37387216  0.87846748  0.50296571  1
  V  V28  1  0.87335344  0.75005123  0.62514734  1
  V  V29  1  0.24765940  0.74992205  0.50004018  1
  V  V30  1  0.62319980  0.61336563  0.49741523  1
  V  V31  1  0.87823923  0.11763016  0.75250680  1
  V  V32  1  -0.00042282  0.75188002  0.75311774  1
  V  V33  1  -0.00582800  0.50322920  -0.00201474  1
  V  V34  1  0.24910367  0.62323928  0.87548813  1
  V  V35  1  -0.00604956  0.38053541  0.87544980  1
  V  V36  1  0.50072211  0.36672454  0.86798359  1
  V  V37  1  0.88581921  0.88853365  0.49449803  1
  V  V38  1  0.37565727  0.12654198  0.25070431  1
  V  V39  1  0.24883504  0.87504743  0.62785076  1
  V  V40  1  0.50974552  0.62191693  0.12430684  1
  V  V41  1  0.24860135  0.25010816  0.00019096  1
  V  V42  1  0.50373242  0.50003124  0.00338626  1
  V  V43  1  0.86597622  0.11849893  0.25353793  1
  V  V44  1  0.37516780  0.37785232  0.49956254  1
  V  V45  1  0.88029163  0.88894788  -0.00090882  1
  V  V46  1  0.37258098  0.24995682  0.12597930  1
  V  V47  1  0.25311684  0.00026507  0.24938615  1
  V  V48  1  0.88415632  0.49075032  0.37799227  1
  V  V49  1  0.37639425  0.74973362  0.12772087  1
  V  V50  1  0.73641729  0.25973410  0.49604943  1
  V  V51  1  0.12310143  0.00066083  0.12122327  1
  V  V52  1  0.61206262  0.11322481  0.50674400  1
  V  V53  1  0.12291154  0.37707244  0.74990669  1
  V  V54  1  0.24859454  0.25084093  0.50025072  1
  V  V55  1  0.12216960  0.62639970  0.49952457  1
  V  V56  1  0.37501263  0.74557798  0.62710749  1
  V  V57  1  0.24822259  0.37593913  0.12471565  1
  V  V58  1  0.86914523  0.38006158  -0.00086675  1
  V  V59  1  0.87455121  0.26291964  0.61441726  1
  V  V60  1  0.75774765  0.11736513  0.87733491  1
  V  V61  1  0.86689318  0.62422461  0.76551121  1
  V  V62  1  0.37941202  0.50122722  0.37826156  1
  V  V63  1  0.25443308  0.12210567  0.87224087  1
  V  V64  1  0.12424965  0.25029161  0.87495829  1
  V  V65  1  0.37754245  0.00090052  0.38118583  1
  V  V66  1  0.11111768  0.75466641  0.37149326  1
  V  V67  1  0.11451075  0.87366493  0.25354911  1
  V  V68  1  0.25134369  0.12456345  0.37412563  1
  V  V69  1  0.12413253  0.75108519  0.87586180  1
  V  V70  1  0.12266284  0.25273437  0.37414211  1
  V  V71  1  0.24912073  0.62750876  0.37464312  1
  V  V72  1  0.73692615  -0.00171280  0.74451938  1
  V  V73  1  0.37402128  0.49728831  0.87483334  1
  V  V74  1  0.12051566  0.00014569  0.62247131  1
  V  V75  1  0.63789539  0.49267245  0.62031710  1
  V  V76  1  0.00011391  0.48876712  0.49810362  1
  V  V77  1  0.24878491  0.50012231  0.24931393  1
  V  V78  1  0.74824959  0.88268090  0.13183862  1
  V  V79  1  0.87089590  0.25765839  0.12367704  1
  V  V80  1  -0.00300081  0.24932112  0.74838682  1
  V  V81  1  0.12029796  0.37693229  0.25330744  1
  V  V82  1  0.50009059  0.61243753  0.61985792  1
  V  V83  1  0.50045028  -0.00687768  -0.00151945  1
  V  V84  1  0.87954836  0.63500771  0.25360238  1
  Zn  Zn85  1  0.64242224  0.62572132  -0.02282771  1
  Zn  Zn86  1  0.38515984  0.11860031  0.74754335  1
  Zn  Zn87  1  0.25510078  0.00008288  0.74930649  1
  Zn  Zn88  1  0.61922717  0.24075979  0.85722447  1
  Zn  Zn89  1  0.50748625  0.74802943  0.24870307  1
  Zn  Zn90  1  0.74923966  0.11534839  0.38541036  1
  Zn  Zn91  1  0.64990551  0.48241965  0.11872397  1
  Zn  Zn92  1  0.12503390  0.87957681  0.75342644  1
  Zn  Zn93  1  0.63077766  0.00468298  0.13280296  1
  Zn  Zn94  1  0.74562898  0.74965896  -0.00220966  1
  Zn  Zn95  1  0.63152593  0.37309269  0.24229788  1
  Zn  Zn96  1  0.75042213  0.88566323  0.62568127  1
  Zn  Zn97  1  0.12290876  0.50111769  0.12600737  1
  Zn  Zn98  1  0.63939969  0.87884899  0.26283320  1
  Zn  Zn99  1  0.62106567  0.74525720  0.37483094  1
  Zn  Zn100  1  -0.00240250  0.62422361  0.62575501  1
  Zn  Zn101  1  0.24919761  0.37563993  0.62679479  1
  Zn  Zn102  1  -0.00565583  0.11962018  0.61767122  1
  Zn  Zn103  1  0.37963646  -0.00732640  0.87018769  1
  Zn  Zn104  1  0.54427149  0.18042695  0.68072611  1
  Zn  Zn105  1  0.75410292  0.49018265  0.24389428  1
  Zn  Zn106  1  0.75402035  0.49973407  0.75488812  1
  Zn  Zn107  1  0.18707575  0.18853315  0.18774398  1
  Zn  Zn108  1  0.18883439  0.18634163  0.68653826  1
  Zn  Zn109  1  0.18709532  0.68978258  0.18953981  1
  Zn  Zn110  1  0.18616201  0.68675212  0.68815012  1
  Zn  Zn111  1  0.68708352  0.19266623  0.18316871  1
  Zn  Zn112  1  0.70538577  0.18664165  0.67885158  1
  Zn  Zn113  1  0.69011369  0.69568762  0.19045266  1
  Zn  Zn114  1  0.68833866  0.68410242  0.68317682  1
  Zn  Zn115  1  0.31128786  0.31357586  0.31236087  1
  Zn  Zn116  1  0.31031918  0.31228195  0.81306735  1
  Zn  Zn117  1  0.30693675  0.81486411  0.31369848  1
  Zn  Zn118  1  0.31639116  0.80651873  0.81127573  1
  Zn  Zn119  1  0.81212044  0.30480566  0.31842069  1
  Zn  Zn120  1  0.81038284  0.30864158  0.81305299  1
  Zn  Zn121  1  0.81836016  0.81596947  0.31507695  1
  Zn  Zn122  1  0.81799559  0.82181820  0.81111368  1
  Zn  Zn123  1  0.18806103  0.43977750  0.43585835  1
  Zn  Zn124  1  0.18295885  0.43824671  0.93802353  1
  Zn  Zn125  1  0.06176853  0.94109496  0.43110233  1
  Zn  Zn126  1  0.18991326  0.93659477  0.93803381  1
  Zn  Zn127  1  0.70566492  0.42192397  0.40540324  1
  Zn  Zn128  1  0.68005565  0.43539002  0.93197292  1
  Zn  Zn129  1  0.69321916  0.94498713  0.44457688  1
  Zn  Zn130  1  0.69664968  0.93928958  0.94383788  1
  Zn  Zn131  1  0.31311182  0.06039707  0.06059259  1
  Zn  Zn132  1  0.30755783  0.06236156  0.56199825  1
  Zn  Zn133  1  0.31469556  0.56131731  0.06360090  1
  Zn  Zn134  1  0.30878265  0.56194875  0.56243927  1
  Zn  Zn135  1  0.81391195  0.06565854  0.06833369  1
  Zn  Zn136  1  0.80747829  0.07214107  0.56684344  1
  Zn  Zn137  1  0.80776599  0.56905609  0.06287482  1
  Zn  Zn138  1  0.81398098  0.56261955  0.55997856  1
  Zn  Zn139  1  0.43818912  0.43679081  0.18859764  1
  Zn  Zn140  1  0.43919170  0.43221815  0.68520675  1
  Zn  Zn141  1  0.47327159  0.96140770  0.21243825  1
  Zn  Zn142  1  0.44076472  0.92562561  0.69746197  1
  Zn  Zn143  1  0.93270804  0.44532696  0.18568399  1
  Zn  Zn144  1  0.93659656  0.44376576  0.68727095  1
  Zn  Zn145  1  0.93781280  0.94127229  0.18809362  1
  Zn  Zn146  1  0.93712172  0.93474088  0.68536307  1
  Zn  Zn147  1  0.06181297  0.06751496  0.30497793  1
  Zn  Zn148  1  0.06893126  0.06353498  0.80749926  1
  Zn  Zn149  1  0.06269335  0.56527218  0.31400329  1
  Zn  Zn150  1  0.05831477  0.56566563  0.81234162  1
  Zn  Zn151  1  0.60932535  0.04515385  0.32790330  1
  Zn  Zn152  1  0.56073514  0.05769143  0.81714403  1
  Zn  Zn153  1  0.56650275  0.55801981  0.30495106  1
  Zn  Zn154  1  0.55969589  0.55201305  0.80424607  1
  Zn  Zn155  1  0.44355375  0.18638402  0.43994321  1
  Zn  Zn156  1  0.43761510  0.18552622  0.93690382  1
  Zn  Zn157  1  0.43581780  0.68710579  0.44037494  1
  Zn  Zn158  1  0.43956805  0.68395611  0.93892514  1
  Zn  Zn159  1  0.93683497  0.18380489  0.43176288  1
  Zn  Zn160  1  0.93685570  0.19044921  0.93666646  1
  Zn  Zn161  1  0.93691870  0.68737080  0.44366764  1
  Zn  Zn162  1  0.93537850  0.69480606  0.94218718  1
  Zn  Zn163  1  0.06058746  0.31378980  0.06388693  1
  Zn  Zn164  1  0.06276008  0.31140031  0.56486180  1
  Zn  Zn165  1  0.06296362  0.81476666  0.06262162  1
  Zn  Zn166  1  0.06204894  0.81116627  0.56540183  1
  Zn  Zn167  1  0.56080943  0.31285838  0.06321741  1
  Zn  Zn168  1  0.56013750  0.31649309  0.55631354  1
  Zn  Zn169  1  0.56553653  0.80476947  0.05609885  1
  Zn  Zn170  1  0.55315780  0.79872208  0.56032192  1
  O  O171  1  0.11910927  0.12068561  0.12111448  1
  O  O172  1  0.12698887  0.11722905  0.61593796  1
  O  O173  1  0.11688976  0.62648785  0.12039481  1
  O  O174  1  0.12339182  0.61935371  0.61815580  1
  O  O175  1  0.62052081  0.12485476  0.11426814  1
  O  O176  1  0.62540127  0.13859213  0.61482700  1
  O  O177  1  0.61062540  0.62663997  0.13287523  1
  O  O178  1  0.61924447  0.61293558  0.61639735  1
  O  O179  1  0.37583492  0.38356216  0.38001392  1
  O  O180  1  0.38045241  0.37799226  0.87915576  1
  O  O181  1  0.37351179  0.88015290  0.38590440  1
  O  O182  1  0.36811213  0.87059352  0.89232492  1
  O  O183  1  0.87919399  0.39367844  0.37104131  1
  O  O184  1  0.88601055  0.36869338  0.88418395  1
  O  O185  1  0.86953125  0.87272491  0.39683149  1
  O  O186  1  0.88360680  0.87234141  0.89229610  1
  O  O187  1  0.26495657  0.00914070  0.36496150  1
  O  O188  1  0.25147785  0.01019473  0.87449477  1
  O  O189  1  0.25736528  0.50727087  0.36854626  1
  O  O190  1  0.25278454  0.50386104  0.87069546  1
  O  O191  1  0.71958242  0.00738012  0.35728748  1
  O  O192  1  0.75165426  0.01203752  0.86778368  1
  O  O193  1  0.77017424  0.51806099  0.38235025  1
  O  O194  1  0.71422476  0.52510982  0.86668176  1
  O  O195  1  0.24794732  0.49443323  0.13106701  1
  O  O196  1  0.24186359  0.49857760  0.63261151  1
  O  O197  1  0.24407328  0.99613035  0.13047574  1
  O  O198  1  0.24230909  0.98983839  0.62516059  1
  O  O199  1  0.76283745  0.49587785  0.13076334  1
  O  O200  1  0.74085036  0.50448019  0.62686390  1
  O  O201  1  0.74949801  0.98763915  0.12277143  1
  O  O202  1  0.74649498  1.00572871  0.64130907  1
  O  O203  1  0.00881211  0.36825813  0.23911663  1
  O  O204  1  0.00186179  0.37017216  0.75878350  1
  O  O205  1  0.01597611  0.87855268  0.24062976  1
  O  O206  1  -0.00284710  0.86491657  0.76065259  1
  O  O207  1  0.49528489  0.36469003  0.25700405  1
  O  O208  1  0.51023698  0.38036737  0.75991856  1
  O  O209  1  0.48394763  0.86420955  0.27201005  1
  O  O210  1  0.49089486  0.84658593  0.76015881  1
  O  O211  1  0.49098515  0.13496155  0.24097847  1
  O  O212  1  0.49594259  0.13205399  0.76628977  1
  O  O213  1  0.49132303  0.62617483  0.24215597  1
  O  O214  1  0.49404272  0.62346557  0.73852033  1
  O  O215  1  0.99213215  0.13947024  0.23615691  1
  O  O216  1  0.99507506  0.13720154  0.75409355  1
  O  O217  1  0.99270151  0.62051369  0.23912226  1
  O  O218  1  0.98890411  0.63711568  0.75012825  1
  O  O219  1  0.36839397  0.25506703  0.00610108  1
  O  O220  1  0.36308351  0.25577213  0.50602048  1
  O  O221  1  0.37156643  0.75209388  0.00723519  1
  O  O222  1  0.36657021  0.75361497  0.50812886  1
  O  O223  1  0.86780024  0.25946815  0.00500654  1
  O  O224  1  0.88735338  0.24839609  0.51464038  1
  O  O225  1  0.87435586  0.76143056  0.01321729  1
  O  O226  1  0.86665691  0.75655861  0.50845128  1
  O  O227  1  0.13323344  0.24701645  0.49518753  1
  O  O228  1  0.12908161  0.24600165  0.99481885  1
  O  O229  1  0.12882141  0.74679242  0.49275131  1
  O  O230  1  0.13109628  0.74461136  0.99588492  1
  O  O231  1  0.63450821  0.25003915  0.50088710  1
  O  O232  1  0.63381692  0.23897905  1.00089915  1
  O  O233  1  0.63398080  0.73960662  0.50042642  1
  O  O234  1  0.62970945  0.73656600  0.99982613  1
  O  O235  1  0.49052907  0.24569930  0.13147473  1
  O  O236  1  0.48074590  0.25623141  0.61928097  1
  O  O237  1  0.48947744  0.74055452  0.12573109  1
  O  O238  1  0.49231651  0.73352727  0.63396906  1
  O  O239  1  0.99203306  0.24538167  0.13081047  1
  O  O240  1  0.99570826  0.24875949  0.63723471  1
  O  O241  1  0.99309631  0.73968288  0.11902558  1
  O  O242  1  0.99261451  0.75079054  0.63719661  1
  O  O243  1  0.00491273  0.24658889  0.35833004  1
  O  O244  1  0.00395286  0.25936955  0.86732370  1
  O  O245  1  0.01286977  0.74285058  0.37704742  1
  O  O246  1  0.00515871  0.75847473  0.86950862  1
  O  O247  1  0.48631261  0.25977452  0.36261625  1
  O  O248  1  0.50140395  0.26303768  0.88274382  1
  O  O249  1  0.49771013  0.75792507  0.37560967  1
  O  O250  1  0.50787968  0.72275500  0.86007518  1
  O  O251  1  0.24077550  0.13410036  0.49417185  1
  O  O252  1  0.24360213  0.13093845  0.99348620  1
  O  O253  1  0.24253868  0.63077306  0.49476375  1
  O  O254  1  0.24495603  0.62811105  0.99511095  1
  O  O255  1  0.73971826  0.13553073  0.50383230  1
  O  O256  1  0.74663619  0.13015488  0.99534101  1
  O  O257  1  0.74431556  0.63516724  0.49393281  1
  O  O258  1  0.75710586  0.63571578  0.99352044  1
  O  O259  1  0.25325715  0.37019296  0.00361790  1
  O  O260  1  0.25620975  0.36592975  0.49772570  1
  O  O261  1  0.25688898  0.86762667  0.00718983  1
  O  O262  1  0.26052796  0.86551313  0.51624468  1
  O  O263  1  0.75929104  0.36714530  -0.01529409  1
  O  O264  1  0.74629871  0.36002444  0.49208250  1
  O  O265  1  0.76742834  0.87281366  0.01187856  1
  O  O266  1  0.75059472  0.86677022  0.50767157  1
  O  O267  1  0.12891391  0.49255241  0.24971225  1
  O  O268  1  0.12654958  0.49760353  0.74552145  1
  O  O269  1  0.13347148  0.99583673  0.23866162  1
  O  O270  1  0.13444810  0.99784223  0.73896224  1
  O  O271  1  0.63244836  0.49487434  0.24094183  1
  O  O272  1  0.62728140  0.48815765  0.73354017  1
  O  O273  1  0.59055401  0.98119698  0.23839243  1
  O  O274  1  0.63879622  0.99961959  0.75845264  1
  O  O275  1  0.37422744  0.00871477  0.25736015  1
  O  O276  1  0.37431505  -0.00003499  0.75275364  1
  O  O277  1  0.36730769  0.50514244  0.25748368  1
  O  O278  1  0.36847387  0.50131141  0.75492536  1
  O  O279  1  0.87507143  0.02108771  0.23604420  1
  O  O280  1  0.87536972  0.01528203  0.74410889  1
  O  O281  1  0.87753473  0.51272081  0.26453816  1
  O  O282  1  0.87446730  0.51895684  0.74827094  1
  O  O283  1  0.13091798  0.36977406  0.36040028  1
  O  O284  1  0.11386570  0.36989228  0.87100403  1
  O  O285  1  0.12406299  0.86646211  0.36599134  1
  O  O286  1  0.11866585  0.86826919  0.87595508  1
  O  O287  1  0.59823283  0.38590568  0.38268499  1
  O  O288  1  0.61558929  0.36745768  0.86347295  1
  O  O289  1  0.60345721  0.87567596  0.38435819  1
  O  O290  1  0.66729506  0.84672484  0.87446572  1
  O  O291  1  0.37777024  0.13107574  0.12844609  1
  O  O292  1  0.36720541  0.14050149  0.62394772  1
  O  O293  1  0.38046625  0.63328138  0.12870801  1
  O  O294  1  0.38108473  0.62444237  0.62762908  1
  O  O295  1  0.88234214  0.13883604  0.12794201  1
  O  O296  1  0.87942149  0.13810340  0.63611815  1
  O  O297  1  0.88310950  0.63553123  0.13432682  1
  O  O298  1  0.87596718  0.64017293  0.62836097  1
  O  O299  1  0.25298214  0.25558172  0.11931228  1
  O  O300  1  0.25428058  0.25371445  0.61382478  1
  O  O301  1  0.25706437  0.75212135  0.11848734  1
  O  O302  1  0.25369847  0.75423299  0.62120715  1
  O  O303  1  0.76118352  0.24702795  0.10978341  1
  O  O304  1  0.76788869  0.25275261  0.60979128  1
  O  O305  1  0.76440271  0.76165796  0.12668300  1
  O  O306  1  0.75569344  0.75482451  0.61713767  1
  O  O307  1  0.24566033  0.24539732  0.38264814  1
  O  O308  1  0.24386225  0.24369831  0.88106074  1
  O  O309  1  0.24462878  0.74439230  0.38260037  1
  O  O310  1  0.24469757  0.74243086  0.88037097  1
  O  O311  1  0.76577025  0.23737878  0.39701648  1
  O  O312  1  0.74726925  0.23799053  0.88500827  1
  O  O313  1  0.75013078  0.74325225  0.38610009  1
  O  O314  1  0.72321567  0.79008521  0.87484664  1
  O  O315  1  0.00567735  0.13555374  0.01165971  1
  O  O316  1  0.01647958  0.13630395  0.50118806  1
  O  O317  1  0.00267256  0.61984191  0.00619020  1
  O  O318  1  0.00813259  0.61827240  0.50396435  1
  O  O319  1  0.50880938  0.12060067  0.00374350  1
  O  O320  1  0.51016169  0.12870321  0.50734666  1
  O  O321  1  0.49829125  0.61213113  0.00843649  1
  O  O322  1  0.51159182  0.63088822  0.50824721  1
  O  O323  1  0.47998159  0.36684806  0.48886932  1
  O  O324  1  0.49352538  0.38220443  0.99273435  1
  O  O325  1  0.48146338  0.86296767  0.49158326  1
  O  O326  1  0.49122818  0.88146363  1.01104678  1
  O  O327  1  1.00843218  0.38946637  0.50051642  1
  O  O328  1  0.99279642  0.38199862  0.99382014  1
  O  O329  1  0.99098989  0.87710682  0.50290250  1
  O  O330  1  0.99006164  0.87308229  0.99534374  1
  O  O331  1  0.48276323  0.49414892  0.36649908  1
  O  O332  1  0.49367022  0.49046758  0.88374437  1
  O  O333  1  0.48275817  0.98294498  0.37506374  1
  O  O334  1  0.49852740  0.99991910  0.89437664  1
  O  O335  1  0.99082783  0.50807854  0.38278257  1
  O  O336  1  1.00443599  0.49078967  0.88466102  1
  O  O337  1  1.00049723  1.01134044  0.37362567  1
  O  O338  1  1.00860630  0.98699205  0.86903996  1
  O  O339  1  0.01221257  0.01447181  0.13042042  1
  O  O340  1  0.01558976  0.00209446  0.63357022  1
  O  O341  1  -0.00045313  0.51283326  0.11536254  1
  O  O342  1  0.00573284  0.50369752  0.61647835  1
  O  O343  1  0.49949774  0.01128129  0.11121081  1
  O  O344  1  0.54496225  -0.04983932  0.63403618  1
  O  O345  1  0.49134093  0.50790923  0.11500902  1
  O  O346  1  0.50578504  0.50842443  0.62422571  1
  O  O347  1  0.24103948  0.37943121  0.24405290  1
  O  O348  1  0.23980446  0.38239057  0.75222997  1
  O  O349  1  0.24375924  0.88252288  0.24302239  1
  O  O350  1  0.25081119  0.87007932  0.73723611  1
  O  O351  1  0.73574973  0.38332567  0.29363337  1
  O  O352  1  0.73658393  0.38013794  0.76192782  1
  O  O353  1  0.75651944  0.87400700  0.23627728  1
  O  O354  1  0.76256228  0.89569891  0.74475221  1
  O  O355  1  0.25599073  0.12196267  0.25396762  1
  O  O356  1  0.25364682  0.12704335  0.76228814  1
  O  O357  1  0.25479605  0.61960807  0.25475527  1
  O  O358  1  0.25419875  0.61848575  0.75631195  1
  O  O359  1  0.76496174  0.13747404  0.24518714  1
  O  O360  1  0.75816611  0.11749114  0.75812253  1
  O  O361  1  0.76188064  0.62967062  0.26113296  1
  O  O362  1  0.76593436  0.63092164  0.74687128  1
  O  O363  1  0.37178351  0.11933885  0.37320861  1
  O  O364  1  0.36231674  0.12338034  0.87800694  1
  O  O365  1  0.36960038  0.61875206  0.37184431  1
  O  O366  1  0.36756071  0.61582444  0.87077177  1
  O  O367  1  0.87480567  0.12757316  0.35563606  1
  O  O368  1  0.86750611  0.13322435  0.86629499  1
  O  O369  1  0.87067128  0.62980381  0.36786543  1
  O  O370  1  0.87596187  0.63626555  0.86366843  1
  O  O371  1  0.13009786  0.37629712  0.13462675  1
  O  O372  1  0.12593922  0.38260424  0.63306858  1
  O  O373  1  0.13118374  0.88226922  0.12899707  1
  O  O374  1  0.13331967  0.88139192  0.62571919  1
  O  O375  1  0.62688012  0.37103716  0.12790217  1
  O  O376  1  0.61660363  0.38383192  0.62996518  1
  O  O377  1  0.64538614  0.87178123  0.11967315  1
  O  O378  1  0.59509076  0.89166890  0.62414286  1
  O  O379  1  0.11757407  0.25766843  0.25268931  1
  O  O380  1  0.11570838  0.25517018  0.75400736  1
  O  O381  1  0.13347240  0.76167067  0.26013868  1
  O  O382  1  0.11436702  0.75070942  0.75608101  1
  O  O383  1  0.60890856  0.24889005  0.24673609  1
  O  O384  1  0.62907008  0.25749735  0.74029350  1
  O  O385  1  0.62420847  0.76203280  0.25848810  1
  O  O386  1  0.61235186  0.74391699  0.73975638  1
  O  O387  1  0.37681867  0.24488020  0.24348720  1
  O  O388  1  0.36582631  0.25411044  0.73120863  1
  O  O389  1  0.36891382  0.74368093  0.23921625  1
  O  O390  1  0.37892121  0.73592095  0.74469227  1
  O  O391  1  0.88135715  0.25129123  0.24007846  1
  O  O392  1  0.88155326  0.24428020  0.74363645  1
  O  O393  1  0.87591111  0.74328187  0.24232796  1
  O  O394  1  0.88018195  0.74609313  0.74525622  1
  O  O395  1  0.36407067  0.49044489  0.48912841  1
  O  O396  1  0.38069643  0.49293536  0.99376892  1
  O  O397  1  0.36624337  0.98973921  0.49341133  1
  O  O398  1  0.38180965  0.98849079  1.00046710  1
  O  O399  1  0.88611304  0.50903330  0.48758342  1
  O  O400  1  0.88622204  0.49163088  1.00346676  1
  O  O401  1  0.86643707  0.98500208  0.51381232  1
  O  O402  1  0.87617011  0.98786207  1.00814727  1
  O  O403  1  0.13264515  0.00620518  0.01475539  1
  O  O404  1  0.12599436  0.00981551  0.50864731  1
  O  O405  1  0.11277820  0.50615456  0.00298785  1
  O  O406  1  0.12009061  0.50642780  0.50286803  1
  O  O407  1  0.62085958  0.00798305  0.00269006  1
  O  O408  1  0.62611093  0.01408101  0.50876166  1
  O  O409  1  0.61240040  0.50058246  0.00455590  1
  O  O410  1  0.63434684  0.51113161  0.50339467  1
  O  O411  1  0.36771154  0.36974306  0.11932347  1
  O  O412  1  0.36987621  0.36865766  0.61506482  1
  O  O413  1  0.36823756  0.86052829  0.11535700  1
  O  O414  1  0.36990542  0.86789997  0.62065692  1
  O  O415  1  0.88214046  0.36635563  0.11275421  1
  O  O416  1  0.88230038  0.36119877  0.63166941  1
  O  O417  1  0.87365328  0.87167039  0.11942429  1
  O  O418  1  0.87460092  0.86344276  0.61691693  1
  O  O419  1  0.13275219  0.13390740  0.37954776  1
  O  O420  1  0.13221662  0.13099003  0.88030490  1
  O  O421  1  0.13146973  0.63309710  0.37875469  1
  O  O422  1  0.12892108  0.63045934  0.88140220  1
  O  O423  1  0.62269006  0.13048886  0.39791678  1
  O  O424  1  0.63566442  0.12582887  0.88676173  1
  O  O425  1  0.63484306  0.62245865  0.38069687  1
  O  O426  1  0.65252019  0.58565532  0.86593191  1
