# generated using pymatgen
data_V85Zn86O256
_symmetry_space_group_name_H-M   'P 1'
_cell_length_a   16.96778757
_cell_length_b   16.98072185
_cell_length_c   16.96221768
_cell_angle_alpha   90.01473355
_cell_angle_beta   89.99019237
_cell_angle_gamma   90.10847196
_symmetry_Int_Tables_number   1
_chemical_formula_structural   V85Zn86O256
_chemical_formula_sum   'V85 Zn86 O256'
_cell_volume   4887.23474871
_cell_formula_units_Z   1
loop_
 _symmetry_equiv_pos_site_id
 _symmetry_equiv_pos_as_xyz
  1  'x, y, z'
loop_
 _atom_site_type_symbol
 _atom_site_label
 _atom_site_symmetry_multiplicity
 _atom_site_fract_x
 _atom_site_fract_y
 _atom_site_fract_z
 _atom_site_occupancy
  V  V0  1  0.74375233  0.24619964  0.50287490  1
  V  V1  1  0.12005249  0.61821952  0.49850581  1
  V  V2  1  0.74506216  0.12524197  0.37889548  1
  V  V3  1  0.63319791  0.37759412  0.25333212  1
  V  V4  1  0.24777413  0.50044974  0.24504551  1
  V  V5  1  0.24765142  0.49946828  0.74893423  1
  V  V6  1  0.74936065  0.63680146  0.88242154  1
  V  V7  1  0.87334697  0.74979697  0.62548059  1
  V  V8  1  0.75381192  0.36534132  0.11308328  1
  V  V9  1  0.50379973  0.37523374  0.87493555  1
  V  V10  1  0.00283627  0.25453746  0.74743048  1
  V  V11  1  0.88546178  -0.00324978  0.37444264  1
  V  V12  1  -0.00198107  0.38473772  0.37622788  1
  V  V13  1  0.25126474  0.74831894  0.00309342  1
  V  V14  1  0.11663990  -0.00042025  0.11955376  1
  V  V15  1  0.00156797  0.61819716  0.12514020  1
  V  V16  1  0.37545721  0.25012288  0.62595324  1
  V  V17  1  0.74737290  0.12598117  0.88494020  1
  V  V18  1  0.50488209  0.00544300  0.00173710  1
  V  V19  1  0.63162292  0.62455186  0.49423543  1
  V  V20  1  0.87766641  0.38144583  0.50145242  1
  V  V21  1  0.75290154  0.00201022  0.24831352  1
  V  V22  1  0.12192275  0.25307325  0.37095112  1
  V  V23  1  0.87221149  0.74758940  0.11908269  1
  V  V24  1  0.24722305  -0.01691051  0.76123336  1
  V  V25  1  0.37505878  0.25201422  0.12375163  1
  V  V26  1  0.12059696  0.49512927  0.62471501  1
  V  V27  1  0.37718793  0.62775620  0.74601549  1
  V  V28  1  0.11886973  0.87446556  0.25434059  1
  V  V29  1  0.74959682  0.38346431  0.63281368  1
  V  V30  1  0.85749074  0.50335044  0.37328060  1
  V  V31  1  0.50468051  0.62745969  0.12576950  1
  V  V32  1  0.75145475  0.87317924  0.62122980  1
  V  V33  1  0.12667369  0.75075942  0.87279759  1
  V  V34  1  0.86226794  0.49095260  0.87439292  1
  V  V35  1  0.50062421  0.75272087  0.75283034  1
  V  V36  1  0.87605175  0.13474020  0.24596564  1
  V  V37  1  0.50426281  0.49945504  0.50736828  1
  V  V38  1  0.50299071  0.12243409  0.61394681  1
  V  V39  1  0.37548568  0.37697476  0.00017280  1
  V  V40  1  0.12289635  0.61691037  0.00467737  1
  V  V41  1  0.00340460  0.87522870  0.87383446  1
  V  V42  1  0.50233121  0.87664317  0.87967069  1
  V  V43  1  0.63425302  0.50199731  0.12907730  1
  V  V44  1  0.13047209  0.24465548  0.87320817  1
  V  V45  1  0.37995055  0.62742712  0.25090301  1
  V  V46  1  0.37527749  0.37590590  0.50140737  1
  V  V47  1  0.74957798  -0.00013824  0.74863654  1
  V  V48  1  0.87974479  0.24521356  0.62288684  1
  V  V49  1  0.50766761  0.50504690  0.00150211  1
  V  V50  1  0.87937489  0.12333455  0.74476487  1
  V  V51  1  0.00407400  0.74993547  0.74911104  1
  V  V52  1  0.50293530  0.25201694  0.25198296  1
  V  V53  1  0.37234821  0.00705690  0.88159481  1
  V  V54  1  0.37655672  0.49825869  0.37537176  1
  V  V55  1  0.50533975  0.24744321  0.74999723  1
  V  V56  1  0.85936673  0.62310868  0.25410485  1
  V  V57  1  0.62997345  0.00900309  0.11819663  1
  V  V58  1  0.61808868  0.87401617  0.24886198  1
  V  V59  1  0.37627281  0.12055530  0.25021721  1
  V  V60  1  0.37619929  0.75084416  0.13029586  1
  V  V61  1  0.88733688  0.87399755  0.49527026  1
  V  V62  1  0.25267511  0.75189500  0.50249187  1
  V  V63  1  0.24553809  0.00107303  0.25152640  1
  V  V64  1  0.37712953  0.50101165  0.87481399  1
  V  V65  1  0.63120655  0.38557780  0.74862294  1
  V  V66  1  0.24543623  0.13038509  0.37143386  1
  V  V67  1  0.00823015  0.37987468  0.87772029  1
  V  V68  1  0.36770970  0.12605646  0.75697109  1
  V  V69  1  0.50946817  0.62180789  0.62865180  1
  V  V70  1  0.87939598  -0.00060716  0.87628928  1
  V  V71  1  0.62225714  0.00328126  0.61070694  1
  V  V72  1  0.12156671  0.38156363  0.24223142  1
  V  V73  1  0.62729776  0.74959376  0.89610222  1
  V  V74  1  0.62867508  0.24364362  0.88711036  1
  V  V75  1  0.11732776  0.74978708  0.37674109  1
  V  V76  1  0.75385064  0.87489796  0.11821913  1
  V  V77  1  0.24709584  0.37619918  0.12073982  1
  V  V78  1  -0.00405948  0.75180942  0.25308154  1
  V  V79  1  0.62587129  0.87364540  0.75109626  1
  V  V80  1  -0.00154262  0.61944107  0.62395934  1
  V  V81  1  0.88036994  0.87380253  -0.00201041  1
  V  V82  1  0.50644157  0.12629501  0.12260158  1
  V  V83  1  -0.00106656  0.12444461  0.11449719  1
  V  V84  1  0.24737934  0.37531317  0.62601635  1
  Zn  Zn85  1  0.49029421  0.87196172  0.40069936  1
  Zn  Zn86  1  0.12468143  -0.00395611  0.62482948  1
  Zn  Zn87  1  -0.00202243  0.49133820  0.00685014  1
  Zn  Zn88  1  0.24755322  0.62025130  0.37564893  1
  Zn  Zn89  1  0.13183188  0.11544249  -0.00764360  1
  Zn  Zn90  1  0.75528444  0.73986440  0.48433394  1
  Zn  Zn91  1  0.25272914  0.86858167  0.63342728  1
  Zn  Zn92  1  0.25552378  0.24111466  -0.01193730  1
  Zn  Zn93  1  0.86169594  0.61714715  0.74579521  1
  Zn  Zn94  1  0.50264233  0.37251034  0.37787433  1
  Zn  Zn95  1  0.37948962  -0.00827872  0.40692186  1
  Zn  Zn96  1  0.62088615  0.24434908  0.38158198  1
  Zn  Zn97  1  0.62276770  0.74427438  0.36182520  1
  Zn  Zn98  1  0.11461170  0.12782719  0.50846910  1
  Zn  Zn99  1  0.24773406  0.25372520  0.49788037  1
  Zn  Zn100  1  0.24983051  0.62392191  0.87544621  1
  Zn  Zn101  1  0.87860404  0.26091130  0.08702232  1
  Zn  Zn102  1  0.40909657  0.78683500  0.57742151  1
  Zn  Zn103  1  0.37644169  0.87903597  0.00973791  1
  Zn  Zn104  1  -0.00503851  0.02132735  0.52318235  1
  Zn  Zn105  1  0.24692258  0.87405026  0.12819902  1
  Zn  Zn106  1  -0.00478251  0.25748118  0.24049558  1
  Zn  Zn107  1  0.18507652  0.18995951  0.18272688  1
  Zn  Zn108  1  0.18447940  0.18550670  0.68899546  1
  Zn  Zn109  1  0.18685130  0.68467310  0.18861393  1
  Zn  Zn110  1  0.18651232  0.68372190  0.68624816  1
  Zn  Zn111  1  0.69060779  0.19217723  0.18825679  1
  Zn  Zn112  1  0.68972259  0.18672442  0.69019205  1
  Zn  Zn113  1  0.68649795  0.69136055  0.18035437  1
  Zn  Zn114  1  0.68677184  0.68300371  0.69415536  1
  Zn  Zn115  1  0.31331410  0.31415905  0.30781386  1
  Zn  Zn116  1  0.31523148  0.31600479  0.80917028  1
  Zn  Zn117  1  0.30123397  0.80923654  0.32249608  1
  Zn  Zn118  1  0.32194442  0.81467316  0.81908434  1
  Zn  Zn119  1  0.80835620  0.31476986  0.31553021  1
  Zn  Zn120  1  0.81351617  0.30830934  0.82022511  1
  Zn  Zn121  1  0.80820077  0.81154232  0.31213727  1
  Zn  Zn122  1  0.81283919  0.80931543  0.80966748  1
  Zn  Zn123  1  0.18682995  0.43779164  0.43684904  1
  Zn  Zn124  1  0.18634298  0.43483397  0.93357051  1
  Zn  Zn125  1  0.18072330  0.93915087  0.44278623  1
  Zn  Zn126  1  0.19003486  0.93222798  0.94062628  1
  Zn  Zn127  1  0.68514672  0.43192616  0.44390514  1
  Zn  Zn128  1  0.68573836  0.43550406  0.93625421  1
  Zn  Zn129  1  0.69566910  0.93201160  0.43243798  1
  Zn  Zn130  1  0.69059184  0.93865939  0.93683154  1
  Zn  Zn131  1  0.31071357  0.06380646  0.06653802  1
  Zn  Zn132  1  0.28507643  0.07278427  0.57493524  1
  Zn  Zn133  1  0.31474434  0.56325383  0.06251680  1
  Zn  Zn134  1  0.31258661  0.56777736  0.56260154  1
  Zn  Zn135  1  0.82071017  0.06306459  0.05909743  1
  Zn  Zn136  1  0.81272868  0.05934098  0.55975460  1
  Zn  Zn137  1  0.81517995  0.55973400  0.05605771  1
  Zn  Zn138  1  0.81403235  0.55896352  0.56319207  1
  Zn  Zn139  1  0.43968927  0.43864674  0.18662822  1
  Zn  Zn140  1  0.43840934  0.43644564  0.68993463  1
  Zn  Zn141  1  0.41467484  0.91114382  0.24143618  1
  Zn  Zn142  1  0.42230130  0.94719348  0.58257506  1
  Zn  Zn143  1  0.92832359  0.44040176  0.19118983  1
  Zn  Zn144  1  0.93324660  0.43542969  0.69392848  1
  Zn  Zn145  1  0.93805921  0.93883864  0.18829297  1
  Zn  Zn146  1  0.94336169  0.93592610  0.68796212  1
  Zn  Zn147  1  0.06014450  0.06794302  0.30555476  1
  Zn  Zn148  1  0.06056353  0.06439740  0.80745335  1
  Zn  Zn149  1  0.05533798  0.56318922  0.31047152  1
  Zn  Zn150  1  0.06254215  0.56526034  0.81059347  1
  Zn  Zn151  1  0.55989879  0.05230180  0.31980457  1
  Zn  Zn152  1  0.56302671  0.06232107  0.80693029  1
  Zn  Zn153  1  0.56335733  0.55913084  0.31312532  1
  Zn  Zn154  1  0.56885941  0.56731286  0.81744834  1
  Zn  Zn155  1  0.43057732  0.18631734  0.43646173  1
  Zn  Zn156  1  0.44135767  0.19079054  0.93894806  1
  Zn  Zn157  1  0.44713132  0.68746907  0.42849082  1
  Zn  Zn158  1  0.43773880  0.68675531  0.93919755  1
  Zn  Zn159  1  0.93592662  0.19137573  0.43142333  1
  Zn  Zn160  1  0.94183604  0.18722191  0.93284885  1
  Zn  Zn161  1  0.93507999  0.68336608  0.43832950  1
  Zn  Zn162  1  0.93582839  0.68234725  0.93698466  1
  Zn  Zn163  1  0.06221468  0.30774566  0.05785399  1
  Zn  Zn164  1  0.06123957  0.31109637  0.55818768  1
  Zn  Zn165  1  0.06158176  0.80913848  0.06289395  1
  Zn  Zn166  1  0.07071515  0.81607655  0.56849489  1
  Zn  Zn167  1  0.56468087  0.31752297  0.06501506  1
  Zn  Zn168  1  0.56396903  0.31463876  0.56780280  1
  Zn  Zn169  1  0.55809950  0.81946974  0.07337415  1
  Zn  Zn170  1  0.57143708  0.80989449  0.56254707  1
  O  O171  1  0.11305598  0.11620686  0.13130565  1
  O  O172  1  0.17135389  0.10950958  0.60876699  1
  O  O173  1  0.11309864  0.63130149  0.11783195  1
  O  O174  1  0.11670856  0.61609846  0.61775034  1
  O  O175  1  0.61923297  0.11906015  0.13142293  1
  O  O176  1  0.61717958  0.11498501  0.63291327  1
  O  O177  1  0.61397342  0.61667327  0.13453179  1
  O  O178  1  0.61421501  0.62319471  0.62150553  1
  O  O179  1  0.37650087  0.38357565  0.37930929  1
  O  O180  1  0.38372274  0.38136904  0.87888682  1
  O  O181  1  0.37839285  0.88425844  0.34829661  1
  O  O182  1  0.38625001  0.88731799  0.88406624  1
  O  O183  1  0.87858487  0.38230645  0.38021791  1
  O  O184  1  0.88177631  0.38687239  0.87175473  1
  O  O185  1  0.86658588  0.88474826  0.38418837  1
  O  O186  1  0.88083755  0.87788194  0.87956453  1
  O  O187  1  0.24196278  0.01132413  0.36006532  1
  O  O188  1  0.26356367  -0.00432967  0.87907477  1
  O  O189  1  0.25978549  0.49875811  0.36557371  1
  O  O190  1  0.25552416  0.49990687  0.86433596  1
  O  O191  1  0.75910060  0.00693114  0.36535744  1
  O  O192  1  0.75924846  0.00285345  0.86717407  1
  O  O193  1  0.75858537  0.49385206  0.37888567  1
  O  O194  1  0.75919970  0.50396910  0.87820975  1
  O  O195  1  0.25775719  0.48928844  0.13436986  1
  O  O196  1  0.24357019  0.49510310  0.62983442  1
  O  O197  1  0.23757775  0.99887514  0.13794530  1
  O  O198  1  0.26001000  0.99235230  0.65897483  1
  O  O199  1  0.73841680  0.49570409  0.11939072  1
  O  O200  1  0.76006391  0.48247784  0.62835550  1
  O  O201  1  0.74886962  0.99772776  0.12879751  1
  O  O202  1  0.74573228  0.99202474  0.62953402  1
  O  O203  1  0.00662620  0.37904404  0.25408352  1
  O  O204  1  -0.00661517  0.36213719  0.76147165  1
  O  O205  1  0.00493869  0.86147676  0.24507811  1
  O  O206  1  -0.00482116  0.85955940  0.76161248  1
  O  O207  1  0.50687237  0.36473303  0.24830010  1
  O  O208  1  0.50735789  0.36649572  0.75403130  1
  O  O209  1  0.52158787  0.88325489  0.22774584  1
  O  O210  1  0.50780707  0.86169093  0.76182182  1
  O  O211  1  0.49499909  0.13116140  0.24284119  1
  O  O212  1  0.49270550  0.13408943  0.74451383  1
  O  O213  1  0.48864480  0.61677382  0.24093184  1
  O  O214  1  0.49738742  0.62982674  0.74719669  1
  O  O215  1  0.98885570  0.13122205  0.23917308  1
  O  O216  1  0.98597158  0.13716695  0.75706400  1
  O  O217  1  0.99303491  0.63442136  0.24181990  1
  O  O218  1  0.99879289  0.63476131  0.73946584  1
  O  O219  1  0.37540449  0.25937713  0.00480397  1
  O  O220  1  0.37076055  0.25831516  0.50692477  1
  O  O221  1  0.36711174  0.74857361  0.01067195  1
  O  O222  1  0.35588049  0.72947477  0.49228365  1
  O  O223  1  0.86583103  0.25016074  -0.02149989  1
  O  O224  1  0.86601733  0.25981640  0.50600076  1
  O  O225  1  0.88030973  0.75777601  0.01096141  1
  O  O226  1  0.87239504  0.75349101  0.50904050  1
  O  O227  1  0.12811310  0.25286711  0.48277835  1
  O  O228  1  0.12860591  0.25233239  0.98127517  1
  O  O229  1  0.12828146  0.73966179  0.49184747  1
  O  O230  1  0.13283489  0.74147549  0.99520621  1
  O  O231  1  0.63921559  0.25579129  0.50107391  1
  O  O232  1  0.61546725  0.25224057  0.98607254  1
  O  O233  1  0.63048396  0.73030874  0.50622189  1
  O  O234  1  0.62082339  0.75902659  0.99485642  1
  O  O235  1  0.49782504  0.24467389  0.13245471  1
  O  O236  1  0.49661371  0.24524065  0.63440892  1
  O  O237  1  0.48933447  0.73865762  0.12008506  1
  O  O238  1  0.50170830  0.73855993  0.63828063  1
  O  O239  1  0.99270262  0.24341041  0.12333670  1
  O  O240  1  0.98882374  0.25831446  0.63238076  1
  O  O241  1  0.99001945  0.74201813  0.13303272  1
  O  O242  1  0.99498770  0.74278058  0.63150089  1
  O  O243  1  0.00611064  0.26477489  0.36565620  1
  O  O244  1  0.00971263  0.26028842  0.86683538  1
  O  O245  1  0.00651854  0.74253244  0.36487802  1
  O  O246  1  0.00605222  0.75323789  0.86844385  1
  O  O247  1  0.50043418  0.24846611  0.36440504  1
  O  O248  1  0.50729380  0.25481227  0.86697238  1
  O  O249  1  0.51218965  0.76117338  0.37810050  1
  O  O250  1  0.50874856  0.75349370  0.87409731  1
  O  O251  1  0.25036918  0.13468729  0.47475144  1
  O  O252  1  0.24204107  0.13314299  1.01461188  1
  O  O253  1  0.23500313  0.62788946  0.49774099  1
  O  O254  1  0.24293633  0.63175067  1.00084406  1
  O  O255  1  0.75872937  0.13402415  0.49028622  1
  O  O256  1  0.75208632  0.11352569  0.98394730  1
  O  O257  1  0.73424498  0.61810877  0.50790039  1
  O  O258  1  0.75350674  0.62338806  0.98272734  1
  O  O259  1  0.25573644  0.37623934  0.00767258  1
  O  O260  1  0.25659721  0.37784324  0.51002435  1
  O  O261  1  0.25429143  0.86088277  0.00816912  1
  O  O262  1  0.24719726  0.85197989  0.48623983  1
  O  O263  1  0.74421570  0.37688135  0.01461495  1
  O  O264  1  0.75788460  0.36661764  0.51033140  1
  O  O265  1  0.76380525  0.88208439  0.01019055  1
  O  O266  1  0.75948991  0.87235602  0.51246826  1
  O  O267  1  0.13486894  0.49207124  0.25637527  1
  O  O268  1  0.13784034  0.51017167  0.73806202  1
  O  O269  1  0.12609441  0.99160586  0.24417622  1
  O  O270  1  0.14812352  1.00969092  0.76489790  1
  O  O271  1  0.61701048  0.48843374  0.24053232  1
  O  O272  1  0.62043874  0.48422850  0.75832483  1
  O  O273  1  0.63737726  0.99671983  0.23723084  1
  O  O274  1  0.63156008  0.99096098  0.74392953  1
  O  O275  1  0.36014169  0.01382151  0.23888182  1
  O  O276  1  0.36346652  0.01066071  0.76992631  1
  O  O277  1  0.36867688  0.50456170  0.25616618  1
  O  O278  1  0.36955472  0.50795748  0.75465818  1
  O  O279  1  0.86698377  0.00690342  0.25299851  1
  O  O280  1  0.86993662  0.00420785  0.75603052  1
  O  O281  1  0.87493205  0.51226973  0.26114232  1
  O  O282  1  0.88298589  0.50520584  0.76881727  1
  O  O283  1  0.11782881  0.37264291  0.36667706  1
  O  O284  1  0.11384766  0.36782987  0.87015666  1
  O  O285  1  0.12572631  0.86229390  0.36420363  1
  O  O286  1  0.11467119  0.86135925  0.88560654  1
  O  O287  1  0.62185029  0.37095289  0.36685839  1
  O  O288  1  0.62233598  0.36454496  0.86791727  1
  O  O289  1  0.62600199  0.88788581  0.35198878  1
  O  O290  1  0.62318602  0.86844888  0.87215904  1
  O  O291  1  0.38624294  0.13212162  0.13337267  1
  O  O292  1  0.38171548  0.13330287  0.63729507  1
  O  O293  1  0.38282211  0.62944881  0.13277923  1
  O  O294  1  0.38553108  0.62278641  0.63825626  1
  O  O295  1  0.88208008  0.12583234  0.13098193  1
  O  O296  1  0.86835595  0.13375178  0.63339269  1
  O  O297  1  0.87895221  0.63198722  0.13045012  1
  O  O298  1  0.88163398  0.63132376  0.62414885  1
  O  O299  1  0.25669469  0.26512347  0.12854899  1
  O  O300  1  0.25468779  0.26381113  0.62684277  1
  O  O301  1  0.25726209  0.74628988  0.11877562  1
  O  O302  1  0.24181273  0.74432593  0.60607044  1
  O  O303  1  0.75123631  0.26203052  0.12251007  1
  O  O304  1  0.76122560  0.25357335  0.61990971  1
  O  O305  1  0.76268523  0.76302705  0.12856983  1
  O  O306  1  0.75959023  0.75701552  0.62882076  1
  O  O307  1  0.23972713  0.24826189  0.36728539  1
  O  O308  1  0.23417615  0.26115141  0.86782932  1
  O  O309  1  0.23339974  0.73793122  0.38054928  1
  O  O310  1  0.24442645  0.74851061  0.88574704  1
  O  O311  1  0.74922053  0.24189426  0.38503939  1
  O  O312  1  0.73884489  0.23730330  0.86793109  1
  O  O313  1  0.73515541  0.75822764  0.37589998  1
  O  O314  1  0.74375645  0.74508755  0.87686418  1
  O  O315  1  0.00651660  0.12644450  0.01064260  1
  O  O316  1  0.00074924  0.13366482  0.49866445  1
  O  O317  1  0.00785699  0.62769536  0.00939223  1
  O  O318  1  0.00771402  0.62983865  0.51356724  1
  O  O319  1  0.49767772  0.11876501  0.01235104  1
  O  O320  1  0.49591329  0.13561869  0.51504079  1
  O  O321  1  0.49397701  0.61431760  0.01179241  1
  O  O322  1  0.50765854  0.61816430  0.51000246  1
  O  O323  1  0.49470395  0.38298809  0.50228065  1
  O  O324  1  0.49502585  0.38490506  0.99632573  1
  O  O325  1  0.48336560  0.86348107  0.51823295  1
  O  O326  1  0.49887778  0.88927655  1.00028508  1
  O  O327  1  0.98682627  0.36825222  0.48956152  1
  O  O328  1  1.00311533  0.37534049  0.98364927  1
  O  O329  1  0.98678268  0.86748632  0.50445307  1
  O  O330  1  0.99049578  0.86800266  0.98834234  1
  O  O331  1  0.48963298  0.49765477  0.38503604  1
  O  O332  1  0.49895961  0.49657036  0.88368995  1
  O  O333  1  0.48940793  0.98754309  0.37250769  1
  O  O334  1  0.49816474  0.99839752  0.88563914  1
  O  O335  1  0.99246432  0.48819258  0.37311888  1
  O  O336  1  1.00287256  0.48585093  0.87080703  1
  O  O337  1  0.98495111  1.00347861  0.36451389  1
  O  O338  1  0.99051703  0.98691789  0.86264943  1
  O  O339  1  0.00667868  0.00920286  0.13082915  1
  O  O340  1  0.00949570  0.00644162  0.63658626  1
  O  O341  1  -0.00953551  0.51400009  0.12437759  1
  O  O342  1  0.00812942  0.50763943  0.63570147  1
  O  O343  1  0.51320830  0.01180474  0.11753321  1
  O  O344  1  0.51028453  0.01116735  0.62623443  1
  O  O345  1  0.50705748  0.50652419  0.11887405  1
  O  O346  1  0.49305834  0.50726598  0.61606394  1
  O  O347  1  0.24327233  0.38336636  0.24160233  1
  O  O348  1  0.25804474  0.38912128  0.73747840  1
  O  O349  1  0.23519738  0.88252178  0.24961522  1
  O  O350  1  0.24580868  0.88092795  0.76701356  1
  O  O351  1  0.73742828  0.36983033  0.24208257  1
  O  O352  1  0.74250023  0.36389021  0.74400061  1
  O  O353  1  0.75016065  0.88799597  0.23643275  1
  O  O354  1  0.74796548  0.87845455  0.74005032  1
  O  O355  1  0.25605854  0.12199908  0.25127052  1
  O  O356  1  0.26731349  0.13341741  0.75536521  1
  O  O357  1  0.25698285  0.61325227  0.24953570  1
  O  O358  1  0.26026742  0.61748512  0.74921140  1
  O  O359  1  0.75745947  0.11839891  0.25298950  1
  O  O360  1  0.76195723  0.11888021  0.75646333  1
  O  O361  1  0.76109588  0.63180766  0.24437493  1
  O  O362  1  0.74869212  0.62638272  0.76824962  1
  O  O363  1  0.36489653  0.12642023  0.36078859  1
  O  O364  1  0.38617684  0.11694566  0.87130504  1
  O  O365  1  0.37576499  0.61347343  0.36649542  1
  O  O366  1  0.37497190  0.61812683  0.86599096  1
  O  O367  1  0.86547889  0.11791694  0.36468538  1
  O  O368  1  0.87035514  0.11378973  0.86549890  1
  O  O369  1  0.87768685  0.61540833  0.36796640  1
  O  O370  1  0.86314347  0.62367945  0.87025090  1
  O  O371  1  0.13268615  0.37143051  0.13153600  1
  O  O372  1  0.13325925  0.38447548  0.61714664  1
  O  O373  1  0.12141483  0.87976602  0.13580244  1
  O  O374  1  0.14145250  0.88143198  0.62185599  1
  O  O375  1  0.63398647  0.38196198  0.13266747  1
  O  O376  1  0.63709033  0.36889775  0.63664135  1
  O  O377  1  0.63854616  0.88728283  0.12766059  1
  O  O378  1  0.63517819  0.88047350  0.63068402  1
  O  O379  1  0.12364015  0.26639016  0.25418736  1
  O  O380  1  0.11331817  0.24320548  0.75685262  1
  O  O381  1  0.11688693  0.75350159  0.25583518  1
  O  O382  1  0.11780459  0.74091648  0.76143255  1
  O  O383  1  0.61601821  0.25757802  0.25111610  1
  O  O384  1  0.61493742  0.25435449  0.75578008  1
  O  O385  1  0.63146458  0.77117255  0.24046627  1
  O  O386  1  0.61569561  0.75431652  0.75807962  1
  O  O387  1  0.38405738  0.24327754  0.24444014  1
  O  O388  1  0.38754392  0.24776170  0.74829625  1
  O  O389  1  0.36219169  0.73435238  0.24398733  1
  O  O390  1  0.38899832  0.73865751  0.76323536  1
  O  O391  1  0.87160873  0.23885215  0.25361761  1
  O  O392  1  0.88058950  0.24244704  0.74245357  1
  O  O393  1  0.88072532  0.74507936  0.24326201  1
  O  O394  1  0.88435734  0.74811760  0.73843916  1
  O  O395  1  0.38109901  0.49815063  0.49337368  1
  O  O396  1  0.38383907  0.49602898  0.99515223  1
  O  O397  1  0.35117815  1.00414461  0.51346139  1
  O  O398  1  0.38595505  1.00141731  1.00012985  1
  O  O399  1  0.87230194  0.48759176  0.49262867  1
  O  O400  1  0.88583670  0.50946956  0.97833750  1
  O  O401  1  0.87950495  0.99172452  0.49229437  1
  O  O402  1  0.87669408  0.98938202  0.98534535  1
  O  O403  1  0.12921357  -0.00445446  0.01581845  1
  O  O404  1  0.11294349  0.00736130  0.49746857  1
  O  O405  1  0.12272739  0.51365144  -0.00688181  1
  O  O406  1  0.12753895  0.50763895  0.51005710  1
  O  O407  1  0.61973038  -0.00234529  0.00880048  1
  O  O408  1  0.63488918  -0.00734757  0.51232701  1
  O  O409  1  0.61340922  0.49451067  0.00984553  1
  O  O410  1  0.61251383  0.50715365  0.49743683  1
  O  O411  1  0.36885111  0.37151945  0.12079304  1
  O  O412  1  0.36805150  0.37134828  0.62120339  1
  O  O413  1  0.37237716  0.85946369  0.13634714  1
  O  O414  1  0.36422716  0.86547362  0.64136367  1
  O  O415  1  0.85793612  0.37578930  0.12979082  1
  O  O416  1  0.87085016  0.36644012  0.62003859  1
  O  O417  1  0.87347963  0.87002873  0.11751411  1
  O  O418  1  0.86993567  0.86775056  0.61865565  1
  O  O419  1  0.13100581  0.14086831  0.36008959  1
  O  O420  1  0.11676820  0.14099168  0.87638889  1
  O  O421  1  0.11949987  0.62893761  0.38290010  1
  O  O422  1  0.12495702  0.63558322  0.88450345  1
  O  O423  1  0.64127565  0.12294060  0.36531719  1
  O  O424  1  0.63443176  0.13128963  0.86667236  1
  O  O425  1  0.61886400  0.62288485  0.39052301  1
  O  O426  1  0.63653316  0.63678124  0.87678347  1
