# generated using pymatgen
data_V85Zn86O256
_symmetry_space_group_name_H-M   'P 1'
_cell_length_a   16.97184883
_cell_length_b   16.96888088
_cell_length_c   16.96172727
_cell_angle_alpha   90.04902229
_cell_angle_beta   89.99008782
_cell_angle_gamma   90.07301334
_symmetry_Int_Tables_number   1
_chemical_formula_structural   V85Zn86O256
_chemical_formula_sum   'V85 Zn86 O256'
_cell_volume   4884.85766279
_cell_formula_units_Z   1
loop_
 _symmetry_equiv_pos_site_id
 _symmetry_equiv_pos_as_xyz
  1  'x, y, z'
loop_
 _atom_site_type_symbol
 _atom_site_label
 _atom_site_symmetry_multiplicity
 _atom_site_fract_x
 _atom_site_fract_y
 _atom_site_fract_z
 _atom_site_occupancy
  V  V0  1  0.24190086  0.24972733  0.49471616  1
  V  V1  1  0.24869253  0.63087336  0.88735797  1
  V  V2  1  0.88043449  -0.01075333  0.38034089  1
  V  V3  1  0.00024314  0.37713823  0.87658825  1
  V  V4  1  0.74198783  0.62826922  0.37747117  1
  V  V5  1  0.25024418  0.37797197  0.13009150  1
  V  V6  1  0.87648264  0.11575318  0.75487090  1
  V  V7  1  0.51340496  0.25276704  0.75381233  1
  V  V8  1  0.00479666  0.62852054  0.12424789  1
  V  V9  1  0.50022861  0.74632386  0.74094609  1
  V  V10  1  0.74795558  0.00008080  0.25179557  1
  V  V11  1  0.62459709  0.62581936  0.00071261  1
  V  V12  1  0.24315276  0.12992418  0.37328588  1
  V  V13  1  0.38157726  0.38077835  0.49820059  1
  V  V14  1  0.12637757  -0.00768410  0.12107269  1
  V  V15  1  0.87860764  0.12514042  0.24804721  1
  V  V16  1  0.87224953  0.88101686  -0.00260790  1
  V  V17  1  0.50048069  -0.00045232  0.00155108  1
  V  V18  1  0.50240631  0.49950769  0.00049369  1
  V  V19  1  0.12777982  0.74595392  0.37331405  1
  V  V20  1  0.50059136  0.86511363  0.37558118  1
  V  V21  1  0.12606875  0.37406994  0.75051293  1
  V  V22  1  0.87022217  0.37573451  0.50763354  1
  V  V23  1  0.12561326  0.12354983  0.00024348  1
  V  V24  1  0.37709373  0.62363861  0.74150037  1
  V  V25  1  0.00109850  0.50557392  0.49893732  1
  V  V26  1  0.35973799  0.75487927  0.12408432  1
  V  V27  1  0.37524038  0.24842364  0.62587042  1
  V  V28  1  0.25142329  0.37389278  0.62385362  1
  V  V29  1  0.12698624  0.50146400  0.62336929  1
  V  V30  1  0.49965890  0.87353849  0.87591631  1
  V  V31  1  0.50832398  0.00450617  0.49786036  1
  V  V32  1  0.36258255  0.87167240  0.00388650  1
  V  V33  1  -0.00255870  0.75305544  0.25013026  1
  V  V34  1  -0.00231376  0.24734991  0.74662049  1
  V  V35  1  0.75504701  0.11663379  0.87674976  1
  V  V36  1  -0.00529505  0.86572430  0.86766061  1
  V  V37  1  0.74653322  0.49464583  0.74721959  1
  V  V38  1  0.50137386  0.12580708  0.12580290  1
  V  V39  1  0.87908734  0.24833211  0.12740186  1
  V  V40  1  0.50893303  0.25582253  0.25074918  1
  V  V41  1  0.74759799  0.87442247  0.62260327  1
  V  V42  1  0.62038470  0.86028030  0.25354743  1
  V  V43  1  0.37625869  -0.00147878  0.38095526  1
  V  V44  1  0.50629041  0.38009196  0.37349276  1
  V  V45  1  0.88210766  0.62929225  0.74888788  1
  V  V46  1  0.75044342  0.62574622  0.87463813  1
  V  V47  1  0.62489316  0.12879851  -0.00658042  1
  V  V48  1  0.75434822  0.75037826  0.00337023  1
  V  V49  1  0.12177454  0.87565968  0.25295625  1
  V  V50  1  0.37604470  0.37532224  -0.00210155  1
  V  V51  1  -0.00431358  0.00061985  -0.00623000  1
  V  V52  1  0.37634231  0.12547336  0.24868382  1
  V  V53  1  0.36775667  0.76430527  0.62246800  1
  V  V54  1  0.14025276  0.62293553  0.49606773  1
  V  V55  1  0.00699323  0.50544066  0.00269096  1
  V  V56  1  0.25121358  -0.00444840  0.24417791  1
  V  V57  1  0.12576126  0.24849252  0.87641395  1
  V  V58  1  0.62384270  0.00002146  0.12672720  1
  V  V59  1  0.25172960  0.50152803  0.75147400  1
  V  V60  1  0.37307463  0.00347082  0.87470984  1
  V  V61  1  0.74566476  0.49438364  0.25280500  1
  V  V62  1  0.88164631  0.75218008  0.62265837  1
  V  V63  1  0.61055650  0.49956748  0.62576687  1
  V  V64  1  0.37087027  0.62884711  0.25225028  1
  V  V65  1  0.74574596  0.37444154  0.13196478  1
  V  V66  1  0.11478164  0.36452365  0.25365737  1
  V  V67  1  0.51551146  0.37213058  0.87331341  1
  V  V68  1  0.50804163  0.12695934  0.61838941  1
  V  V69  1  0.87689268  0.50176527  0.37803188  1
  V  V70  1  0.87473997  0.62916125  0.24588966  1
  V  V71  1  0.87500162  0.50149688  0.87507162  1
  V  V72  1  0.75323798  0.87062547  0.12686210  1
  V  V73  1  0.87473542  0.37607000  0.00157815  1
  V  V74  1  0.74597984  0.12371195  0.38560068  1
  V  V75  1  0.37264459  0.50348383  0.37430664  1
  V  V76  1  0.37710596  0.25161752  0.12589961  1
  V  V77  1  0.62376294  0.74939070  0.87305141  1
  V  V78  1  0.62811494  0.24928022  0.38172334  1
  V  V79  1  0.74614590  0.25116895  -0.00581382  1
  V  V80  1  0.62485131  0.49927767  0.12903349  1
  V  V81  1  0.50112970  0.63612032  0.13006979  1
  V  V82  1  0.61294832  0.62472431  0.50591157  1
  V  V83  1  0.25393345  0.76740772  0.49677669  1
  V  V84  1  0.74863985  0.75064056  0.49930347  1
  Zn  Zn85  1  0.63061747  0.00385686  0.62332317  1
  Zn  Zn86  1  0.24981974  0.25122880  0.00079769  1
  Zn  Zn87  1  0.74627893  0.24686980  0.50760605  1
  Zn  Zn88  1  0.74975374  -0.00504803  0.75371216  1
  Zn  Zn89  1  0.00283292  -0.02184588  0.49524868  1
  Zn  Zn90  1  0.24385136  0.50626165  0.25657586  1
  Zn  Zn91  1  -0.00246319  0.11409433  0.61592455  1
  Zn  Zn92  1  0.00215967  0.12800395  0.12719145  1
  Zn  Zn93  1  0.13314339  0.86619758  0.74181523  1
  Zn  Zn94  1  0.12861272  -0.00746108  0.61951682  1
  Zn  Zn95  1  0.12080260  0.74372062  0.87796203  1
  Zn  Zn96  1  0.37375483  0.12363620  0.74914283  1
  Zn  Zn97  1  0.74149582  0.37268493  0.63087478  1
  Zn  Zn98  1  0.01153601  0.34927325  0.38198809  1
  Zn  Zn99  1  0.25197512  0.12835425  0.87101865  1
  Zn  Zn100  1  0.62390001  0.87844772  0.74725102  1
  Zn  Zn101  1  0.86943357  0.24851553  0.62764413  1
  Zn  Zn102  1  0.11773729  0.12037990  0.49871176  1
  Zn  Zn103  1  0.12668965  0.50228753  0.12772820  1
  Zn  Zn104  1  0.00891279  0.63290870  0.62985012  1
  Zn  Zn105  1  0.24718416  -0.00335801  0.73966879  1
  Zn  Zn106  1  0.37950091  0.50055190  0.87347447  1
  Zn  Zn107  1  0.18819129  0.18725502  0.18605415  1
  Zn  Zn108  1  0.18771745  0.17385308  0.68402202  1
  Zn  Zn109  1  0.18669735  0.68823199  0.18347766  1
  Zn  Zn110  1  0.18666163  0.69272519  0.69072915  1
  Zn  Zn111  1  0.68963983  0.18854471  0.18825551  1
  Zn  Zn112  1  0.69129349  0.18618286  0.69017340  1
  Zn  Zn113  1  0.68860814  0.68436395  0.18783372  1
  Zn  Zn114  1  0.68915428  0.68446445  0.68625244  1
  Zn  Zn115  1  0.31474194  0.31453828  0.31127042  1
  Zn  Zn116  1  0.31546079  0.31250872  0.81265792  1
  Zn  Zn117  1  0.31456133  0.81321261  0.31074193  1
  Zn  Zn118  1  0.31307003  0.81026454  0.81149856  1
  Zn  Zn119  1  0.83953072  0.29651008  0.33059242  1
  Zn  Zn120  1  0.81242708  0.31079194  0.81415796  1
  Zn  Zn121  1  0.80899562  0.80968940  0.31238141  1
  Zn  Zn122  1  0.81402455  0.81315337  0.81011300  1
  Zn  Zn123  1  0.18892007  0.43364534  0.43417687  1
  Zn  Zn124  1  0.19001183  0.43968852  0.93824405  1
  Zn  Zn125  1  0.18571054  0.93994430  0.43365433  1
  Zn  Zn126  1  0.19814268  0.91989764  0.90386857  1
  Zn  Zn127  1  0.68468049  0.44045744  0.44175511  1
  Zn  Zn128  1  0.69046636  0.44011905  0.94013693  1
  Zn  Zn129  1  0.68527813  0.93424688  0.43697557  1
  Zn  Zn130  1  0.68419738  0.93775489  0.93809419  1
  Zn  Zn131  1  0.31165835  0.06196136  0.05879530  1
  Zn  Zn132  1  0.31108490  0.06228016  0.56154508  1
  Zn  Zn133  1  0.31790777  0.56054525  0.06824542  1
  Zn  Zn134  1  0.31882137  0.56246994  0.56387689  1
  Zn  Zn135  1  0.80975347  0.06177199  0.06430837  1
  Zn  Zn136  1  0.82222842  0.06028176  0.56530332  1
  Zn  Zn137  1  0.81526059  0.56254529  0.06398024  1
  Zn  Zn138  1  0.80842428  0.56530542  0.56597819  1
  Zn  Zn139  1  0.43776079  0.44200996  0.19040856  1
  Zn  Zn140  1  0.43882607  0.43305758  0.68927279  1
  Zn  Zn141  1  0.43808196  0.93422393  0.19049567  1
  Zn  Zn142  1  0.43810767  0.94030163  0.68665453  1
  Zn  Zn143  1  0.93537918  0.43958324  0.18768504  1
  Zn  Zn144  1  0.93870084  0.44168298  0.68814031  1
  Zn  Zn145  1  0.93867135  0.93857019  0.18523581  1
  Zn  Zn146  1  0.93804315  0.93665553  0.68083727  1
  Zn  Zn147  1  0.06030954  0.06317282  0.31306382  1
  Zn  Zn148  1  0.06385890  0.05629319  0.80873679  1
  Zn  Zn149  1  0.06518163  0.56051372  0.31066189  1
  Zn  Zn150  1  0.06569989  0.56395933  0.81453818  1
  Zn  Zn151  1  0.56410678  0.06320681  0.31334633  1
  Zn  Zn152  1  0.56197720  0.06364123  0.80717367  1
  Zn  Zn153  1  0.55862924  0.56634182  0.31382535  1
  Zn  Zn154  1  0.56216669  0.56178804  0.81149427  1
  Zn  Zn155  1  0.43507895  0.18842972  0.43637287  1
  Zn  Zn156  1  0.44069516  0.18968772  0.93728879  1
  Zn  Zn157  1  0.43259416  0.68691087  0.43921823  1
  Zn  Zn158  1  0.43227680  0.68647993  0.93723217  1
  Zn  Zn159  1  0.93921721  0.18546464  0.43654498  1
  Zn  Zn160  1  0.93715408  0.18761712  0.93836856  1
  Zn  Zn161  1  0.94066776  0.69317684  0.43824719  1
  Zn  Zn162  1  0.93507236  0.68832404  0.94186238  1
  Zn  Zn163  1  0.06320287  0.31588537  0.06486851  1
  Zn  Zn164  1  0.05984367  0.31586308  0.56326049  1
  Zn  Zn165  1  0.06469646  0.81034393  0.05834587  1
  Zn  Zn166  1  0.06269212  0.82207214  0.55960771  1
  Zn  Zn167  1  0.56401063  0.31353187  0.06243283  1
  Zn  Zn168  1  0.56293571  0.31477297  0.56259107  1
  Zn  Zn169  1  0.56408826  0.81409823  0.06202291  1
  Zn  Zn170  1  0.56243377  0.81354996  0.55684640  1
  O  O171  1  0.12231236  0.11806157  0.11707680  1
  O  O172  1  0.11586781  0.12031358  0.61838800  1
  O  O173  1  0.10981925  0.62062651  0.13207759  1
  O  O174  1  0.12731476  0.61984133  0.61573241  1
  O  O175  1  0.62148842  0.11965106  0.11733305  1
  O  O176  1  0.61155178  0.12600081  0.62808462  1
  O  O177  1  0.61897976  0.61992757  0.12098871  1
  O  O178  1  0.62766232  0.61648554  0.61421567  1
  O  O179  1  0.38438871  0.38083040  0.38065276  1
  O  O180  1  0.38286595  0.37550310  0.88579997  1
  O  O181  1  0.38899645  0.88835319  0.36279702  1
  O  O182  1  0.38631602  0.87977454  0.88522429  1
  O  O183  1  0.86776246  0.39595525  0.38740118  1
  O  O184  1  0.88055544  0.38118702  0.88168489  1
  O  O185  1  0.86451969  0.89139403  0.36507293  1
  O  O186  1  0.87645574  0.87418837  0.88984786  1
  O  O187  1  0.25865887  0.00798102  0.36512790  1
  O  O188  1  0.26896806  0.01036279  0.89038388  1
  O  O189  1  0.26777061  0.49326562  0.37403825  1
  O  O190  1  0.25440958  0.50187206  0.86242169  1
  O  O191  1  0.75075674  0.00481419  0.36721427  1
  O  O192  1  0.74783935  0.01240694  0.87782146  1
  O  O193  1  0.75473168  0.50907767  0.36991439  1
  O  O194  1  0.75450014  0.50679024  0.86997830  1
  O  O195  1  0.25017904  0.48823245  0.12677214  1
  O  O196  1  0.24740181  0.49432706  0.63275674  1
  O  O197  1  0.24068366  1.00782965  0.13494809  1
  O  O198  1  0.24860400  0.99986351  0.62559423  1
  O  O199  1  0.74707337  0.49405173  0.13280342  1
  O  O200  1  0.74451701  0.49915191  0.63535704  1
  O  O201  1  0.74357215  0.99120172  0.13288570  1
  O  O202  1  0.75295484  0.98520246  0.62133870  1
  O  O203  1  0.01254138  0.37977420  0.24771544  1
  O  O204  1  0.00574099  0.37019768  0.75679780  1
  O  O205  1  0.00946895  0.86581898  0.24328265  1
  O  O206  1  -0.01775977  0.87878255  0.76918969  1
  O  O207  1  0.49404550  0.36457686  0.25861369  1
  O  O208  1  0.49697434  0.36220572  0.75856179  1
  O  O209  1  0.50991282  0.88224741  0.26239634  1
  O  O210  1  0.49858957  0.86463950  0.76008326  1
  O  O211  1  0.49671181  0.13344972  0.24447957  1
  O  O212  1  0.49540048  0.13886233  0.74229111  1
  O  O213  1  0.48908678  0.62016982  0.23843266  1
  O  O214  1  0.48996854  0.63756458  0.75818401  1
  O  O215  1  0.98272862  0.11785124  0.24594831  1
  O  O216  1  0.99112271  0.13458547  0.75811884  1
  O  O217  1  0.99215946  0.62993495  0.24470036  1
  O  O218  1  0.98721568  0.61704335  0.74840651  1
  O  O219  1  0.37738467  0.26075541  0.00624831  1
  O  O220  1  0.36938334  0.25924835  0.50784058  1
  O  O221  1  0.38120852  0.75721243  0.01442492  1
  O  O222  1  0.36395270  0.74552269  0.51108540  1
  O  O223  1  0.86509885  0.25487900  0.00742231  1
  O  O224  1  0.87196441  0.26641652  0.50537091  1
  O  O225  1  0.85932046  0.75934157  0.00002352  1
  O  O226  1  0.86303902  0.73808235  0.51361336  1
  O  O227  1  0.13965193  0.25617243  0.50168726  1
  O  O228  1  0.12144030  0.24302218  0.99246172  1
  O  O229  1  0.14020209  0.74282806  0.49337411  1
  O  O230  1  0.12308865  0.74851774  0.99019298  1
  O  O231  1  0.62632832  0.25329195  0.48628885  1
  O  O232  1  0.63406456  0.23908875  1.00807026  1
  O  O233  1  0.63518347  0.73442982  0.50753106  1
  O  O234  1  0.63360243  0.74557145  0.99355846  1
  O  O235  1  0.49797407  0.24715435  0.13280242  1
  O  O236  1  0.49554562  0.24804411  0.63263441  1
  O  O237  1  0.50057704  0.73855962  0.12199314  1
  O  O238  1  0.48778786  0.75704398  0.63300130  1
  O  O239  1  0.98294101  0.24989218  0.11785340  1
  O  O240  1  0.99978417  0.25361345  0.64101198  1
  O  O241  1  1.00433036  0.74184984  0.13933505  1
  O  O242  1  0.98388878  0.74947872  0.61816749  1
  O  O243  1  -0.05106828  0.26166317  0.35791637  1
  O  O244  1  0.00765424  0.25690340  0.86985909  1
  O  O245  1  0.01282004  0.74281636  0.36100169  1
  O  O246  1  -0.00941393  0.76236343  0.87764799  1
  O  O247  1  0.50742542  0.25554041  0.36838541  1
  O  O248  1  0.49681397  0.25561243  0.86084684  1
  O  O249  1  0.49078953  0.76706568  0.37907902  1
  O  O250  1  0.50219109  0.75713879  0.86875958  1
  O  O251  1  0.25101852  0.13520261  0.48861928  1
  O  O252  1  0.23689204  0.13024762  0.99929565  1
  O  O253  1  0.24241404  0.62458049  0.50154306  1
  O  O254  1  0.26079581  0.61078118  0.98465492  1
  O  O255  1  0.75750321  0.12506814  0.48854012  1
  O  O256  1  0.74421518  0.13115543  0.99603877  1
  O  O257  1  0.74333677  0.63026623  0.49306234  1
  O  O258  1  0.74684943  0.63220791  0.99762041  1
  O  O259  1  0.25962002  0.37510037  0.00795533  1
  O  O260  1  0.25991475  0.36837141  0.50373243  1
  O  O261  1  0.26459015  0.87933397  -0.00649420  1
  O  O262  1  0.25225416  0.86505007  0.49621391  1
  O  O263  1  0.75471573  0.36945542  0.00825862  1
  O  O264  1  0.76091885  0.37930751  0.50400638  1
  O  O265  1  0.75203001  0.87079766  0.00718173  1
  O  O266  1  0.74203687  0.86049897  0.50613337  1
  O  O267  1  0.12913883  0.48918823  0.24791067  1
  O  O268  1  0.13363718  0.49476738  0.74456426  1
  O  O269  1  0.12978889  0.99433505  0.24309876  1
  O  O270  1  0.12545382  0.98920778  0.74571538  1
  O  O271  1  0.63868396  0.50871792  0.24602111  1
  O  O272  1  0.63366051  0.51188270  0.73608492  1
  O  O273  1  0.63413993  0.99465877  0.24616664  1
  O  O274  1  0.62909819  0.99755138  0.74311253  1
  O  O275  1  0.36782793  0.00581904  0.25287217  1
  O  O276  1  0.37824461  -0.00024575  0.76525272  1
  O  O277  1  0.37126371  0.50905998  0.25628049  1
  O  O278  1  0.36774588  0.50524315  0.74718772  1
  O  O279  1  0.86265534  0.00462484  0.25055504  1
  O  O280  1  0.87223633  0.01314437  0.74769631  1
  O  O281  1  0.86701592  0.50862416  0.25888695  1
  O  O282  1  0.86788713  0.50838563  0.75559754  1
  O  O283  1  0.12347313  0.37415404  0.36112188  1
  O  O284  1  0.12079830  0.36822194  0.87137146  1
  O  O285  1  0.13025991  0.86278431  0.36093244  1
  O  O286  1  0.09817030  0.87340776  0.88010581  1
  O  O287  1  0.61481398  0.36942941  0.37946957  1
  O  O288  1  0.61468751  0.37478528  0.88353176  1
  O  O289  1  0.61168611  0.87824427  0.36659325  1
  O  O290  1  0.61407467  0.86899059  0.87554476  1
  O  O291  1  0.38163955  0.13093136  0.12757919  1
  O  O292  1  0.38596292  0.13717509  0.62271609  1
  O  O293  1  0.38222841  0.63726968  0.12907409  1
  O  O294  1  0.37281087  0.63350335  0.63653940  1
  O  O295  1  0.87324791  0.13137409  0.13000199  1
  O  O296  1  0.87844358  0.12963254  0.63895495  1
  O  O297  1  0.88136303  0.62095481  0.13966611  1
  O  O298  1  0.87550483  0.63406846  0.63313432  1
  O  O299  1  0.25871254  0.26030373  0.12330060  1
  O  O300  1  0.25854478  0.25389983  0.61676025  1
  O  O301  1  0.26126838  0.74994916  0.12071254  1
  O  O302  1  0.26039130  0.74871852  0.61378607  1
  O  O303  1  0.75392041  0.25767890  0.11577315  1
  O  O304  1  0.75012756  0.25654181  0.62445582  1
  O  O305  1  0.74098778  0.75956004  0.11523714  1
  O  O306  1  0.75556424  0.75439389  0.61771121  1
  O  O307  1  0.26149017  0.24109704  0.38272231  1
  O  O308  1  0.23756081  0.25208724  0.87724464  1
  O  O309  1  0.24692028  0.75310041  0.38723702  1
  O  O310  1  0.26019957  0.73130411  0.87827447  1
  O  O311  1  0.74397420  0.24153627  0.37599868  1
  O  O312  1  0.75217021  0.24327875  0.88922416  1
  O  O313  1  0.75569836  0.73739500  0.38443299  1
  O  O314  1  0.74440812  0.74580350  0.88281771  1
  O  O315  1  0.00735099  0.11800951  0.00070971  1
  O  O316  1  0.00019385  0.11883116  0.49699445  1
  O  O317  1  -0.01232917  0.61635660  0.01239748  1
  O  O318  1  0.01202415  0.61792962  0.50167442  1
  O  O319  1  0.50832305  0.12208350  0.00569162  1
  O  O320  1  0.49571391  0.11923173  0.50718238  1
  O  O321  1  0.50480529  0.61950411  0.00690120  1
  O  O322  1  0.51448009  0.63104812  0.49627255  1
  O  O323  1  0.48904567  0.36799157  0.48882267  1
  O  O324  1  0.49493952  0.37776441  0.99413354  1
  O  O325  1  0.50396008  0.88567555  0.48388170  1
  O  O326  1  0.49702140  0.87996651  0.99220101  1
  O  O327  1  0.99293130  0.38675273  0.49670033  1
  O  O328  1  0.99349403  0.38412264  0.99686585  1
  O  O329  1  1.00034534  0.86365045  0.48082603  1
  O  O330  1  0.98645350  0.88105043  0.99891392  1
  O  O331  1  0.49067830  0.48816360  0.36733260  1
  O  O332  1  0.50028910  0.49032617  0.88024387  1
  O  O333  1  0.49361419  1.00156500  0.38109288  1
  O  O334  1  0.49544348  0.99233691  0.88078441  1
  O  O335  1  0.99052922  0.50563439  0.38527167  1
  O  O336  1  0.99527480  0.49737689  0.88294768  1
  O  O337  1  0.98233621  1.00021341  0.36786355  1
  O  O338  1  0.99977497  0.99229944  0.89006505  1
  O  O339  1  0.00975494  0.00159009  0.11570998  1
  O  O340  1  0.00060721  -0.00387387  0.61253834  1
  O  O341  1  -0.00225351  0.50841920  0.11718346  1
  O  O342  1  0.00866086  0.50232284  0.61432466  1
  O  O343  1  0.50408096  0.00583170  0.12171241  1
  O  O344  1  0.49665798  0.00944843  0.61454304  1
  O  O345  1  0.50594416  0.50705093  0.12017165  1
  O  O346  1  0.51125352  0.50178070  0.63287167  1
  O  O347  1  0.24416914  0.37519611  0.24143527  1
  O  O348  1  0.24713968  0.38222463  0.74484046  1
  O  O349  1  0.24174562  0.88859896  0.25337125  1
  O  O350  1  0.23890372  0.88998228  0.79322364  1
  O  O351  1  0.75921750  0.38669643  0.24160664  1
  O  O352  1  0.75430000  0.39020171  0.75411350  1
  O  O353  1  0.74163475  0.88013799  0.24428616  1
  O  O354  1  0.74672436  0.87461720  0.74000241  1
  O  O355  1  0.25584234  0.11853451  0.25449734  1
  O  O356  1  0.25704549  0.11964356  0.75530931  1
  O  O357  1  0.26524376  0.62438392  0.24238589  1
  O  O358  1  0.25893700  0.61501772  0.75370740  1
  O  O359  1  0.75347091  0.11307622  0.25307827  1
  O  O360  1  0.75809161  0.12566152  0.76194620  1
  O  O361  1  0.75641213  0.61941964  0.25712774  1
  O  O362  1  0.75897012  0.61715646  0.75627373  1
  O  O363  1  0.36855705  0.11751965  0.36709533  1
  O  O364  1  0.37948001  0.11575070  0.87642016  1
  O  O365  1  0.38520629  0.61565369  0.36465892  1
  O  O366  1  0.36798440  0.62042296  0.86273393  1
  O  O367  1  0.86069427  0.11220275  0.36274172  1
  O  O368  1  0.86506021  0.12978836  0.86969501  1
  O  O369  1  0.86675653  0.61727914  0.37002270  1
  O  O370  1  0.86969931  0.62140609  0.86883280  1
  O  O371  1  0.13394083  0.37747003  0.13245065  1
  O  O372  1  0.13215791  0.38128827  0.63053867  1
  O  O373  1  0.12283797  0.88597577  0.13313145  1
  O  O374  1  0.12833146  0.87325242  0.62895971  1
  O  O375  1  0.63808755  0.38192262  0.12094401  1
  O  O376  1  0.62484024  0.39450181  0.61683007  1
  O  O377  1  0.63141519  0.88069489  0.13206625  1
  O  O378  1  0.63498142  0.87421956  0.62542054  1
  O  O379  1  0.12539323  0.26468218  0.24208187  1
  O  O380  1  0.11783723  0.25379088  0.75928443  1
  O  O381  1  0.12191394  0.75622713  0.25471161  1
  O  O382  1  0.12913871  0.75332362  0.76348484  1
  O  O383  1  0.61521982  0.24790557  0.25758056  1
  O  O384  1  0.61152759  0.24955048  0.74801618  1
  O  O385  1  0.62971321  0.76093750  0.24906739  1
  O  O386  1  0.61525659  0.74767016  0.75444722  1
  O  O387  1  0.38611373  0.24478325  0.24540586  1
  O  O388  1  0.37990220  0.25299485  0.73572941  1
  O  O389  1  0.37171984  0.74516335  0.23521582  1
  O  O390  1  0.37815686  0.74480990  0.73869785  1
  O  O391  1  0.85563313  0.23568782  0.23330124  1
  O  O392  1  0.88441706  0.24407473  0.75287332  1
  O  O393  1  0.88372856  0.73918301  0.25932167  1
  O  O394  1  0.86679583  0.73887000  0.73653869  1
  O  O395  1  0.37317196  0.48901439  0.49376977  1
  O  O396  1  0.38446775  0.48810611  1.00115832  1
  O  O397  1  0.38298097  1.00465386  0.48559238  1
  O  O398  1  0.38368625  0.99201039  0.99805618  1
  O  O399  1  0.88282420  0.50060019  0.49754439  1
  O  O400  1  0.88053842  0.49507007  0.99456491  1
  O  O401  1  0.87350480  0.99919808  0.48199153  1
  O  O402  1  0.88205701  0.99193529  1.00885054  1
  O  O403  1  0.11748595  0.00801301  0.00667801  1
  O  O404  1  0.11949934  0.00176474  0.49589166  1
  O  O405  1  0.10998350  0.49478799  0.00167465  1
  O  O406  1  0.12106387  0.50459321  0.50091111  1
  O  O407  1  0.61998366  0.00842117  0.00678911  1
  O  O408  1  0.61284856  0.00036074  0.50161719  1
  O  O409  1  0.62232963  0.50734075  0.00809756  1
  O  O410  1  0.62787692  0.51360978  0.51294103  1
  O  O411  1  0.37104600  0.37208750  0.11853041  1
  O  O412  1  0.37247322  0.36916225  0.61671051  1
  O  O413  1  0.38081199  0.86194199  0.12016227  1
  O  O414  1  0.37252256  0.86292319  0.62941291  1
  O  O415  1  0.86501872  0.36911763  0.12183249  1
  O  O416  1  0.87405789  0.37863776  0.61652723  1
  O  O417  1  0.85920160  0.87819156  0.11937494  1
  O  O418  1  0.86422601  0.85776195  0.62963841  1
  O  O419  1  0.14034382  0.12294828  0.37007131  1
  O  O420  1  0.12258157  0.13374071  0.88360742  1
  O  O421  1  0.12587703  0.63516931  0.38147994  1
  O  O422  1  0.14493328  0.62091422  0.87126022  1
  O  O423  1  0.63567809  0.13506277  0.36906248  1
  O  O424  1  0.63142588  0.12162732  0.88837537  1
  O  O425  1  0.63394874  0.61592828  0.38834353  1
  O  O426  1  0.63023687  0.62957512  0.88152977  1
