# generated using pymatgen
data_V85Zn86O256
_symmetry_space_group_name_H-M   'P 1'
_cell_length_a   16.97587136
_cell_length_b   17.00586104
_cell_length_c   16.98467323
_cell_angle_alpha   89.89456170
_cell_angle_beta   89.89575560
_cell_angle_gamma   89.94962241
_symmetry_Int_Tables_number   1
_chemical_formula_structural   V85Zn86O256
_chemical_formula_sum   'V85 Zn86 O256'
_cell_volume   4903.27528543
_cell_formula_units_Z   1
loop_
 _symmetry_equiv_pos_site_id
 _symmetry_equiv_pos_as_xyz
  1  'x, y, z'
loop_
 _atom_site_type_symbol
 _atom_site_label
 _atom_site_symmetry_multiplicity
 _atom_site_fract_x
 _atom_site_fract_y
 _atom_site_fract_z
 _atom_site_occupancy
  V  V0  1  0.50167968  0.00078452  0.50200621  1
  V  V1  1  0.50006426  0.12150834  0.62608220  1
  V  V2  1  0.74425068  0.88515349  0.62655281  1
  V  V3  1  0.87151074  0.50550989  0.87646772  1
  V  V4  1  0.49849871  0.62483509  0.61907934  1
  V  V5  1  0.62336490  0.37156082  0.75826683  1
  V  V6  1  0.75070896  0.12895517  0.37312660  1
  V  V7  1  0.25249929  0.50621926  0.25344412  1
  V  V8  1  0.00005533  0.74933107  0.75163781  1
  V  V9  1  0.51206429  0.50951744  0.00050530  1
  V  V10  1  0.86501051  0.87795250  -0.00089665  1
  V  V11  1  0.50197092  0.87355668  0.87433859  1
  V  V12  1  0.62417392  0.25383723  0.36530320  1
  V  V13  1  0.37365001  0.12420660  0.75003079  1
  V  V14  1  0.12339439  0.25056670  0.37276144  1
  V  V15  1  0.62803371  0.73543069  0.87576329  1
  V  V16  1  0.62543638  0.12282119  0.50550947  1
  V  V17  1  0.50140708  0.24917087  0.75692981  1
  V  V18  1  0.24781777  0.12579439  0.87939646  1
  V  V19  1  0.86498732  0.00269385  0.85605235  1
  V  V20  1  0.24818769  0.37070495  0.62694585  1
  V  V21  1  0.49817245  0.75311717  0.24784146  1
  V  V22  1  0.87028668  0.50397124  0.36444438  1
  V  V23  1  0.37254272  0.50316127  0.37880828  1
  V  V24  1  0.89760355  0.25865613  0.13780115  1
  V  V25  1  0.00116702  0.76934859  0.25559729  1
  V  V26  1  0.87439271  0.24877982  0.62653297  1
  V  V27  1  -0.00059974  0.37374284  0.37345360  1
  V  V28  1  0.37496255  0.62832279  0.25344996  1
  V  V29  1  0.62778439  0.88109439  0.74448663  1
  V  V30  1  0.12366793  0.37298119  0.25001749  1
  V  V31  1  -0.00012721  -0.00283205  0.49956754  1
  V  V32  1  0.12408165  0.37377127  0.74972846  1
  V  V33  1  0.87016532  0.74748114  0.12632487  1
  V  V34  1  0.74673462  0.73254887  -0.00504420  1
  V  V35  1  0.37663749  0.00498525  0.36189935  1
  V  V36  1  0.12626144  -0.00632052  0.62803250  1
  V  V37  1  0.49625849  0.37089773  0.88501401  1
  V  V38  1  0.74968936  0.50740914  0.75488291  1
  V  V39  1  0.37314671  0.49468010  0.88372717  1
  V  V40  1  0.00083023  0.37761676  0.87693034  1
  V  V41  1  0.50169776  0.37189768  0.37209603  1
  V  V42  1  0.74823918  0.25044167  0.50217584  1
  V  V43  1  -0.00001863  0.62413557  0.62197347  1
  V  V44  1  0.00125392  0.87792967  0.88071599  1
  V  V45  1  0.37427228  0.62381763  0.75124367  1
  V  V46  1  0.75176532  -0.00461348  0.24668035  1
  V  V47  1  0.62432313  0.75307297  0.37286869  1
  V  V48  1  0.12488119  0.12386405  0.49890743  1
  V  V49  1  0.13586105  0.75892773  0.37655709  1
  V  V50  1  0.24687705  -0.00599556  0.74988802  1
  V  V51  1  0.50067263  0.87783845  0.37369284  1
  V  V52  1  0.87406583  0.74812492  0.62441534  1
  V  V53  1  0.37422386  0.24641360  0.62586266  1
  V  V54  1  0.10463425  0.12395902  0.00511629  1
  V  V55  1  0.75302567  0.62324909  0.36004907  1
  V  V56  1  0.23662839  0.00142741  0.24226349  1
  V  V57  1  0.87417278  0.37747566  0.49983978  1
  V  V58  1  0.12682688  0.50183372  0.12726580  1
  V  V59  1  0.73789430  0.37066723  0.14057635  1
  V  V60  1  0.37602702  0.87544505  0.00253875  1
  V  V61  1  0.74902047  0.37380863  0.62701175  1
  V  V62  1  0.12410310  0.49957691  0.62238478  1
  V  V63  1  0.37562463  0.23397213  0.13157873  1
  V  V64  1  -0.00526243  0.12427753  0.63134145  1
  V  V65  1  0.50128030  0.74838680  0.74894508  1
  V  V66  1  0.26519590  0.37725392  0.12403785  1
  V  V67  1  0.36125029  0.75535622  0.61910555  1
  V  V68  1  0.52049308  0.11431413  0.12523430  1
  V  V69  1  0.24960683  0.62523154  0.87764807  1
  V  V70  1  0.62295932  0.50046274  0.62471584  1
  V  V71  1  0.25422342  0.12660570  0.36385028  1
  V  V72  1  0.25580212  0.25565943  -0.00006172  1
  V  V73  1  0.25032698  0.24505849  0.50012027  1
  V  V74  1  0.87788720  0.00098445  0.37704764  1
  V  V75  1  0.89167480  0.13348594  0.25416356  1
  V  V76  1  0.74881673  0.74721182  0.49939911  1
  V  V77  1  0.12474084  0.62668190  0.00253345  1
  V  V78  1  -0.00486887  0.24913839  0.75038073  1
  V  V79  1  0.87269295  0.37379130  0.00386066  1
  V  V80  1  -0.00321330  0.62608989  0.13610460  1
  V  V81  1  0.37383851  0.37265735  0.50166669  1
  V  V82  1  0.37547212  -0.00169063  0.87513137  1
  V  V83  1  0.87639964  0.87440712  0.49709859  1
  V  V84  1  0.23598980  0.88015632  0.12489324  1
  Zn  Zn85  1  0.13501485  0.62972979  0.49125735  1
  Zn  Zn86  1  -0.00147841  0.50324996  0.00253268  1
  Zn  Zn87  1  0.63021389  0.87912054  0.23987104  1
  Zn  Zn88  1  0.12869990  0.87062175  0.74907563  1
  Zn  Zn89  1  -0.00205873  0.50348888  0.49753998  1
  Zn  Zn90  1  0.51202651  0.00302554  -0.00250306  1
  Zn  Zn91  1  0.49831241  0.49566779  0.50272903  1
  Zn  Zn92  1  0.08316405  0.00473264  0.12055428  1
  Zn  Zn93  1  0.24929297  0.75265476  0.00339318  1
  Zn  Zn94  1  0.25050568  0.49615863  0.75272308  1
  Zn  Zn95  1  0.64715985  0.51449356  0.15930034  1
  Zn  Zn96  1  0.36094439  0.86857618  0.49613936  1
  Zn  Zn97  1  0.12250066  0.25008410  0.87735891  1
  Zn  Zn98  1  0.50851161  0.62858258  0.11992076  1
  Zn  Zn99  1  0.37112165  0.75012022  0.12571269  1
  Zn  Zn100  1  0.62358406  0.62298881  0.49695521  1
  Zn  Zn101  1  0.12591468  0.74984216  0.87517410  1
  Zn  Zn102  1  0.66789849  0.11744514  -0.02861347  1
  Zn  Zn103  1  0.75235618  0.24450910  -0.00449281  1
  Zn  Zn104  1  0.66255540  -0.01575582  0.09334408  1
  Zn  Zn105  1  0.87101833  0.62740737  0.75531289  1
  Zn  Zn106  1  0.49597668  0.24263661  0.25126662  1
  Zn  Zn107  1  0.18153841  0.18874430  0.18211676  1
  Zn  Zn108  1  0.18305545  0.18326360  0.68874941  1
  Zn  Zn109  1  0.18353969  0.69410886  0.19147356  1
  Zn  Zn110  1  0.18511057  0.68284570  0.68993826  1
  Zn  Zn111  1  0.73613437  0.15380077  0.14100211  1
  Zn  Zn112  1  0.68487583  0.18483766  0.69205147  1
  Zn  Zn113  1  0.68456008  0.69430044  0.18161132  1
  Zn  Zn114  1  0.68529527  0.69062492  0.68719952  1
  Zn  Zn115  1  0.31331883  0.31601997  0.31024145  1
  Zn  Zn116  1  0.31410095  0.31173876  0.81363897  1
  Zn  Zn117  1  0.31172832  0.82326325  0.30620400  1
  Zn  Zn118  1  0.31510911  0.80945979  0.81259382  1
  Zn  Zn119  1  0.81063328  0.31551861  0.31292352  1
  Zn  Zn120  1  0.80906155  0.31415157  0.81489065  1
  Zn  Zn121  1  0.81740707  0.81040786  0.31276068  1
  Zn  Zn122  1  0.81023568  0.81240245  0.81225699  1
  Zn  Zn123  1  0.18889317  0.43768560  0.43993155  1
  Zn  Zn124  1  0.18645699  0.43863447  0.94069026  1
  Zn  Zn125  1  0.18761905  0.93107104  0.43447740  1
  Zn  Zn126  1  0.18254616  0.94171313  0.94306053  1
  Zn  Zn127  1  0.68809928  0.43807180  0.43437954  1
  Zn  Zn128  1  0.68990942  0.43624363  0.94135105  1
  Zn  Zn129  1  0.68915408  0.93832793  0.43525609  1
  Zn  Zn130  1  0.69049546  0.93053559  0.92460015  1
  Zn  Zn131  1  0.31067778  0.06007334  0.05892562  1
  Zn  Zn132  1  0.29821798  0.03238941  0.54449250  1
  Zn  Zn133  1  0.31853522  0.56375160  0.06667313  1
  Zn  Zn134  1  0.31070409  0.55978608  0.56790970  1
  Zn  Zn135  1  0.87920323  0.06819112  0.05862015  1
  Zn  Zn136  1  0.81211680  0.06459264  0.56369492  1
  Zn  Zn137  1  0.81127052  0.55756665  0.06866366  1
  Zn  Zn138  1  0.81233258  0.56169206  0.56061180  1
  Zn  Zn139  1  0.47159544  0.45176358  0.20247352  1
  Zn  Zn140  1  0.43514343  0.43555434  0.69246123  1
  Zn  Zn141  1  0.43608559  0.93813766  0.18458140  1
  Zn  Zn142  1  0.43795997  0.93571956  0.68772956  1
  Zn  Zn143  1  0.93915792  0.44135681  0.18849527  1
  Zn  Zn144  1  0.93566314  0.43774259  0.68901122  1
  Zn  Zn145  1  0.92940927  0.93770233  0.18230695  1
  Zn  Zn146  1  0.93742849  0.93110153  0.68540571  1
  Zn  Zn147  1  0.06679635  0.05621366  0.31510836  1
  Zn  Zn148  1  0.05957548  0.06248087  0.81719382  1
  Zn  Zn149  1  0.06290360  0.56723445  0.31715565  1
  Zn  Zn150  1  0.06223876  0.56220121  0.81047301  1
  Zn  Zn151  1  0.56638729  0.06887271  0.30981472  1
  Zn  Zn152  1  0.56297300  0.05907310  0.81015906  1
  Zn  Zn153  1  0.56170701  0.56663486  0.31660558  1
  Zn  Zn154  1  0.55759410  0.55778161  0.81070395  1
  Zn  Zn155  1  0.43695813  0.18523071  0.43804030  1
  Zn  Zn156  1  0.43757460  0.18487748  0.94442305  1
  Zn  Zn157  1  0.30740605  0.68541047  0.43753797  1
  Zn  Zn158  1  0.43680120  0.68900856  0.93669657  1
  Zn  Zn159  1  0.93902714  0.18935228  0.44024104  1
  Zn  Zn160  1  0.90823824  0.19707621  0.92404563  1
  Zn  Zn161  1  0.93932872  0.68571055  0.43315578  1
  Zn  Zn162  1  0.93846620  0.68893704  0.94166840  1
  Zn  Zn163  1  0.07003854  0.31392717  0.05976172  1
  Zn  Zn164  1  0.06141768  0.31257443  0.55952084  1
  Zn  Zn165  1  0.05907060  0.81090180  0.06339036  1
  Zn  Zn166  1  0.06439827  0.81134301  0.55981424  1
  Zn  Zn167  1  0.57217579  0.29145598  0.05429508  1
  Zn  Zn168  1  0.56160412  0.31042860  0.56334091  1
  Zn  Zn169  1  0.56852476  0.81574192  0.06180905  1
  Zn  Zn170  1  0.55811418  0.81248344  0.56139780  1
  O  O171  1  0.12141642  0.12681673  0.10916091  1
  O  O172  1  0.11356696  0.11679361  0.61952452  1
  O  O173  1  0.11957810  0.62215364  0.12031764  1
  O  O174  1  0.11649864  0.61481725  0.62610668  1
  O  O175  1  0.62195308  0.11194519  0.12424141  1
  O  O176  1  0.61907912  0.12886013  0.61347456  1
  O  O177  1  0.61989343  0.62028737  0.13154035  1
  O  O178  1  0.61711698  0.61522383  0.62757447  1
  O  O179  1  0.37900502  0.38074290  0.38324851  1
  O  O180  1  0.38359178  0.38373601  0.86996729  1
  O  O181  1  0.38396982  0.88572296  0.37614969  1
  O  O182  1  0.38080090  0.87800894  0.88155830  1
  O  O183  1  0.88097658  0.38185465  0.37982539  1
  O  O184  1  0.88497069  0.38631768  0.88359831  1
  O  O185  1  0.86915719  0.88590620  0.38932299  1
  O  O186  1  0.88396589  0.87489577  0.87898684  1
  O  O187  1  0.25456566  0.00869363  0.36052457  1
  O  O188  1  0.25263430  0.00930586  0.86971519  1
  O  O189  1  0.26061008  0.48986925  0.36370234  1
  O  O190  1  0.25605171  0.50644709  0.87602817  1
  O  O191  1  0.76294044  0.00918827  0.37529715  1
  O  O192  1  0.76556556  -0.00766998  0.86730680  1
  O  O193  1  0.75566981  0.51157943  0.38056129  1
  O  O194  1  0.75931559  0.49154724  0.86545049  1
  O  O195  1  0.24864472  0.49446783  0.13271673  1
  O  O196  1  0.24053759  0.48937983  0.63038499  1
  O  O197  1  0.25326523  0.99472530  0.13222831  1
  O  O198  1  0.23683612  1.01651719  0.64221872  1
  O  O199  1  0.74844315  0.47976346  0.12178829  1
  O  O200  1  0.74234498  0.49395710  0.63373837  1
  O  O201  1  0.76418894  1.00505415  0.14591589  1
  O  O202  1  0.75125530  0.98432757  0.61567656  1
  O  O203  1  0.01388618  0.38514883  0.26182560  1
  O  O204  1  0.00455796  0.36907659  0.75612569  1
  O  O205  1  -0.00269750  0.86806217  0.24412640  1
  O  O206  1  0.00074582  0.86215458  0.75844357  1
  O  O207  1  0.48466123  0.36020182  0.27018020  1
  O  O208  1  0.50471824  0.36763195  0.75897143  1
  O  O209  1  0.49863981  0.87103612  0.25935213  1
  O  O210  1  0.50629735  0.86686650  0.75392754  1
  O  O211  1  0.50552140  0.12753016  0.23212095  1
  O  O212  1  0.49509522  0.13120990  0.74730265  1
  O  O213  1  0.48857706  0.64068410  0.25712203  1
  O  O214  1  0.49360048  0.62813903  0.74140552  1
  O  O215  1  0.99026637  0.12386961  0.26369881  1
  O  O216  1  1.00715011  0.13566232  0.74072801  1
  O  O217  1  1.00234722  0.63144348  0.23805540  1
  O  O218  1  0.99866611  0.63300410  0.74049095  1
  O  O219  1  0.36279028  0.24739468  0.01278837  1
  O  O220  1  0.36867357  0.25196914  0.50633821  1
  O  O221  1  0.37338187  0.76215155  0.00198158  1
  O  O222  1  0.36788281  0.75087309  0.51385665  1
  O  O223  1  0.89111094  0.26577015  0.02271406  1
  O  O224  1  0.86789123  0.25653297  0.50618226  1
  O  O225  1  0.86348443  0.75342414  0.00168078  1
  O  O226  1  0.86850752  0.75757609  0.50160017  1
  O  O227  1  0.13080860  0.24355282  0.49418202  1
  O  O228  1  0.13701703  0.24058088  0.99855738  1
  O  O229  1  0.11908186  0.75146346  0.48282519  1
  O  O230  1  0.12687733  0.73716369  0.99865983  1
  O  O231  1  0.63046580  0.24077880  0.49769037  1
  O  O232  1  0.63812037  0.22762707  0.99014123  1
  O  O233  1  0.63206539  0.75149215  0.48859627  1
  O  O234  1  0.63921852  0.75287181  0.99184529  1
  O  O235  1  0.48693972  0.23861485  0.12258132  1
  O  O236  1  0.49371223  0.24374609  0.63542731  1
  O  O237  1  0.49956825  0.75414229  0.13952732  1
  O  O238  1  0.49470086  0.73989847  0.62944313  1
  O  O239  1  0.99672179  0.26856661  0.13701840  1
  O  O240  1  0.99630163  0.24296529  0.62976779  1
  O  O241  1  0.99407434  0.74506013  0.13427649  1
  O  O242  1  0.99595616  0.74406425  0.63168047  1
  O  O243  1  0.00680663  0.26433883  0.38139654  1
  O  O244  1  -0.00339625  0.26267096  0.86589284  1
  O  O245  1  -0.00827429  0.75414856  0.35754798  1
  O  O246  1  -0.00037560  0.75409702  0.86514298  1
  O  O247  1  0.50676293  0.25386189  0.37791449  1
  O  O248  1  0.48852814  0.25516110  0.86442873  1
  O  O249  1  0.51060859  0.76384169  0.36603767  1
  O  O250  1  0.50655125  0.75438023  0.86947635  1
  O  O251  1  0.24389856  0.12580067  0.48820285  1
  O  O252  1  0.24830701  0.13293910  0.98987772  1
  O  O253  1  0.24607871  0.61791596  0.50049784  1
  O  O254  1  0.24373129  0.62518306  0.99492621  1
  O  O255  1  0.74341341  0.13017186  0.49581024  1
  O  O256  1  0.77151716  0.12445100  1.03139682  1
  O  O257  1  0.74723478  0.63825179  0.49662967  1
  O  O258  1  0.75395556  0.63416655  0.99948613  1
  O  O259  1  0.24158427  0.36532572  0.01054418  1
  O  O260  1  0.25381930  0.36515083  0.50681384  1
  O  O261  1  0.25765930  0.87645523  0.00549621  1
  O  O262  1  0.26538983  0.92478503  0.51120733  1
  O  O263  1  0.76495288  0.37284820  0.00335596  1
  O  O264  1  0.75331282  0.36928157  0.50756543  1
  O  O265  1  0.76243017  0.86324954  -0.00721518  1
  O  O266  1  0.75484464  0.86545401  0.50450032  1
  O  O267  1  0.13527997  0.49549939  0.24849430  1
  O  O268  1  0.12476560  0.49229042  0.73917032  1
  O  O269  1  0.13167529  1.00567882  0.23720219  1
  O  O270  1  0.12962600  0.99938441  0.74501142  1
  O  O271  1  0.57558169  0.48887228  0.23975134  1
  O  O272  1  0.63006025  0.49178389  0.74382068  1
  O  O273  1  0.64841697  1.00381939  0.26027862  1
  O  O274  1  0.61993262  0.97991787  0.75068623  1
  O  O275  1  0.36765279  -0.00054574  0.25881274  1
  O  O276  1  0.36649744  0.00443136  0.75451584  1
  O  O277  1  0.37256542  0.50817592  0.25830616  1
  O  O278  1  0.37403242  0.50599054  0.76222317  1
  O  O279  1  0.87224880  0.00695145  0.26471964  1
  O  O280  1  0.87796911  -0.00682679  0.75569378  1
  O  O281  1  0.87573814  0.49683872  0.26536395  1
  O  O282  1  0.86547368  0.49909546  0.75790238  1
  O  O283  1  0.11959380  0.37230978  0.36995330  1
  O  O284  1  0.11615364  0.37511611  0.87044438  1
  O  O285  1  0.12452898  0.86128287  0.37426568  1
  O  O286  1  0.11168239  0.87169032  0.87774153  1
  O  O287  1  0.61202509  0.36672556  0.38707739  1
  O  O288  1  0.61650976  0.38019203  0.86290678  1
  O  O289  1  0.61921366  0.86953069  0.37139540  1
  O  O290  1  0.61986254  0.86124719  0.86425683  1
  O  O291  1  0.37046846  0.13392538  0.12626515  1
  O  O292  1  0.38144652  0.12966665  0.63286057  1
  O  O293  1  0.38386083  0.62854007  0.13852816  1
  O  O294  1  0.38046999  0.63225212  0.63143042  1
  O  O295  1  0.88213633  0.15171811  0.14012759  1
  O  O296  1  0.88681331  0.13130177  0.61981498  1
  O  O297  1  0.88590702  0.63543327  0.11546246  1
  O  O298  1  0.88370591  0.62947526  0.62616793  1
  O  O299  1  0.25867454  0.25642721  0.11992719  1
  O  O300  1  0.25302219  0.25015910  0.62043612  1
  O  O301  1  0.24903128  0.76484822  0.12619671  1
  O  O302  1  0.26324550  0.74812859  0.63691640  1
  O  O303  1  0.76972990  0.26653287  0.12264287  1
  O  O304  1  0.75411371  0.25256687  0.62413584  1
  O  O305  1  0.75955120  0.74619474  0.11004811  1
  O  O306  1  0.75431751  0.75321585  0.61414090  1
  O  O307  1  0.24592886  0.24403226  0.37922683  1
  O  O308  1  0.25074075  0.24318688  0.88290619  1
  O  O309  1  0.24218334  0.75455905  0.36907315  1
  O  O310  1  0.24871918  0.73649135  0.87707623  1
  O  O311  1  0.74360993  0.24853280  0.38315305  1
  O  O312  1  0.80381631  0.23900801  0.89358249  1
  O  O313  1  0.74499301  0.74557310  0.38064664  1
  O  O314  1  0.74408828  0.74791490  0.88509569  1
  O  O315  1  0.00804324  0.13965654  -0.00866397  1
  O  O316  1  0.00406710  0.11732104  0.50933781  1
  O  O317  1  0.01087417  0.62563348  0.00961324  1
  O  O318  1  0.00255420  0.62634746  0.51346202  1
  O  O319  1  0.49802682  0.12210179  0.01704881  1
  O  O320  1  0.50825828  0.12056670  0.50511181  1
  O  O321  1  0.49778671  0.61339428  -0.00204257  1
  O  O322  1  0.50313294  0.61786458  0.51615653  1
  O  O323  1  0.49073989  0.37333818  0.49480147  1
  O  O324  1  0.50859425  0.37354807  0.98605936  1
  O  O325  1  0.49978635  0.88428358  0.48871163  1
  O  O326  1  0.49227908  0.87778498  0.99313836  1
  O  O327  1  0.99369488  0.37760210  0.49074746  1
  O  O328  1  0.99820564  0.37946932  0.99096485  1
  O  O329  1  0.98702925  0.88680385  0.51074609  1
  O  O330  1  0.98773354  0.86049277  0.98427647  1
  O  O331  1  0.48680345  0.49137024  0.38100796  1
  O  O332  1  0.49309664  0.49155521  0.88356147  1
  O  O333  1  0.49640655  0.99545679  0.37340867  1
  O  O334  1  0.49241510  0.99325450  0.87416419  1
  O  O335  1  0.99265380  0.49303888  0.37813019  1
  O  O336  1  0.99350282  0.49036215  0.87298960  1
  O  O337  1  0.99148716  1.00571281  0.38984085  1
  O  O338  1  0.99508407  0.97951815  0.86828317  1
  O  O339  1  -0.02919246  0.01475843  0.11530960  1
  O  O340  1  0.00432252  0.00725037  0.61997124  1
  O  O341  1  0.00733690  0.50983892  0.12541520  1
  O  O342  1  0.00592848  0.50745249  0.62604029  1
  O  O343  1  0.49699276  0.01248919  0.12257786  1
  O  O344  1  0.49230767  0.00559208  0.61184753  1
  O  O345  1  0.48837440  0.49408266  0.09870327  1
  O  O346  1  0.50705287  0.50443555  0.62973181  1
  O  O347  1  0.24423108  0.38628869  0.24311318  1
  O  O348  1  0.24195666  0.37195852  0.74511745  1
  O  O349  1  0.25014722  0.88893256  0.23626070  1
  O  O350  1  0.24776110  0.88988440  0.76075547  1
  O  O351  1  0.74452329  0.37243312  0.24073599  1
  O  O352  1  0.74129610  0.37991001  0.74693984  1
  O  O353  1  0.75585756  0.89199606  0.25956355  1
  O  O354  1  0.74049147  0.86340907  0.73673013  1
  O  O355  1  0.24151811  0.12060786  0.25781720  1
  O  O356  1  0.25213840  0.12117079  0.76296546  1
  O  O357  1  0.25803574  0.61408676  0.24198091  1
  O  O358  1  0.25397628  0.62017169  0.76249799  1
  O  O359  1  0.76775471  0.11745461  0.25608042  1
  O  O360  1  0.71242081  0.12777672  0.79014108  1
  O  O361  1  0.74818507  0.63411816  0.26181549  1
  O  O362  1  0.75036482  0.61096718  0.74439682  1
  O  O363  1  0.36355910  0.11988972  0.37506088  1
  O  O364  1  0.36712470  0.11943654  0.87092002  1
  O  O365  1  0.37038291  0.61421136  0.36550703  1
  O  O366  1  0.36694981  0.61758510  0.87174428  1
  O  O367  1  0.87128821  0.12082235  0.37478329  1
  O  O368  1  0.89186208  0.09653430  0.87653662  1
  O  O369  1  0.86465343  0.61562687  0.38220402  1
  O  O370  1  0.88507196  0.60894581  0.87567572  1
  O  O371  1  0.13307326  0.38258244  0.13443951  1
  O  O372  1  0.12739123  0.37988312  0.62927347  1
  O  O373  1  0.13216261  0.88836256  0.10873588  1
  O  O374  1  0.11731580  0.89047708  0.62737861  1
  O  O375  1  0.63958889  0.36164551  0.11847461  1
  O  O376  1  0.62739652  0.38256097  0.63461346  1
  O  O377  1  0.62203517  0.88669158  0.12838701  1
  O  O378  1  0.63247230  0.86463437  0.63151981  1
  O  O379  1  0.13481295  0.26620613  0.25589109  1
  O  O380  1  0.11270930  0.25587267  0.75138337  1
  O  O381  1  0.10963317  0.75173509  0.25925453  1
  O  O382  1  0.11481060  0.75146785  0.75202791  1
  O  O383  1  0.62449299  0.24706612  0.26748824  1
  O  O384  1  0.61105806  0.26187020  0.74272179  1
  O  O385  1  0.61878883  0.75604448  0.25941214  1
  O  O386  1  0.61906991  0.75427661  0.75671673  1
  O  O387  1  0.37071144  0.25031809  0.23422566  1
  O  O388  1  0.38213124  0.24413657  0.74529546  1
  O  O389  1  0.38089825  0.74534098  0.25240790  1
  O  O390  1  0.38206322  0.74277703  0.74400971  1
  O  O391  1  0.87818680  0.24903607  0.24680191  1
  O  O392  1  0.88888168  0.25966123  0.74120128  1
  O  O393  1  0.88421285  0.75735543  0.23598228  1
  O  O394  1  0.88248352  0.74699917  0.74391434  1
  O  O395  1  0.37298181  0.49141968  0.49389616  1
  O  O396  1  0.37990430  0.50286166  0.98667060  1
  O  O397  1  0.39486941  1.00934907  0.48138923  1
  O  O398  1  0.37474140  0.98906620  0.99174401  1
  O  O399  1  0.87548257  0.49214298  0.49328883  1
  O  O400  1  0.87789835  0.49116421  0.99447267  1
  O  O401  1  0.88088253  0.99528069  0.49578041  1
  O  O402  1  0.87256582  0.97834044  0.98551964  1
  O  O403  1  0.12048798  0.01973384  -0.00023378  1
  O  O404  1  0.11483327  0.00439734  0.50659650  1
  O  O405  1  0.12445768  0.51111240  0.00860939  1
  O  O406  1  0.12159140  0.49786556  0.51357649  1
  O  O407  1  0.63055643  0.00807370  -0.01423361  1
  O  O408  1  0.61423878  0.01226428  0.48811223  1
  O  O409  1  0.61185827  0.49889973  -0.00502302  1
  O  O410  1  0.62449068  0.50004420  0.51520069  1
  O  O411  1  0.36438454  0.37047965  0.12892548  1
  O  O412  1  0.36887580  0.36734124  0.62298400  1
  O  O413  1  0.36699770  0.87545106  0.11459518  1
  O  O414  1  0.38231793  0.85695057  0.62539889  1
  O  O415  1  0.87325447  0.37300733  0.12371643  1
  O  O416  1  0.86873685  0.37009190  0.62017217  1
  O  O417  1  0.87999811  0.86125003  0.10519599  1
  O  O418  1  0.86566631  0.86779410  0.61509117  1
  O  O419  1  0.13287968  0.12998653  0.37934733  1
  O  O420  1  0.13233158  0.12812699  0.88364746  1
  O  O421  1  0.11703224  0.64624848  0.37543558  1
  O  O422  1  0.13268640  0.62128287  0.88414877  1
  O  O423  1  0.63043968  0.13514913  0.38546595  1
  O  O424  1  0.65034947  0.12952233  0.84353158  1
  O  O425  1  0.63218985  0.63517339  0.37747572  1
  O  O426  1  0.61817449  0.63668768  0.86719119  1
