# generated using pymatgen
data_V85Zn86O256
_symmetry_space_group_name_H-M   'P 1'
_cell_length_a   16.96612666
_cell_length_b   16.97469119
_cell_length_c   16.94653259
_cell_angle_alpha   90.03139475
_cell_angle_beta   89.88846985
_cell_angle_gamma   89.91989912
_symmetry_Int_Tables_number   1
_chemical_formula_structural   V85Zn86O256
_chemical_formula_sum   'V85 Zn86 O256'
_cell_volume   4880.49784199
_cell_formula_units_Z   1
loop_
 _symmetry_equiv_pos_site_id
 _symmetry_equiv_pos_as_xyz
  1  'x, y, z'
loop_
 _atom_site_type_symbol
 _atom_site_label
 _atom_site_symmetry_multiplicity
 _atom_site_fract_x
 _atom_site_fract_y
 _atom_site_fract_z
 _atom_site_occupancy
  V  V0  1  0.61828577  0.26907632  0.87209557  1
  V  V1  1  0.12910659  0.12412463  -0.00176003  1
  V  V2  1  0.74486727  0.87119408  0.62276195  1
  V  V3  1  0.12193859  0.50188665  0.61969167  1
  V  V4  1  0.00031464  0.86915048  0.86700131  1
  V  V5  1  0.00731921  0.75129345  0.25455340  1
  V  V6  1  0.25268179  0.25003076  -0.00331342  1
  V  V7  1  0.00283321  0.87530796  0.37634830  1
  V  V8  1  0.87500330  0.75078639  0.62565099  1
  V  V9  1  -0.00196571  0.62486882  0.12423530  1
  V  V10  1  0.62542450  0.12907495  -0.00287988  1
  V  V11  1  0.87202998  0.62741316  0.25139452  1
  V  V12  1  0.25349982  0.51241491  0.75328429  1
  V  V13  1  0.12611036  0.24737393  0.87117339  1
  V  V14  1  0.87834070  0.12323953  0.74271776  1
  V  V15  1  0.75111811  0.50233468  0.25175208  1
  V  V16  1  0.75000290  0.37679881  0.63033429  1
  V  V17  1  0.12660927  0.00108307  0.12661863  1
  V  V18  1  0.87572501  0.49609850  0.87712976  1
  V  V19  1  0.12935045  0.86865977  0.74599956  1
  V  V20  1  0.25102830  0.50201184  0.24526943  1
  V  V21  1  0.37146202  0.73997290  0.63354752  1
  V  V22  1  -0.00139253  0.49658641  -0.00148059  1
  V  V23  1  0.50139414  -0.00242204  -0.00643146  1
  V  V24  1  0.37822266  0.50310600  0.37459622  1
  V  V25  1  0.37238941  0.12592638  0.26243423  1
  V  V26  1  0.62563788  0.00197392  0.12788487  1
  V  V27  1  0.51161294  0.74089134  0.76060068  1
  V  V28  1  0.87522063  0.75183241  0.12554743  1
  V  V29  1  0.62301644  0.37460306  0.25198394  1
  V  V30  1  0.00089514  0.00007022  -0.00059304  1
  V  V31  1  0.13203016  0.24605830  0.37279687  1
  V  V32  1  0.61846744  0.49631472  0.62731236  1
  V  V33  1  0.25181422  0.37625440  0.12180417  1
  V  V34  1  0.61528736  0.00017118  0.62576596  1
  V  V35  1  0.86936606  0.24928769  0.62078641  1
  V  V36  1  0.12486793  0.37215371  0.24698489  1
  V  V37  1  0.76244268  0.00873671  0.25779393  1
  V  V38  1  0.74786885  -0.00289474  0.75051538  1
  V  V39  1  -0.00410279  0.37093387  0.87784559  1
  V  V40  1  0.74925946  0.63279806  0.38540018  1
  V  V41  1  -0.00943924  0.00890936  0.49843093  1
  V  V42  1  0.62587483  0.63022279  -0.00218907  1
  V  V43  1  0.50207803  0.75565817  0.25954263  1
  V  V44  1  0.74925019  0.62939801  0.87502089  1
  V  V45  1  0.12666163  0.49862477  0.12090700  1
  V  V46  1  0.62121416  0.87798142  0.25952370  1
  V  V47  1  0.76139840  0.25499275  0.00233950  1
  V  V48  1  0.50300485  0.49440058  -0.00675120  1
  V  V49  1  0.25083825  0.00405516  0.26091013  1
  V  V50  1  0.13173912  0.12340810  0.49280137  1
  V  V51  1  0.50214782  0.62678350  0.12540022  1
  V  V52  1  0.12386925  0.00874351  0.62928695  1
  V  V53  1  0.87638751  0.87623440  -0.00002472  1
  V  V54  1  0.37329427  0.62633611  0.24970488  1
  V  V55  1  0.24689720  0.74958649  -0.00808643  1
  V  V56  1  -0.01014828  0.13036817  0.13006534  1
  V  V57  1  0.24872527  0.37156322  0.62231178  1
  V  V58  1  0.87305673  0.37816910  0.50124355  1
  V  V59  1  0.87532767  0.00025077  0.87287896  1
  V  V60  1  0.00073959  0.37573940  0.37583229  1
  V  V61  1  0.75152852  0.87761336  0.12805085  1
  V  V62  1  0.49826897  0.12786138  0.12684188  1
  V  V63  1  0.37927808  0.87547195  -0.00557566  1
  V  V64  1  0.49660225  0.25712307  0.74348348  1
  V  V65  1  0.25435864  0.12152011  0.86170893  1
  V  V66  1  0.76443922  0.37130551  0.12549255  1
  V  V67  1  0.23348855  0.74614196  0.49280334  1
  V  V68  1  0.24959202  0.87733991  0.12472263  1
  V  V69  1  0.87002722  0.87308968  0.49596305  1
  V  V70  1  0.38150292  0.38159854  0.50198403  1
  V  V71  1  0.61035262  0.62400581  0.50279984  1
  V  V72  1  0.12526482  0.62662861  -0.00827422  1
  V  V73  1  0.63141990  0.25057630  0.37943440  1
  V  V74  1  -0.00004719  0.24689972  0.74255557  1
  V  V75  1  0.74759724  0.75324359  -0.00074054  1
  V  V76  1  0.88070012  0.63023713  0.75153883  1
  V  V77  1  0.00076940  0.62566800  0.62089251  1
  V  V78  1  0.37643015  0.75135407  0.12481236  1
  V  V79  1  0.62609059  0.13296533  0.50790299  1
  V  V80  1  0.37359482  0.00064552  0.86838433  1
  V  V81  1  0.38338692  0.37426203  -0.00963750  1
  V  V82  1  0.37503190  0.24951684  0.12457500  1
  V  V83  1  0.38578505  0.86772890  0.49414576  1
  V  V84  1  0.62808896  0.49972892  0.12620630  1
  Zn  Zn85  1  0.50580126  0.38116118  0.38247129  1
  Zn  Zn86  1  0.74640067  0.49719247  0.75366440  1
  Zn  Zn87  1  0.76236370  0.13075330  0.37684737  1
  Zn  Zn88  1  -0.01078277  0.24610113  0.24838587  1
  Zn  Zn89  1  0.13004135  0.87123439  0.25937954  1
  Zn  Zn90  1  0.49894715  0.25160438  0.25538038  1
  Zn  Zn91  1  0.48409586  0.61085384  0.63186795  1
  Zn  Zn92  1  0.75149987  0.12974639  0.87396873  1
  Zn  Zn93  1  0.60186992  0.88179619  0.78829546  1
  Zn  Zn94  1  0.22384305  0.62859858  0.37384624  1
  Zn  Zn95  1  0.39221753  0.10959685  0.72984001  1
  Zn  Zn96  1  0.62606602  0.76194775  0.39466634  1
  Zn  Zn97  1  0.25233604  0.87562754  0.62454435  1
  Zn  Zn98  1  0.12233960  0.74212215  0.86540232  1
  Zn  Zn99  1  0.87369610  0.50316878  0.37880857  1
  Zn  Zn100  1  0.49792583  0.00502430  0.49610214  1
  Zn  Zn101  1  0.38025000  0.23529540  0.61693771  1
  Zn  Zn102  1  0.37689364  0.51191430  0.86478289  1
  Zn  Zn103  1  0.39051519  -0.01730090  0.36854314  1
  Zn  Zn104  1  0.12735774  0.37367824  0.74869612  1
  Zn  Zn105  1  0.25707683  0.24363462  0.49511996  1
  Zn  Zn106  1  0.01169862  0.51156796  0.48745928  1
  Zn  Zn107  1  0.18835329  0.18682929  0.18784622  1
  Zn  Zn108  1  0.19015630  0.18674087  0.68086618  1
  Zn  Zn109  1  0.18784209  0.68500631  0.18060653  1
  Zn  Zn110  1  0.18621374  0.68775341  0.68042192  1
  Zn  Zn111  1  0.69013150  0.19041030  0.18780814  1
  Zn  Zn112  1  0.68711603  0.18934275  0.69078864  1
  Zn  Zn113  1  0.68670209  0.69073820  0.18963847  1
  Zn  Zn114  1  0.68942175  0.68322850  0.68591582  1
  Zn  Zn115  1  0.31429132  0.31550223  0.31259035  1
  Zn  Zn116  1  0.31590662  0.31389335  0.80782364  1
  Zn  Zn117  1  0.30851417  0.80854786  0.31454096  1
  Zn  Zn118  1  0.31081391  0.81601363  0.81105604  1
  Zn  Zn119  1  0.81056594  0.31457987  0.31618134  1
  Zn  Zn120  1  0.80999346  0.31047028  0.81287529  1
  Zn  Zn121  1  0.81091842  0.81423316  0.31392895  1
  Zn  Zn122  1  0.80879766  0.81342124  0.81168874  1
  Zn  Zn123  1  0.19127508  0.43991008  0.43321927  1
  Zn  Zn124  1  0.18636547  0.43391137  0.93457792  1
  Zn  Zn125  1  0.18669379  0.93138412  0.44579286  1
  Zn  Zn126  1  0.18835208  0.93785596  0.93276109  1
  Zn  Zn127  1  0.68963806  0.44285950  0.44170690  1
  Zn  Zn128  1  0.69293128  0.43980608  0.94237229  1
  Zn  Zn129  1  0.68797341  0.94803849  0.43944110  1
  Zn  Zn130  1  0.68863647  0.94036651  0.93906227  1
  Zn  Zn131  1  0.31362374  0.06373777  0.06060763  1
  Zn  Zn132  1  0.31011584  0.05295270  0.55775413  1
  Zn  Zn133  1  0.32380960  0.57269788  0.03811440  1
  Zn  Zn134  1  0.30208720  0.56197351  0.55856372  1
  Zn  Zn135  1  0.81024755  0.06309345  0.06376126  1
  Zn  Zn136  1  0.80452794  0.06290788  0.56305551  1
  Zn  Zn137  1  0.81289510  0.56160540  0.06274916  1
  Zn  Zn138  1  0.81258442  0.55897847  0.56292393  1
  Zn  Zn139  1  0.43799202  0.44006113  0.18171275  1
  Zn  Zn140  1  0.43660243  0.43185895  0.69353166  1
  Zn  Zn141  1  0.43792896  0.94008733  0.18629347  1
  Zn  Zn142  1  0.43796348  0.92227848  0.68535811  1
  Zn  Zn143  1  0.94045904  0.43993592  0.19172434  1
  Zn  Zn144  1  0.93766988  0.43838486  0.69048892  1
  Zn  Zn145  1  0.94011151  0.93871167  0.18882499  1
  Zn  Zn146  1  0.94023186  0.93722525  0.68277325  1
  Zn  Zn147  1  0.05808605  0.05904407  0.31415079  1
  Zn  Zn148  1  0.06168553  0.06213498  0.81216100  1
  Zn  Zn149  1  0.06219660  0.56252581  0.30687207  1
  Zn  Zn150  1  0.06329635  0.55769986  0.80580739  1
  Zn  Zn151  1  0.56446274  0.06421754  0.31889192  1
  Zn  Zn152  1  0.56389616  0.07012248  0.80981896  1
  Zn  Zn153  1  0.56260091  0.56574825  0.31449590  1
  Zn  Zn154  1  0.56291917  0.56384759  0.80996653  1
  Zn  Zn155  1  0.44832522  0.19327308  0.44179996  1
  Zn  Zn156  1  0.43927243  0.18669157  0.93118574  1
  Zn  Zn157  1  0.43217802  0.68621641  0.43906891  1
  Zn  Zn158  1  0.43232883  0.68105957  0.93211143  1
  Zn  Zn159  1  0.94297321  0.19571296  0.43701100  1
  Zn  Zn160  1  0.94038389  0.18182510  0.93476356  1
  Zn  Zn161  1  0.93692658  0.69189902  0.43796665  1
  Zn  Zn162  1  0.93708871  0.68789151  0.93793293  1
  Zn  Zn163  1  0.06188923  0.30919246  0.05992612  1
  Zn  Zn164  1  0.06306066  0.31269498  0.55944878  1
  Zn  Zn165  1  0.06147723  0.81258622  0.06195714  1
  Zn  Zn166  1  0.05363925  0.81498875  0.56597113  1
  Zn  Zn167  1  0.56827570  0.31295403  0.06452930  1
  Zn  Zn168  1  0.56341442  0.31469186  0.56506936  1
  Zn  Zn169  1  0.56432901  0.81487252  0.06514155  1
  Zn  Zn170  1  0.55936991  0.80568436  0.57628196  1
  O  O171  1  0.12392667  0.11464456  0.11798148  1
  O  O172  1  0.12497349  0.11411746  0.61464680  1
  O  O173  1  0.11549853  0.61816720  0.11625264  1
  O  O174  1  0.11036092  0.61672688  0.63145075  1
  O  O175  1  0.61628981  0.12451411  0.11666952  1
  O  O176  1  0.63409825  0.11761448  0.61547619  1
  O  O177  1  0.62419640  0.61915142  0.11837687  1
  O  O178  1  0.62850507  0.61367210  0.61376282  1
  O  O179  1  0.37622101  0.38252545  0.38524314  1
  O  O180  1  0.37142295  0.38117863  0.88870139  1
  O  O181  1  0.37454207  0.86585973  0.38895368  1
  O  O182  1  0.36739508  0.88367429  0.88840023  1
  O  O183  1  0.88269832  0.37402195  0.38430685  1
  O  O184  1  0.88311032  0.38411754  0.86864167  1
  O  O185  1  0.88189739  0.87014558  0.38739935  1
  O  O186  1  0.88165374  0.88028998  0.87825476  1
  O  O187  1  0.24860960  -0.01075100  0.36125781  1
  O  O188  1  0.26163615  0.00960383  0.88047485  1
  O  O189  1  0.26191326  0.49980372  0.36264826  1
  O  O190  1  0.24342930  0.49161194  0.85439511  1
  O  O191  1  0.75195437  0.00494889  0.36146293  1
  O  O192  1  0.75743393  0.00264661  0.86556323  1
  O  O193  1  0.75230347  0.51096572  0.36837874  1
  O  O194  1  0.75992388  0.50905325  0.87744154  1
  O  O195  1  0.24518711  0.49482209  0.12548628  1
  O  O196  1  0.24188607  0.49393361  0.63257928  1
  O  O197  1  0.24525816  0.99369676  0.12950119  1
  O  O198  1  0.22575221  0.99050537  0.61197716  1
  O  O199  1  0.74756632  0.49143344  0.12935446  1
  O  O200  1  0.74407524  0.49258142  0.62862307  1
  O  O201  1  0.74410621  0.99684420  0.13304573  1
  O  O202  1  0.74146110  0.99220948  0.63463563  1
  O  O203  1  0.00496670  0.36858900  0.25603831  1
  O  O204  1  0.00014806  0.36413706  0.76029256  1
  O  O205  1  0.00077731  0.86929901  0.25820793  1
  O  O206  1  0.00867340  0.88205851  0.75888724  1
  O  O207  1  0.51522040  0.37598339  0.24544688  1
  O  O208  1  0.49819826  0.35864631  0.75530006  1
  O  O209  1  0.50855281  0.86810151  0.24282358  1
  O  O210  1  0.50300512  0.85025432  0.74352666  1
  O  O211  1  0.49248555  0.12485489  0.23861033  1
  O  O212  1  0.49795515  0.14409084  0.76007034  1
  O  O213  1  0.49683054  0.63470978  0.24343487  1
  O  O214  1  0.49736989  0.63329457  0.74677776  1
  O  O215  1  1.00626065  0.12258296  0.23274808  1
  O  O216  1  0.98893541  0.13373556  0.75378111  1
  O  O217  1  0.99304211  0.63285243  0.24344243  1
  O  O218  1  0.98768688  0.62106753  0.74187030  1
  O  O219  1  0.37352358  0.25607515  0.00318259  1
  O  O220  1  0.37448348  0.26460421  0.49833041  1
  O  O221  1  0.36768447  0.75998797  0.00496453  1
  O  O222  1  0.36931619  0.75577193  0.50803921  1
  O  O223  1  0.85916943  0.24329390  -0.00904949  1
  O  O224  1  0.88419032  0.26037385  0.51345162  1
  O  O225  1  0.86929948  0.75632736  0.00637836  1
  O  O226  1  0.87541358  0.76216540  0.51169432  1
  O  O227  1  0.12280779  0.23848011  0.49208033  1
  O  O228  1  0.13240050  0.24386113  0.99102794  1
  O  O229  1  0.13576174  0.75773004  0.51014602  1
  O  O230  1  0.12996448  0.74486555  0.99781868  1
  O  O231  1  0.62358702  0.24044466  0.49825274  1
  O  O232  1  0.63080854  0.24557397  0.99054278  1
  O  O233  1  0.62006828  0.73153276  0.50760632  1
  O  O234  1  0.63093787  0.73684417  1.00984912  1
  O  O235  1  0.49643248  0.23981442  0.12466255  1
  O  O236  1  0.50247425  0.25240392  0.63858154  1
  O  O237  1  0.49453986  0.74595211  0.13161584  1
  O  O238  1  0.48352892  0.73964267  0.63493622  1
  O  O239  1  1.00443456  0.23490084  0.12546850  1
  O  O240  1  0.98953785  0.25781200  0.63657793  1
  O  O241  1  0.99347677  0.74633154  0.13102448  1
  O  O242  1  0.98535211  0.74176048  0.62475959  1
  O  O243  1  0.01381597  0.26204676  0.37191552  1
  O  O244  1  0.00363018  0.25374257  0.86707434  1
  O  O245  1  -0.00530484  0.75867158  0.36326287  1
  O  O246  1  0.00255888  0.76512656  0.88099189  1
  O  O247  1  0.51522459  0.26035004  0.37318566  1
  O  O248  1  0.51455767  0.25386244  0.87625622  1
  O  O249  1  0.50470453  0.74368666  0.36220760  1
  O  O250  1  0.49104333  0.74217210  0.86040045  1
  O  O251  1  0.23493348  0.12253107  0.49540949  1
  O  O252  1  0.24742539  0.13141102  0.99207947  1
  O  O253  1  0.25026031  0.64208991  0.49659019  1
  O  O254  1  0.23201349  0.64005649  1.01523360  1
  O  O255  1  0.73550222  0.11727483  0.49147622  1
  O  O256  1  0.74082545  0.13637874  1.00292726  1
  O  O257  1  0.74751904  0.62131545  0.48966381  1
  O  O258  1  0.74456141  0.63047223  0.99561003  1
  O  O259  1  0.25939315  0.36984203  0.00305788  1
  O  O260  1  0.25854421  0.37494854  0.50787550  1
  O  O261  1  0.25563038  0.87128433  0.00802655  1
  O  O262  1  0.25805422  0.86071807  0.50216980  1
  O  O263  1  0.74993771  0.36337767  0.00962752  1
  O  O264  1  0.76453081  0.38094796  0.51019076  1
  O  O265  1  0.75861209  0.87320113  0.00946840  1
  O  O266  1  0.76001702  0.88692819  0.51044318  1
  O  O267  1  0.12989149  0.49181823  0.23876710  1
  O  O268  1  0.13366662  0.49448345  0.73828487  1
  O  O269  1  0.13309978  0.99865870  0.24096426  1
  O  O270  1  0.11730180  0.99856352  0.73346271  1
  O  O271  1  0.63135146  0.49443059  0.24637811  1
  O  O272  1  0.62999074  0.50870764  0.73305181  1
  O  O273  1  0.62928321  0.99358484  0.24522081  1
  O  O274  1  0.63147318  0.99776919  0.74660082  1
  O  O275  1  0.36786403  0.00739835  0.25148261  1
  O  O276  1  0.38797135  -0.00668678  0.76544933  1
  O  O277  1  0.37022693  0.50612067  0.25157233  1
  O  O278  1  0.36082462  0.49838454  0.74929763  1
  O  O279  1  0.86115245  -0.00106833  0.24463419  1
  O  O280  1  0.87007038  0.00624754  0.74971841  1
  O  O281  1  0.86858833  0.51010067  0.25127912  1
  O  O282  1  0.87369148  0.50974061  0.76191441  1
  O  O283  1  0.11908473  0.37046743  0.36853519  1
  O  O284  1  0.11502747  0.36508932  0.87076821  1
  O  O285  1  0.10849411  0.87818811  0.37653607  1
  O  O286  1  0.11793001  0.88048029  0.86076303  1
  O  O287  1  0.62709124  0.37392632  0.36885840  1
  O  O288  1  0.63021474  0.36758431  0.87844297  1
  O  O289  1  0.63292052  0.87555552  0.36416321  1
  O  O290  1  0.63983035  0.85926494  0.88693223  1
  O  O291  1  0.38273122  0.12977235  0.12904048  1
  O  O292  1  0.36390528  0.12346092  0.62277119  1
  O  O293  1  0.38142200  0.63225825  0.12848183  1
  O  O294  1  0.36989690  0.63579286  0.61753132  1
  O  O295  1  0.89167588  0.12027778  0.11950339  1
  O  O296  1  0.86726943  0.13383824  0.63397843  1
  O  O297  1  0.87894240  0.63128015  0.12970618  1
  O  O298  1  0.87641434  0.63093657  0.63325275  1
  O  O299  1  0.25494596  0.25503054  0.11656722  1
  O  O300  1  0.25205515  0.26074221  0.61830208  1
  O  O301  1  0.25435824  0.76174022  0.11832807  1
  O  O302  1  0.25833338  0.75066462  0.61540199  1
  O  O303  1  0.74588238  0.25627601  0.11119510  1
  O  O304  1  0.76090508  0.25951322  0.63126830  1
  O  O305  1  0.75611324  0.75740208  0.12103087  1
  O  O306  1  0.75807217  0.76232607  0.63121522  1
  O  O307  1  0.23605567  0.25817849  0.37696759  1
  O  O308  1  0.24703649  0.24255166  0.87723638  1
  O  O309  1  0.24358876  0.74818836  0.38574548  1
  O  O310  1  0.24508582  0.75754069  0.88890041  1
  O  O311  1  0.73510039  0.25218616  0.37615729  1
  O  O312  1  0.73921999  0.25075001  0.88571192  1
  O  O313  1  0.74166509  0.73790802  0.36736332  1
  O  O314  1  0.76091198  0.73581478  0.88354812  1
  O  O315  1  0.00876690  0.11948439  0.00721720  1
  O  O316  1  0.00128137  0.11240260  0.49410722  1
  O  O317  1  0.00611272  0.61969935  0.00534674  1
  O  O318  1  -0.01200925  0.62320714  0.51561104  1
  O  O319  1  0.50596975  0.11888683  0.00746644  1
  O  O320  1  0.51921651  0.12431557  0.50091326  1
  O  O321  1  0.51156010  0.61859581  0.00674000  1
  O  O322  1  0.50782997  0.62143700  0.50425649  1
  O  O323  1  0.48519076  0.37699594  0.50349797  1
  O  O324  1  0.49725899  0.38245222  1.00636917  1
  O  O325  1  0.48733309  0.86695916  0.50628959  1
  O  O326  1  0.48983274  0.88598939  1.01008589  1
  O  O327  1  0.99440426  0.37698087  0.48978297  1
  O  O328  1  1.00465862  0.37857137  0.98631106  1
  O  O329  1  0.99000621  0.88218701  0.49381904  1
  O  O330  1  0.99568626  0.88200430  0.99290262  1
  O  O331  1  0.48426155  0.49777764  0.36639802  1
  O  O332  1  0.50018621  0.50617349  0.89038270  1
  O  O333  1  0.50081314  0.99851297  0.38103507  1
  O  O334  1  0.49457555  1.00723988  0.88891637  1
  O  O335  1  0.99521045  0.48540482  0.37029276  1
  O  O336  1  0.99473537  0.49001804  0.87699308  1
  O  O337  1  0.99787752  0.99174062  0.38846032  1
  O  O338  1  0.99483999  0.99330266  0.88027561  1
  O  O339  1  0.00972652  0.00682134  0.12032048  1
  O  O340  1  0.01118764  -0.00625084  0.60795773  1
  O  O341  1  0.00514648  0.50343256  0.11837108  1
  O  O342  1  0.00710185  0.50648161  0.62635869  1
  O  O343  1  0.50381290  0.01031576  0.11583066  1
  O  O344  1  0.51309179  -0.00743183  0.62734790  1
  O  O345  1  0.51001697  0.50742864  0.11842009  1
  O  O346  1  0.51361800  0.49608137  0.63077377  1
  O  O347  1  0.24591088  0.38121730  0.24080922  1
  O  O348  1  0.25048669  0.37837717  0.73506422  1
  O  O349  1  0.25051890  0.88138607  0.23883358  1
  O  O350  1  0.23303437  0.87870983  0.74834488  1
  O  O351  1  0.74262942  0.38017086  0.24559041  1
  O  O352  1  0.75626928  0.37811092  0.73663525  1
  O  O353  1  0.74309691  0.88592570  0.24626563  1
  O  O354  1  0.75391897  0.88716028  0.74057463  1
  O  O355  1  0.26081823  0.11474309  0.24317975  1
  O  O356  1  0.25243086  0.12870719  0.76085153  1
  O  O357  1  0.25539982  0.62066898  0.24850742  1
  O  O358  1  0.24370609  0.61148885  0.74608746  1
  O  O359  1  0.74296946  0.11105102  0.24915807  1
  O  O360  1  0.75798665  0.11387916  0.75093771  1
  O  O361  1  0.75269547  0.62076260  0.25604900  1
  O  O362  1  0.75935381  0.62319078  0.76093939  1
  O  O363  1  0.38231742  0.13161111  0.36236663  1
  O  O364  1  0.36792199  0.11537719  0.87566420  1
  O  O365  1  0.37340142  0.61738799  0.36613846  1
  O  O366  1  0.35574157  0.60340424  0.92654827  1
  O  O367  1  0.87522290  0.16327538  0.34755046  1
  O  O368  1  0.87309628  0.11832512  0.86260949  1
  O  O369  1  0.86650064  0.62697189  0.36995050  1
  O  O370  1  0.87143433  0.61843100  0.86963134  1
  O  O371  1  0.13093121  0.37857159  0.12538735  1
  O  O372  1  0.13196115  0.38034439  0.62566931  1
  O  O373  1  0.13322794  0.88615572  0.12286894  1
  O  O374  1  0.11835634  0.88172429  0.63797005  1
  O  O375  1  0.63638032  0.37950515  0.13421554  1
  O  O376  1  0.63607363  0.38860825  0.61487715  1
  O  O377  1  0.63191552  0.88281728  0.13314088  1
  O  O378  1  0.63517056  0.88305971  0.62079911  1
  O  O379  1  0.12528969  0.25535164  0.25605129  1
  O  O380  1  0.11476289  0.24583677  0.75237445  1
  O  O381  1  0.11150575  0.75285611  0.23903475  1
  O  O382  1  0.12605984  0.76399083  0.74858688  1
  O  O383  1  0.62550706  0.25978060  0.25737543  1
  O  O384  1  0.62003005  0.24670958  0.76644106  1
  O  O385  1  0.61635256  0.76227502  0.24748475  1
  O  O386  1  0.61366776  0.74317231  0.74851809  1
  O  O387  1  0.37616398  0.24316581  0.24321836  1
  O  O388  1  0.38756387  0.24789067  0.74669239  1
  O  O389  1  0.38210145  0.74744781  0.24464132  1
  O  O390  1  0.36854720  0.75201990  0.73628909  1
  O  O391  1  0.87576533  0.22248466  0.28301763  1
  O  O392  1  0.88003182  0.24180018  0.74381897  1
  O  O393  1  0.88265413  0.74702250  0.24382403  1
  O  O394  1  0.86966859  0.74030224  0.74145752  1
  O  O395  1  0.36679188  0.49059848  0.48986401  1
  O  O396  1  0.39146078  0.48225471  1.01545148  1
  O  O397  1  0.37530236  0.97902068  0.49773618  1
  O  O398  1  0.38269812  0.99397185  0.99420517  1
  O  O399  1  0.88415532  0.48915253  0.49999327  1
  O  O400  1  0.88300726  0.50739976  0.98658288  1
  O  O401  1  0.88610866  0.99396083  0.50978656  1
  O  O402  1  0.87925721  0.99563229  0.99379487  1
  O  O403  1  0.12240732  0.00361309  0.00738191  1
  O  O404  1  0.11287005  0.00661304  0.50284964  1
  O  O405  1  0.12000066  0.50672226  0.00160624  1
  O  O406  1  0.12667810  0.49332522  0.51524584  1
  O  O407  1  0.61993669  0.00997636  0.00654214  1
  O  O408  1  0.62201632  0.00945893  0.51096383  1
  O  O409  1  0.62183165  0.50744984  0.00679113  1
  O  O410  1  0.62755860  0.51138418  0.51239637  1
  O  O411  1  0.37085694  0.36608175  0.11931812  1
  O  O412  1  0.36733002  0.37928099  0.61178260  1
  O  O413  1  0.36638140  0.87404715  0.11613822  1
  O  O414  1  0.37062525  0.86088680  0.61516777  1
  O  O415  1  0.86369597  0.37224117  0.13782601  1
  O  O416  1  0.87052178  0.37002593  0.62040216  1
  O  O417  1  0.87257604  0.87157283  0.11958827  1
  O  O418  1  0.86872802  0.86894366  0.61938730  1
  O  O419  1  0.11631057  0.13478997  0.38004782  1
  O  O420  1  0.13378798  0.12667135  0.87832764  1
  O  O421  1  0.11727953  0.60291026  0.39055535  1
  O  O422  1  0.11501143  0.62515526  0.88690090  1
  O  O423  1  0.62774465  0.13632751  0.38482804  1
  O  O424  1  0.62864438  0.12954534  0.88907356  1
  O  O425  1  0.62943887  0.62253975  0.39104118  1
  O  O426  1  0.63809060  0.61642995  0.88709747  1
