# generated using pymatgen
data_V85Zn86O256
_symmetry_space_group_name_H-M   'P 1'
_cell_length_a   16.94687959
_cell_length_b   16.95420904
_cell_length_c   16.96787359
_cell_angle_alpha   89.95928045
_cell_angle_beta   89.87800938
_cell_angle_gamma   89.96519637
_symmetry_Int_Tables_number   1
_chemical_formula_structural   V85Zn86O256
_chemical_formula_sum   'V85 Zn86 O256'
_cell_volume   4875.21219801
_cell_formula_units_Z   1
loop_
 _symmetry_equiv_pos_site_id
 _symmetry_equiv_pos_as_xyz
  1  'x, y, z'
loop_
 _atom_site_type_symbol
 _atom_site_label
 _atom_site_symmetry_multiplicity
 _atom_site_fract_x
 _atom_site_fract_y
 _atom_site_fract_z
 _atom_site_occupancy
  V  V0  1  0.87962332  0.12898658  0.75005652  1
  V  V1  1  0.87439602  0.75190806  0.62239544  1
  V  V2  1  0.25889998  -0.00492394  0.25688597  1
  V  V3  1  0.62475193  0.00148908  0.12248213  1
  V  V4  1  0.36965897  0.49663186  0.37003358  1
  V  V5  1  0.12857368  0.12258530  -0.00020745  1
  V  V6  1  0.00154985  0.49873877  -0.00250023  1
  V  V7  1  0.87529843  0.24936201  0.12391327  1
  V  V8  1  0.00082753  0.12418585  0.12827979  1
  V  V9  1  0.62010367  0.12694183  0.50025111  1
  V  V10  1  0.62540017  0.50218053  0.62274379  1
  V  V11  1  0.74928480  0.12598926  0.87544773  1
  V  V12  1  0.62213325  0.12734424  -0.00084501  1
  V  V13  1  -0.00200765  0.87289399  0.87583815  1
  V  V14  1  0.48915100  0.00258012  -0.00456654  1
  V  V15  1  0.12962245  0.49151565  0.14008704  1
  V  V16  1  0.87482448  0.37691204  0.49274712  1
  V  V17  1  0.12865233  0.62338329  0.00098456  1
  V  V18  1  0.61789671  0.25525141  0.87291589  1
  V  V19  1  0.74978780  0.24558733  0.49396815  1
  V  V20  1  0.87961295  0.24861972  0.62343215  1
  V  V21  1  0.75092972  0.00264323  0.74617916  1
  V  V22  1  0.38242380  0.10695730  0.74675520  1
  V  V23  1  0.49679190  0.50093678  0.49957176  1
  V  V24  1  0.49999717  0.49597133  -0.00293049  1
  V  V25  1  0.37052603  0.36720063  0.51266877  1
  V  V26  1  0.86707541  0.50902147  0.36660716  1
  V  V27  1  0.12997094  -0.00675435  0.13080809  1
  V  V28  1  0.49333124  0.63449262  0.12449193  1
  V  V29  1  0.12620687  0.75075818  0.87294052  1
  V  V30  1  -0.00275275  -0.01053972  0.00218593  1
  V  V31  1  0.24672688  0.48892304  0.74883239  1
  V  V32  1  0.49400009  0.24780033  0.73523409  1
  V  V33  1  0.62483226  0.86839385  0.25521083  1
  V  V34  1  0.75073729  0.62714271  0.87336109  1
  V  V35  1  0.62476459  0.37837588  0.24962504  1
  V  V36  1  0.49278527  0.24915479  0.24726062  1
  V  V37  1  0.23257010  -0.00738636  0.76191068  1
  V  V38  1  0.00370374  0.50731264  0.49897828  1
  V  V39  1  0.62380744  0.00683821  0.62219462  1
  V  V40  1  0.25560884  0.25141222  0.01236377  1
  V  V41  1  0.25482445  0.11664428  0.38902395  1
  V  V42  1  0.37848305  0.49168728  0.87773740  1
  V  V43  1  0.50022949  0.62782916  0.62487890  1
  V  V44  1  0.50141252  0.75125588  0.74930384  1
  V  V45  1  0.74837992  0.00288832  0.25342177  1
  V  V46  1  0.74964341  0.37665278  0.12234677  1
  V  V47  1  0.00467952  0.75302951  0.74817169  1
  V  V48  1  0.88573213  0.75569840  0.12768731  1
  V  V49  1  0.37390969  0.37284823  0.01233451  1
  V  V50  1  0.11218303  0.74697272  0.38022749  1
  V  V51  1  0.25244808  0.62849183  0.87949964  1
  V  V52  1  0.86889027  0.12558348  0.25336203  1
  V  V53  1  0.87505654  -0.00176032  0.87797545  1
  V  V54  1  0.37140617  0.87882206  0.49672531  1
  V  V55  1  0.11865776  -0.00385176  0.61103077  1
  V  V56  1  0.75441545  0.87577702  0.11364022  1
  V  V57  1  0.87746676  0.50056770  0.87207229  1
  V  V58  1  0.11188992  0.87057084  0.26209494  1
  V  V59  1  0.36946126  0.63174328  0.24834224  1
  V  V60  1  0.74974028  0.25108625  -0.00228603  1
  V  V61  1  0.75028055  0.37695897  0.62240886  1
  V  V62  1  0.88737398  -0.00605654  0.37264295  1
  V  V63  1  0.75219063  0.50135818  0.74679211  1
  V  V64  1  0.49000845  0.12932791  0.12470697  1
  V  V65  1  0.87591247  0.37534138  -0.00284817  1
  V  V66  1  0.62036704  0.37589618  0.75172792  1
  V  V67  1  0.37717549  0.62444081  0.75138107  1
  V  V68  1  0.24251096  0.24830918  0.51612498  1
  V  V69  1  -0.00599864  0.62450536  0.13887665  1
  V  V70  1  0.88566192  0.87522920  0.49140581  1
  V  V71  1  0.49477008  0.88037639  0.87344447  1
  V  V72  1  0.12910020  0.25374955  0.87746860  1
  V  V73  1  0.24759939  0.74597107  0.50450730  1
  V  V74  1  0.12485507  0.24540518  0.37026348  1
  V  V75  1  0.36843162  0.85962611  0.00474303  1
  V  V76  1  0.62586405  0.87815066  0.74709268  1
  V  V77  1  0.24675114  0.62123843  0.37787274  1
  V  V78  1  0.62442199  0.63091923  0.49057352  1
  V  V79  1  0.62501144  0.50226945  0.12356555  1
  V  V80  1  0.62863952  0.24552279  0.37215792  1
  V  V81  1  0.49379225  0.00231674  0.49477750  1
  V  V82  1  0.74617575  0.75247739  0.48945482  1
  V  V83  1  0.62623674  0.63230096  -0.00206039  1
  V  V84  1  0.87689384  0.62573458  0.74658841  1
  Zn  Zn85  1  0.27184358  0.83460619  0.14557635  1
  Zn  Zn86  1  0.00672326  0.25073669  0.74919556  1
  Zn  Zn87  1  0.76692679  0.75884590  -0.00884755  1
  Zn  Zn88  1  0.75688048  0.51016646  0.24072645  1
  Zn  Zn89  1  0.62911234  0.75446013  0.87249789  1
  Zn  Zn90  1  0.49844975  0.87207744  0.37657753  1
  Zn  Zn91  1  0.00861929  0.25320016  0.24622208  1
  Zn  Zn92  1  0.00431998  0.37488898  0.86725095  1
  Zn  Zn93  1  0.25128062  0.37115648  0.15460102  1
  Zn  Zn94  1  0.49746590  0.37385160  0.37606117  1
  Zn  Zn95  1  0.00906400  0.38219446  0.36542784  1
  Zn  Zn96  1  0.49965082  0.74900381  0.25672366  1
  Zn  Zn97  1  0.01591271  0.12251775  0.59791769  1
  Zn  Zn98  1  0.75199975  0.88089692  0.61987675  1
  Zn  Zn99  1  0.74451927  0.63686617  0.35935262  1
  Zn  Zn100  1  0.01188784  0.62916577  0.61747674  1
  Zn  Zn101  1  0.37183654  0.75159592  0.62661019  1
  Zn  Zn102  1  0.37820977  0.11886471  0.25790988  1
  Zn  Zn103  1  0.26591424  0.11707577  0.88388482  1
  Zn  Zn104  1  0.24497750  0.87162752  0.63386563  1
  Zn  Zn105  1  0.13724684  0.49757788  0.60898481  1
  Zn  Zn106  1  0.13303310  0.36209574  0.72892729  1
  Zn  Zn107  1  0.19542951  0.18097529  0.19328061  1
  Zn  Zn108  1  0.19127510  0.17221836  0.69340809  1
  Zn  Zn109  1  0.18366418  0.67897195  0.19666987  1
  Zn  Zn110  1  0.18728794  0.67572521  0.68691479  1
  Zn  Zn111  1  0.68479891  0.18862116  0.18415941  1
  Zn  Zn112  1  0.69069499  0.18879851  0.68471038  1
  Zn  Zn113  1  0.69233289  0.69131178  0.17827475  1
  Zn  Zn114  1  0.68799986  0.69048629  0.68221435  1
  Zn  Zn115  1  0.30988043  0.30882016  0.32283460  1
  Zn  Zn116  1  0.31429515  0.30684377  0.82194597  1
  Zn  Zn117  1  0.30847811  0.81032851  0.32120739  1
  Zn  Zn118  1  0.31526122  0.81336416  0.81627797  1
  Zn  Zn119  1  0.81409244  0.31638947  0.30771662  1
  Zn  Zn120  1  0.81119464  0.31448039  0.81159070  1
  Zn  Zn121  1  0.81579756  0.81403597  0.30394317  1
  Zn  Zn122  1  0.81412079  0.81546738  0.81016056  1
  Zn  Zn123  1  0.19048440  0.42822212  0.42957843  1
  Zn  Zn124  1  0.19244638  0.43677900  0.94133132  1
  Zn  Zn125  1  0.18599491  0.93276699  0.44095709  1
  Zn  Zn126  1  0.18597338  0.93212299  0.93991593  1
  Zn  Zn127  1  0.68632754  0.43846205  0.43500421  1
  Zn  Zn128  1  0.68868898  0.44053036  0.93544016  1
  Zn  Zn129  1  0.69331578  0.94052575  0.43747725  1
  Zn  Zn130  1  0.68171581  0.94214932  0.93357252  1
  Zn  Zn131  1  0.31134611  0.05674104  0.06761843  1
  Zn  Zn132  1  0.31040683  0.06114260  0.57639921  1
  Zn  Zn133  1  0.31077731  0.55972418  0.06709415  1
  Zn  Zn134  1  0.31449425  0.56220920  0.56285466  1
  Zn  Zn135  1  0.81266414  0.06274312  0.06227633  1
  Zn  Zn136  1  0.83049970  0.07038642  0.55174633  1
  Zn  Zn137  1  0.81384473  0.56639420  0.06052352  1
  Zn  Zn138  1  0.81313368  0.56731136  0.55747188  1
  Zn  Zn139  1  0.43868546  0.44241066  0.18832076  1
  Zn  Zn140  1  0.43738782  0.43843215  0.68856573  1
  Zn  Zn141  1  0.44006305  0.93593966  0.18236923  1
  Zn  Zn142  1  0.44008337  0.93373044  0.67641442  1
  Zn  Zn143  1  0.94239549  0.43413828  0.18747764  1
  Zn  Zn144  1  0.94444845  0.43216484  0.68484950  1
  Zn  Zn145  1  0.93778722  0.93582713  0.18764758  1
  Zn  Zn146  1  0.93954988  0.93645147  0.68714134  1
  Zn  Zn147  1  0.06928640  0.06575942  0.31779707  1
  Zn  Zn148  1  0.05981891  0.06508598  0.81417195  1
  Zn  Zn149  1  0.05980597  0.56321012  0.31924125  1
  Zn  Zn150  1  0.06459373  0.56460981  0.80846387  1
  Zn  Zn151  1  0.56389284  0.06145253  0.31382809  1
  Zn  Zn152  1  0.56145741  0.06564575  0.81132956  1
  Zn  Zn153  1  0.55623719  0.56389688  0.31107641  1
  Zn  Zn154  1  0.56391759  0.56329303  0.81314196  1
  Zn  Zn155  1  0.43707563  0.18930365  0.43797396  1
  Zn  Zn156  1  0.43607319  0.19109950  0.93185253  1
  Zn  Zn157  1  0.43556642  0.69263504  0.43453709  1
  Zn  Zn158  1  0.44108855  0.68819657  0.93416550  1
  Zn  Zn159  1  0.93896383  0.18077285  0.43585804  1
  Zn  Zn160  1  0.94208408  0.18550761  0.93796330  1
  Zn  Zn161  1  0.93038679  0.68629396  0.43534741  1
  Zn  Zn162  1  0.94013175  0.68711635  0.94134204  1
  Zn  Zn163  1  0.06535815  0.31266176  0.06191473  1
  Zn  Zn164  1  0.06373079  0.32021344  0.55605321  1
  Zn  Zn165  1  0.09950271  0.78865321  0.08345576  1
  Zn  Zn166  1  0.06561239  0.81796513  0.56371554  1
  Zn  Zn167  1  0.56093058  0.31293956  0.06375751  1
  Zn  Zn168  1  0.56138193  0.31563096  0.56124335  1
  Zn  Zn169  1  0.56172750  0.81662888  0.06361076  1
  Zn  Zn170  1  0.56175640  0.81629225  0.56183050  1
  O  O171  1  0.11900082  0.11521487  0.12176073  1
  O  O172  1  0.12222806  0.10675151  0.63185182  1
  O  O173  1  0.11226976  0.61293608  0.11905142  1
  O  O174  1  0.12145704  0.60748909  0.62882000  1
  O  O175  1  0.61580597  0.12130164  0.11730985  1
  O  O176  1  0.63155040  0.11961002  0.61187788  1
  O  O177  1  0.61647255  0.62130752  0.11382700  1
  O  O178  1  0.62031685  0.62012422  0.61564275  1
  O  O179  1  0.37709887  0.38339967  0.38735319  1
  O  O180  1  0.37213719  0.38710985  0.88932383  1
  O  O181  1  0.37196381  0.87631451  0.39211504  1
  O  O182  1  0.38887837  0.87208258  0.88660096  1
  O  O183  1  0.86917081  0.38415184  0.38417226  1
  O  O184  1  0.87671482  0.38215336  0.87985106  1
  O  O185  1  0.87606163  0.88627405  0.37203906  1
  O  O186  1  0.88809371  0.88139216  0.87277537  1
  O  O187  1  0.24500201  0.00981245  0.37340219  1
  O  O188  1  0.24338158  0.00033202  0.86719372  1
  O  O189  1  0.25790860  0.51038270  0.38744904  1
  O  O190  1  0.26064491  0.50730863  0.87079659  1
  O  O191  1  0.75588849  -0.00193810  0.35650409  1
  O  O192  1  0.75457450  0.00659854  0.86909766  1
  O  O193  1  0.76006661  0.50183940  0.37289593  1
  O  O194  1  0.75694605  0.50657761  0.86641165  1
  O  O195  1  0.23187100  0.50003066  0.12503612  1
  O  O196  1  0.25683472  0.50464899  0.64643430  1
  O  O197  1  0.23878741  1.00167504  0.13879213  1
  O  O198  1  0.23582286  0.99834965  0.64068714  1
  O  O199  1  0.74387046  0.49430340  0.12078215  1
  O  O200  1  0.74643544  0.49752162  0.62756764  1
  O  O201  1  0.74715352  0.99375266  0.12949263  1
  O  O202  1  0.74284231  1.00342433  0.62797663  1
  O  O203  1  -0.01429915  0.36127733  0.25812086  1
  O  O204  1  0.01185517  0.36911939  0.75088182  1
  O  O205  1  0.01315860  0.87983293  0.25439512  1
  O  O206  1  -0.00306878  0.86189296  0.76050138  1
  O  O207  1  0.50968319  0.36664091  0.24641939  1
  O  O208  1  0.51416623  0.36735589  0.74386612  1
  O  O209  1  0.51600795  0.87793659  0.24688744  1
  O  O210  1  0.50450418  0.87279349  0.75559261  1
  O  O211  1  0.50077404  0.13011286  0.24252400  1
  O  O212  1  0.49324898  0.13741840  0.75134926  1
  O  O213  1  0.49073310  0.62684714  0.24042496  1
  O  O214  1  0.49762374  0.63014461  0.74580755  1
  O  O215  1  0.99330095  0.12490586  0.23950930  1
  O  O216  1  0.98627751  0.12989342  0.75161469  1
  O  O217  1  1.00055345  0.62145671  0.23672960  1
  O  O218  1  0.99305996  0.63607836  0.74962406  1
  O  O219  1  0.36875688  0.26101145  -0.00413814  1
  O  O220  1  0.36899279  0.26159883  0.49935110  1
  O  O221  1  0.37804128  0.76000687  -0.00227962  1
  O  O222  1  0.36377509  0.75757797  0.50301243  1
  O  O223  1  0.87011632  0.25335080  0.00375623  1
  O  O224  1  0.86603011  0.26007509  0.50141826  1
  O  O225  1  0.87887590  0.74599728  0.01523271  1
  O  O226  1  0.86782616  0.75582025  0.50423663  1
  O  O227  1  0.13849017  0.24801287  0.49647360  1
  O  O228  1  0.13378001  0.24009437  0.99875464  1
  O  O229  1  0.13281107  0.75767102  0.48817534  1
  O  O230  1  0.11211503  0.73162962  0.98379511  1
  O  O231  1  0.62954428  0.24696066  0.49273045  1
  O  O232  1  0.62861388  0.24892584  0.99160812  1
  O  O233  1  0.63490852  0.74328957  0.50712837  1
  O  O234  1  0.62352107  0.73861827  0.99818520  1
  O  O235  1  0.50717498  0.23971025  0.13429580  1
  O  O236  1  0.50605010  0.24950770  0.63639363  1
  O  O237  1  0.50348357  0.73729498  0.12740709  1
  O  O238  1  0.49923893  0.74524199  0.63247006  1
  O  O239  1  0.99582992  0.23796297  0.12129104  1
  O  O240  1  0.98640523  0.24809984  0.61965396  1
  O  O241  1  0.99723117  0.73579769  0.12162825  1
  O  O242  1  0.99364363  0.75134752  0.63131537  1
  O  O243  1  0.01783796  0.23591611  0.37827676  1
  O  O244  1  0.01430151  0.25102312  0.87742222  1
  O  O245  1  0.01342718  0.74267033  0.38168400  1
  O  O246  1  0.00396238  0.75424642  0.86733789  1
  O  O247  1  0.51205562  0.25141170  0.36662987  1
  O  O248  1  0.51518256  0.25065201  0.86651973  1
  O  O249  1  0.49913642  0.75788872  0.37006160  1
  O  O250  1  0.50523519  0.76044700  0.86702990  1
  O  O251  1  0.25978283  0.13362363  0.49591737  1
  O  O252  1  0.24380769  0.12863023  1.00457235  1
  O  O253  1  0.25601699  0.63453610  0.49200314  1
  O  O254  1  0.24098158  0.61505579  0.98992106  1
  O  O255  1  0.74317433  0.14078188  0.50043425  1
  O  O256  1  0.74321363  0.13094897  0.99564301  1
  O  O257  1  0.74052654  0.63503478  0.49633530  1
  O  O258  1  0.73987905  0.62510961  0.99280890  1
  O  O259  1  0.25874084  0.36599634  0.00457670  1
  O  O260  1  0.26038541  0.36072643  0.49842634  1
  O  O261  1  0.26841730  0.87778542  -0.00341181  1
  O  O262  1  0.25554512  0.86445722  0.50304103  1
  O  O263  1  0.75529668  0.37105584  0.00263640  1
  O  O264  1  0.75416950  0.36895818  0.50375260  1
  O  O265  1  0.74246244  0.87845297  0.00941005  1
  O  O266  1  0.75738764  0.86625979  0.49946899  1
  O  O267  1  0.11575549  0.50209094  0.23821916  1
  O  O268  1  0.14363611  0.49500867  0.76104371  1
  O  O269  1  0.13313811  0.98949456  0.25085808  1
  O  O270  1  0.13138257  0.99676179  0.75544016  1
  O  O271  1  0.61785486  0.48869125  0.24298089  1
  O  O272  1  0.63021673  0.49420170  0.74462065  1
  O  O273  1  0.63189392  0.99640806  0.24163391  1
  O  O274  1  0.62932411  1.00059198  0.74067801  1
  O  O275  1  0.36293657  -0.00529212  0.24661366  1
  O  O276  1  0.38495407  0.00575239  0.74888621  1
  O  O277  1  0.38089974  0.50935335  0.26384192  1
  O  O278  1  0.37203289  0.50270011  0.76130128  1
  O  O279  1  0.86932793  0.00396712  0.25476958  1
  O  O280  1  0.87150526  0.00903462  0.75585144  1
  O  O281  1  0.87450188  0.49368759  0.26387149  1
  O  O282  1  0.87225446  0.50436857  0.75108011  1
  O  O283  1  0.12303962  0.35114165  0.38107966  1
  O  O284  1  0.12771446  0.36044342  0.88234038  1
  O  O285  1  0.12582913  0.86496054  0.36885883  1
  O  O286  1  0.11375098  0.86034861  0.88281098  1
  O  O287  1  0.62172523  0.36870047  0.36496251  1
  O  O288  1  0.63401189  0.36823916  0.86235628  1
  O  O289  1  0.63097912  0.88159607  0.35635596  1
  O  O290  1  0.61430967  0.87598004  0.86682798  1
  O  O291  1  0.38736631  0.12083024  0.12902909  1
  O  O292  1  0.37013960  0.12839061  0.64876520  1
  O  O293  1  0.38170023  0.61625388  0.13566628  1
  O  O294  1  0.38340178  0.62610296  0.63347508  1
  O  O295  1  0.88371131  0.12786696  0.13063559  1
  O  O296  1  0.85880686  0.13827188  0.64361035  1
  O  O297  1  0.88885711  0.63028193  0.12193704  1
  O  O298  1  0.87872118  0.63785137  0.62668242  1
  O  O299  1  0.24458377  0.25118235  0.11616155  1
  O  O300  1  0.24473634  0.24107687  0.61443847  1
  O  O301  1  0.20641442  0.75188838  0.11562640  1
  O  O302  1  0.24678823  0.74836162  0.61756331  1
  O  O303  1  0.75397814  0.25587219  0.11620419  1
  O  O304  1  0.75738788  0.25771841  0.61460763  1
  O  O305  1  0.76329130  0.75973675  0.11656913  1
  O  O306  1  0.76173092  0.75298754  0.61520800  1
  O  O307  1  0.24168036  0.23523717  0.38628301  1
  O  O308  1  0.24370792  0.24260221  0.89042951  1
  O  O309  1  0.24210393  0.73981546  0.38630888  1
  O  O310  1  0.24124604  0.73804086  0.86842241  1
  O  O311  1  0.73928339  0.25952668  0.38194393  1
  O  O312  1  0.74142822  0.24602308  0.87894337  1
  O  O313  1  0.75926891  0.75182190  0.38507092  1
  O  O314  1  0.74966986  0.74487204  0.87581685  1
  O  O315  1  0.01010190  0.11552807  0.00996996  1
  O  O316  1  -0.06018070  0.11185763  0.52020659  1
  O  O317  1  0.00876298  0.61164794  0.00300516  1
  O  O318  1  -0.00633109  0.61083399  0.49714239  1
  O  O319  1  0.50133538  0.12220636  0.00451595  1
  O  O320  1  0.51163837  0.11983100  0.49535940  1
  O  O321  1  0.50537960  0.61781666  0.00486893  1
  O  O322  1  0.50491871  0.62203152  0.50521356  1
  O  O323  1  0.48905068  0.38049919  0.49927165  1
  O  O324  1  0.49274071  0.38829279  1.00822870  1
  O  O325  1  0.49109981  0.88425653  0.50091478  1
  O  O326  1  0.49346884  0.88300006  0.99444042  1
  O  O327  1  0.98644471  0.38223021  0.49028990  1
  O  O328  1  0.99500195  0.38581953  0.99983209  1
  O  O329  1  0.98454761  0.86979391  0.49799666  1
  O  O330  1  1.00629752  0.88705371  0.99357768  1
  O  O331  1  0.48846331  0.49932077  0.38315184  1
  O  O332  1  0.49141240  0.50723056  0.88644009  1
  O  O333  1  0.50613787  0.99522394  0.38948321  1
  O  O334  1  0.50678972  0.99267779  0.88434797  1
  O  O335  1  0.98505594  0.50005492  0.38190758  1
  O  O336  1  0.99672078  0.49967158  0.88224094  1
  O  O337  1  0.98601176  1.00473780  0.37089274  1
  O  O338  1  0.99756799  0.99213359  0.88253044  1
  O  O339  1  0.00637039  0.00645405  0.12086815  1
  O  O340  1  0.01433354  -0.00108609  0.63113915  1
  O  O341  1  0.00389922  0.50765772  0.11717525  1
  O  O342  1  -0.00868184  0.49977330  0.60371238  1
  O  O343  1  0.50512949  0.00945208  0.11515523  1
  O  O344  1  0.51651444  -0.00108065  0.61280415  1
  O  O345  1  0.50533384  0.51098189  0.11489131  1
  O  O346  1  0.50559221  0.50730773  0.61988552  1
  O  O347  1  0.24934692  0.37736603  0.26392817  1
  O  O348  1  0.25413022  0.38611241  0.75955696  1
  O  O349  1  0.24261102  0.87958766  0.25215602  1
  O  O350  1  0.25953729  0.89045293  0.75349827  1
  O  O351  1  0.73872807  0.37839917  0.24111818  1
  O  O352  1  0.74225954  0.38122132  0.74206169  1
  O  O353  1  0.74207544  0.88341358  0.23608260  1
  O  O354  1  0.74488689  0.88526206  0.74756868  1
  O  O355  1  0.25532737  0.11256412  0.26305602  1
  O  O356  1  0.26227554  0.10461120  0.75733991  1
  O  O357  1  0.25626073  0.62484831  0.26496531  1
  O  O358  1  0.25770020  0.61408599  0.76336505  1
  O  O359  1  0.75854961  0.11499518  0.23603981  1
  O  O360  1  0.75560308  0.12232915  0.75826412  1
  O  O361  1  0.73429366  0.61920888  0.24971383  1
  O  O362  1  0.75594950  0.62078365  0.75178495  1
  O  O363  1  0.36027209  0.12795260  0.37595967  1
  O  O364  1  0.37650074  0.13315029  0.85619311  1
  O  O365  1  0.36659562  0.61743387  0.36922548  1
  O  O366  1  0.36946032  0.61688621  0.87334582  1
  O  O367  1  0.87399588  0.11379866  0.35865983  1
  O  O368  1  0.86970840  0.12199845  0.86854168  1
  O  O369  1  0.86850592  0.61208105  0.37509122  1
  O  O370  1  0.87097565  0.62004878  0.86797436  1
  O  O371  1  0.12370161  0.38848205  0.12316233  1
  O  O372  1  0.12754965  0.38606610  0.61910072  1
  O  O373  1  0.11869499  0.88705255  0.14076539  1
  O  O374  1  0.12771944  0.88818059  0.62679416  1
  O  O375  1  0.62971273  0.38049106  0.13012106  1
  O  O376  1  0.63083128  0.38213723  0.63082698  1
  O  O377  1  0.63299694  0.88282335  0.12989835  1
  O  O378  1  0.62906986  0.88780595  0.62917459  1
  O  O379  1  0.12696885  0.23900257  0.26522980  1
  O  O380  1  0.13207304  0.24521745  0.76399763  1
  O  O381  1  0.12554261  0.76238069  0.26579310  1
  O  O382  1  0.11526798  0.73931942  0.76142685  1
  O  O383  1  0.62085933  0.25702262  0.25521801  1
  O  O384  1  0.62011245  0.25622608  0.75360283  1
  O  O385  1  0.62832089  0.76740085  0.24152898  1
  O  O386  1  0.62020028  0.75921340  0.74755672  1
  O  O387  1  0.39155626  0.24826336  0.25992131  1
  O  O388  1  0.39447346  0.26047370  0.75294850  1
  O  O389  1  0.37074966  0.73694320  0.25220305  1
  O  O390  1  0.38270205  0.74235254  0.75126072  1
  O  O391  1  0.86947089  0.23846480  0.24136851  1
  O  O392  1  0.87496858  0.24712359  0.74118998  1
  O  O393  1  0.87326113  0.75037430  0.22835964  1
  O  O394  1  0.88200261  0.74716504  0.73998832  1
  O  O395  1  0.37746976  0.49088745  0.49378665  1
  O  O396  1  0.38115467  0.49489205  0.99596203  1
  O  O397  1  0.38493478  0.99534710  0.51309842  1
  O  O398  1  0.38598023  0.99445489  1.00316708  1
  O  O399  1  0.87742948  0.49402357  0.48923629  1
  O  O400  1  0.88326242  0.49668990  0.99332142  1
  O  O401  1  0.85824709  0.98670525  0.47681148  1
  O  O402  1  0.88782539  1.00964193  0.99271227  1
  O  O403  1  0.12091356  0.00433131  0.01096760  1
  O  O404  1  0.12614787  -0.00069329  0.51120755  1
  O  O405  1  0.11776013  0.50596854  0.00393764  1
  O  O406  1  0.10526287  0.49144251  0.48605746  1
  O  O407  1  0.61443159  0.00867965  0.00350895  1
  O  O408  1  0.62328569  0.00954580  0.50292910  1
  O  O409  1  0.61782849  0.50794148  0.00152033  1
  O  O410  1  0.61879326  0.50726333  0.50409985  1
  O  O411  1  0.36869426  0.38541545  0.11600712  1
  O  O412  1  0.37617271  0.38076683  0.61108449  1
  O  O413  1  0.37545466  0.87198600  0.11214673  1
  O  O414  1  0.36840538  0.87076525  0.61399393  1
  O  O415  1  0.86963873  0.36964992  0.11638014  1
  O  O416  1  0.87035129  0.36729879  0.61476159  1
  O  O417  1  0.87077801  0.86650854  0.12472734  1
  O  O418  1  0.87464193  0.86718712  0.61508452  1
  O  O419  1  0.14140986  0.13024144  0.37980720  1
  O  O420  1  0.12374430  0.12964731  0.89139092  1
  O  O421  1  0.13272360  0.63806312  0.36848579  1
  O  O422  1  0.13336352  0.62788713  0.88165789  1
  O  O423  1  0.62563459  0.13673495  0.38282991  1
  O  O424  1  0.62952951  0.13469544  0.87955444  1
  O  O425  1  0.62263506  0.62034194  0.38835738  1
  O  O426  1  0.63143193  0.62664536  0.88210422  1
