# generated using pymatgen
data_V85Zn86O256
_symmetry_space_group_name_H-M   'P 1'
_cell_length_a   16.95785669
_cell_length_b   16.96120029
_cell_length_c   16.96594336
_cell_angle_alpha   89.82137815
_cell_angle_beta   90.01298642
_cell_angle_gamma   90.05496340
_symmetry_Int_Tables_number   1
_chemical_formula_structural   V85Zn86O256
_chemical_formula_sum   'V85 Zn86 O256'
_cell_volume   4879.81362204
_cell_formula_units_Z   1
loop_
 _symmetry_equiv_pos_site_id
 _symmetry_equiv_pos_as_xyz
  1  'x, y, z'
loop_
 _atom_site_type_symbol
 _atom_site_label
 _atom_site_symmetry_multiplicity
 _atom_site_fract_x
 _atom_site_fract_y
 _atom_site_fract_z
 _atom_site_occupancy
  V  V0  1  0.87028030  0.86863329  0.00160189  1
  V  V1  1  0.38007447  0.13632379  0.75146544  1
  V  V2  1  0.74949734  0.24955593  -0.00239054  1
  V  V3  1  0.12703343  0.87575069  0.24953174  1
  V  V4  1  0.74943425  0.37508934  0.12340071  1
  V  V5  1  0.62908645  0.74844725  0.88364478  1
  V  V6  1  0.87575642  0.12611143  0.24904785  1
  V  V7  1  0.86964548  -0.00592999  0.87524858  1
  V  V8  1  0.74199398  0.86611013  0.12687221  1
  V  V9  1  0.62423947  0.74839258  0.36755377  1
  V  V10  1  0.87676076  0.75101099  0.62043067  1
  V  V11  1  0.25132386  0.00692787  0.25517786  1
  V  V12  1  0.37785183  0.25148580  0.61472908  1
  V  V13  1  0.49697215  0.38954028  0.38040585  1
  V  V14  1  0.12500348  0.37558731  0.74856633  1
  V  V15  1  0.37384267  -0.00214525  0.88458139  1
  V  V16  1  0.49615983  0.87444764  0.88507227  1
  V  V17  1  0.00732381  0.62080378  0.12311957  1
  V  V18  1  0.63036876  0.88468694  0.75476737  1
  V  V19  1  0.37793026  0.13435122  0.25516611  1
  V  V20  1  0.26577722  0.50816879  0.25066381  1
  V  V21  1  0.24730691  0.25298717  0.00002801  1
  V  V22  1  0.00668603  0.12344013  0.62392567  1
  V  V23  1  0.24308110  0.38345806  0.12256222  1
  V  V24  1  0.74679598  0.12112206  0.87253083  1
  V  V25  1  0.23896665  0.25225138  0.49496090  1
  V  V26  1  0.26570917  0.87213279  0.62239735  1
  V  V27  1  0.87672906  0.61935871  0.75531163  1
  V  V28  1  0.75386738  0.62411235  0.37555219  1
  V  V29  1  0.74900509  -0.00296970  0.24763551  1
  V  V30  1  0.12731027  0.75015784  0.37872799  1
  V  V31  1  0.75331817  0.75506989  0.50054937  1
  V  V32  1  0.22771727  0.13512938  0.37761960  1
  V  V33  1  0.37921091  0.25344995  0.12488610  1
  V  V34  1  0.61355326  0.25048296  0.37453568  1
  V  V35  1  0.62308824  0.12405623  0.50787859  1
  V  V36  1  0.24779226  0.62847199  0.87075695  1
  V  V37  1  0.75058322  0.12529187  0.37597192  1
  V  V38  1  0.12336114  0.63326404  -0.00821041  1
  V  V39  1  0.50410196  0.12721489  0.63004307  1
  V  V40  1  0.24873207  0.12636522  0.87411409  1
  V  V41  1  0.75189736  0.49762369  0.75752232  1
  V  V42  1  0.00664889  0.49873736  -0.00068472  1
  V  V43  1  0.00176516  0.00063582  0.49923981  1
  V  V44  1  0.12314131  0.24919728  0.87396218  1
  V  V45  1  0.00675970  0.25008877  0.25435773  1
  V  V46  1  0.87183219  -0.00429442  0.37895029  1
  V  V47  1  0.75155488  0.25097250  0.49943540  1
  V  V48  1  0.87872638  0.62342244  0.24690319  1
  V  V49  1  0.87492393  0.37454504  0.50015773  1
  V  V50  1  -0.00359877  0.37871277  0.87137844  1
  V  V51  1  0.61948864  0.36947234  0.24780744  1
  V  V52  1  0.51135245  0.61156985  0.62850783  1
  V  V53  1  0.61735567  0.24975176  0.87157523  1
  V  V54  1  0.74410204  0.37659923  0.62775522  1
  V  V55  1  -0.00316702  0.87380200  0.37953903  1
  V  V56  1  0.26598850  0.75591091  0.49671532  1
  V  V57  1  -0.00090863  0.62710153  0.62377927  1
  V  V58  1  0.12248746  0.38595861  0.25221498  1
  V  V59  1  0.49879947  0.75221025  0.74618217  1
  V  V60  1  0.00517595  0.75609885  0.76091217  1
  V  V61  1  0.49169344  0.50593350  -0.00687686  1
  V  V62  1  0.12857804  -0.00016856  0.61379430  1
  V  V63  1  0.12208853  0.12418227  -0.00155469  1
  V  V64  1  -0.00167604  0.50068439  0.50039988  1
  V  V65  1  0.49256523  0.37616846  0.87220326  1
  V  V66  1  0.87596081  0.24700228  0.62546791  1
  V  V67  1  0.62002211  0.37611168  0.74882891  1
  V  V68  1  0.48670045  0.74108600  0.25509141  1
  V  V69  1  0.12528076  0.50126337  0.62241394  1
  V  V70  1  0.25303738  0.37772553  0.61963278  1
  V  V71  1  0.75167007  0.62679168  0.88150406  1
  V  V72  1  0.37621649  0.62945328  0.74793248  1
  V  V73  1  0.25635833  0.50120348  0.75309319  1
  V  V74  1  0.24966811  0.00170662  0.74776820  1
  V  V75  1  -0.00372292  -0.00630430  -0.00239952  1
  V  V76  1  0.00174020  0.74833100  0.24716491  1
  V  V77  1  0.87513585  0.24948846  0.12385464  1
  V  V78  1  0.75195412  0.49773981  0.24690545  1
  V  V79  1  0.87874546  0.49679140  0.37376095  1
  V  V80  1  0.75310103  0.88260139  0.63023403  1
  V  V81  1  0.87429815  0.37993461  -0.00693983  1
  V  V82  1  0.87237114  0.11708306  0.74914725  1
  V  V83  1  0.12211790  0.00221978  0.12520628  1
  V  V84  1  0.25502675  0.75774106  -0.00634172  1
  Zn  Zn85  1  0.61856165  0.61096506  0.49961574  1
  Zn  Zn86  1  0.57895887  -0.03960556  0.59360386  1
  Zn  Zn87  1  0.62237918  0.50034803  0.12150100  1
  Zn  Zn88  1  0.12591321  0.86873774  0.75606452  1
  Zn  Zn89  1  0.61886914  0.12345847  0.00463216  1
  Zn  Zn90  1  0.36986427  0.37975055  -0.00652767  1
  Zn  Zn91  1  0.00128988  0.24434676  0.75101811  1
  Zn  Zn92  1  -0.00246725  0.12648068  0.12426264  1
  Zn  Zn93  1  0.62899529  0.62419462  0.00474347  1
  Zn  Zn94  1  0.12617858  0.62756419  0.49813049  1
  Zn  Zn95  1  0.49309391  0.61805884  0.13408382  1
  Zn  Zn96  1  0.25418568  0.88114967  0.11097741  1
  Zn  Zn97  1  0.37682014  0.40564394  0.48853178  1
  Zn  Zn98  1  0.37221366  0.74689060  0.12365647  1
  Zn  Zn99  1  0.57955761  0.90989154  0.28750458  1
  Zn  Zn100  1  0.00642169  0.36893476  0.38093400  1
  Zn  Zn101  1  0.26121344  0.62104824  0.37458709  1
  Zn  Zn102  1  0.45408387  -0.06840540  0.44034179  1
  Zn  Zn103  1  0.49716328  -0.00123717  0.00937445  1
  Zn  Zn104  1  0.87207600  0.74626198  0.12034283  1
  Zn  Zn105  1  0.49954707  0.12309338  0.12686997  1
  Zn  Zn106  1  0.61939088  0.00190901  0.12612845  1
  Zn  Zn107  1  0.18686462  0.19307006  0.18521764  1
  Zn  Zn108  1  0.18900299  0.18976134  0.68497187  1
  Zn  Zn109  1  0.18920053  0.68472591  0.18226325  1
  Zn  Zn110  1  0.18645808  0.69140736  0.68424188  1
  Zn  Zn111  1  0.68687711  0.18749967  0.18733722  1
  Zn  Zn112  1  0.68907417  0.19076759  0.69164049  1
  Zn  Zn113  1  0.68263981  0.68187414  0.18566027  1
  Zn  Zn114  1  0.68827343  0.69181254  0.69584594  1
  Zn  Zn115  1  0.31263045  0.31605254  0.31233844  1
  Zn  Zn116  1  0.30992391  0.31197484  0.80860327  1
  Zn  Zn117  1  0.32215098  0.82218382  0.30601197  1
  Zn  Zn118  1  0.31276658  0.81259885  0.81305927  1
  Zn  Zn119  1  0.81282799  0.31124373  0.31191823  1
  Zn  Zn120  1  0.81244753  0.30538478  0.81081943  1
  Zn  Zn121  1  0.81297682  0.81042740  0.30840651  1
  Zn  Zn122  1  0.81534836  0.80807723  0.81116406  1
  Zn  Zn123  1  0.18893308  0.43770588  0.43439335  1
  Zn  Zn124  1  0.18439769  0.44074536  0.93467107  1
  Zn  Zn125  1  0.29553202  0.95260515  0.43657474  1
  Zn  Zn126  1  0.17889037  0.93530141  0.92903163  1
  Zn  Zn127  1  0.68170866  0.43736471  0.43537074  1
  Zn  Zn128  1  0.68194896  0.43943833  0.93632585  1
  Zn  Zn129  1  0.62562828  0.93681769  0.44210649  1
  Zn  Zn130  1  0.68376104  0.93698617  0.94470641  1
  Zn  Zn131  1  0.30966785  0.06781770  0.06660832  1
  Zn  Zn132  1  0.31156014  0.06703784  0.56447667  1
  Zn  Zn133  1  0.31414253  0.56688577  0.06237095  1
  Zn  Zn134  1  0.31195984  0.57743019  0.57034587  1
  Zn  Zn135  1  0.80843346  0.06143964  0.06199549  1
  Zn  Zn136  1  0.81313648  0.06128183  0.55878255  1
  Zn  Zn137  1  0.81785451  0.55887915  0.06212463  1
  Zn  Zn138  1  0.77894959  0.54094884  0.54509169  1
  Zn  Zn139  1  0.43770057  0.43489924  0.18354241  1
  Zn  Zn140  1  0.43589448  0.43533803  0.68620401  1
  Zn  Zn141  1  0.43151081  0.92744312  0.18439552  1
  Zn  Zn142  1  0.43711248  0.94034278  0.70070992  1
  Zn  Zn143  1  0.93848484  0.43633865  0.18292424  1
  Zn  Zn144  1  0.93472998  0.43800474  0.68618683  1
  Zn  Zn145  1  0.93440965  0.93496017  0.18672718  1
  Zn  Zn146  1  0.93541602  0.93731222  0.68711162  1
  Zn  Zn147  1  0.06017639  0.06306145  0.31305133  1
  Zn  Zn148  1  0.06756664  0.03979773  0.81772481  1
  Zn  Zn149  1  0.06705622  0.56206858  0.31387949  1
  Zn  Zn150  1  0.06448311  0.56162602  0.81067165  1
  Zn  Zn151  1  0.56046511  0.07347776  0.31474613  1
  Zn  Zn152  1  0.55786234  0.06255348  0.81546084  1
  Zn  Zn153  1  0.56818730  0.56039298  0.30848001  1
  Zn  Zn154  1  0.56622334  0.56009217  0.81264882  1
  Zn  Zn155  1  0.41462689  0.12987339  0.45651598  1
  Zn  Zn156  1  0.43608610  0.18797651  0.94297619  1
  Zn  Zn157  1  0.44104167  0.67431221  0.44028355  1
  Zn  Zn158  1  0.43273015  0.68704661  0.93089440  1
  Zn  Zn159  1  0.93897120  0.18559884  0.43721249  1
  Zn  Zn160  1  0.93675151  0.18571407  0.93643693  1
  Zn  Zn161  1  0.93564044  0.68772201  0.43759803  1
  Zn  Zn162  1  0.93690298  0.68776376  0.93657129  1
  Zn  Zn163  1  0.06196346  0.31242789  0.06499421  1
  Zn  Zn164  1  0.06071808  0.31324268  0.56586278  1
  Zn  Zn165  1  0.06321781  0.81124290  0.06136098  1
  Zn  Zn166  1  0.06867204  0.81855495  0.56491032  1
  Zn  Zn167  1  0.56171609  0.31564888  0.05613372  1
  Zn  Zn168  1  0.55914266  0.31168878  0.55895675  1
  Zn  Zn169  1  0.55918745  0.80753072  0.06991024  1
  Zn  Zn170  1  0.56796767  0.79288355  0.55893602  1
  O  O171  1  0.12403754  0.11632048  0.11847887  1
  O  O172  1  0.11359888  0.12110989  0.62554861  1
  O  O173  1  0.11313660  0.62709712  0.11153030  1
  O  O174  1  0.11272977  0.62120247  0.62462506  1
  O  O175  1  0.61874640  0.12462314  0.12531051  1
  O  O176  1  0.61600082  0.13890149  0.62157196  1
  O  O177  1  0.61597972  0.61987852  0.12038793  1
  O  O178  1  0.61353445  0.62634012  0.63820801  1
  O  O179  1  0.39318340  0.37489462  0.37054854  1
  O  O180  1  0.38776734  0.36636656  0.87111127  1
  O  O181  1  0.36892027  0.88769680  0.38153133  1
  O  O182  1  0.38396646  0.88675172  0.86570350  1
  O  O183  1  0.87615369  0.38049152  0.38213977  1
  O  O184  1  0.88432700  0.36586981  0.88190470  1
  O  O185  1  0.88775739  0.88202487  0.36622710  1
  O  O186  1  0.86058520  0.88522933  0.88528135  1
  O  O187  1  0.23936913  0.02304294  0.36507179  1
  O  O188  1  0.25667799  0.00663797  0.86531321  1
  O  O189  1  0.24177295  0.50170409  0.35455038  1
  O  O190  1  0.24294856  0.50911326  0.86033293  1
  O  O191  1  0.75983577  0.00444321  0.36572148  1
  O  O192  1  0.75716274  0.01134424  0.88326039  1
  O  O193  1  0.75955069  0.50682888  0.36644717  1
  O  O194  1  0.74843694  0.50691858  0.86422795  1
  O  O195  1  0.25410761  0.49231231  0.13426562  1
  O  O196  1  0.24580144  0.49825067  0.63039813  1
  O  O197  1  0.23672976  1.00039325  0.13203711  1
  O  O198  1  0.24832281  0.99231349  0.62599951  1
  O  O199  1  0.75134181  0.49166888  0.12955119  1
  O  O200  1  0.76036326  0.48282643  0.64298829  1
  O  O201  1  0.75161787  0.99143119  0.13574085  1
  O  O202  1  0.76096256  0.98112334  0.62311383  1
  O  O203  1  0.01030673  0.37069767  0.24680805  1
  O  O204  1  0.00449536  0.37460910  0.75619364  1
  O  O205  1  0.00822278  0.87045321  0.25458507  1
  O  O206  1  -0.00406704  0.85724495  0.74138974  1
  O  O207  1  0.51341773  0.38008453  0.25854138  1
  O  O208  1  0.51032535  0.38226089  0.75717444  1
  O  O209  1  0.49391117  0.85003137  0.25348013  1
  O  O210  1  0.50856267  0.86913219  0.75978471  1
  O  O211  1  0.48074622  0.12502685  0.25062526  1
  O  O212  1  0.48807720  0.12887830  0.74845127  1
  O  O213  1  0.50577253  0.63516740  0.25335642  1
  O  O214  1  0.49482132  0.63020698  0.74946061  1
  O  O215  1  0.99417210  0.13289657  0.24728087  1
  O  O216  1  0.99116111  0.11950441  0.73992675  1
  O  O217  1  1.00003687  0.62656626  0.24025262  1
  O  O218  1  0.99544733  0.63185250  0.74399412  1
  O  O219  1  0.36302776  0.25411031  0.00684553  1
  O  O220  1  0.36360224  0.23547994  0.51115964  1
  O  O221  1  0.35751839  0.75209635  -0.00754267  1
  O  O222  1  0.36410040  0.74784897  0.49271600  1
  O  O223  1  0.87078252  0.25884625  0.00309123  1
  O  O224  1  0.87135783  0.25397547  0.50557068  1
  O  O225  1  0.88104933  0.76417776  -0.00002414  1
  O  O226  1  0.87066073  0.74997099  0.51094041  1
  O  O227  1  0.13936501  0.26123477  0.50187895  1
  O  O228  1  0.12734522  0.24471010  0.99423925  1
  O  O229  1  0.12970873  0.75532333  0.48868466  1
  O  O230  1  0.12655189  0.73898953  0.99469655  1
  O  O231  1  0.63251532  0.24455630  0.49300663  1
  O  O232  1  0.63247632  0.25090606  0.98785070  1
  O  O233  1  0.63840475  0.73345486  0.48880428  1
  O  O234  1  0.61692027  0.74593101  0.98708332  1
  O  O235  1  0.48183065  0.25628167  0.11782718  1
  O  O236  1  0.48862517  0.24202617  0.62136618  1
  O  O237  1  0.49696847  0.74576034  0.14372392  1
  O  O238  1  0.50688797  0.74483523  0.64315854  1
  O  O239  1  0.99231375  0.24907267  0.13310661  1
  O  O240  1  0.99477510  0.23941256  0.62602125  1
  O  O241  1  0.99987199  0.73930511  0.12966334  1
  O  O242  1  0.99495985  0.74360059  0.62587412  1
  O  O243  1  -0.00749077  0.25254588  0.36060095  1
  O  O244  1  0.00538685  0.25923428  0.87370362  1
  O  O245  1  0.00539808  0.75510736  0.37006192  1
  O  O246  1  -0.00257825  0.74774558  0.85966381  1
  O  O247  1  0.51470880  0.25870715  0.37637968  1
  O  O248  1  0.51024714  0.25843321  0.88131283  1
  O  O249  1  0.51748587  0.73674221  0.37442197  1
  O  O250  1  0.50575877  0.75678137  0.86789512  1
  O  O251  1  0.24705924  0.13392297  0.48424916  1
  O  O252  1  0.24151526  0.13136410  0.99352366  1
  O  O253  1  0.24379836  0.64770563  0.50621878  1
  O  O254  1  0.24157066  0.63138004  0.98848810  1
  O  O255  1  0.74647275  0.13357218  0.49696123  1
  O  O256  1  0.75009139  0.13244792  0.98854535  1
  O  O257  1  0.76568762  0.63870925  0.48416389  1
  O  O258  1  0.75347809  0.61563634  0.98524903  1
  O  O259  1  0.24725352  0.37407996  0.00502964  1
  O  O260  1  0.26069234  0.37191487  0.49990317  1
  O  O261  1  0.23729213  0.86198463  -0.00759168  1
  O  O262  1  0.25398288  0.86995282  0.51330535  1
  O  O263  1  0.75745885  0.37131185  0.00035877  1
  O  O264  1  0.75532838  0.36911687  0.50949806  1
  O  O265  1  0.75768995  0.87995425  0.01764370  1
  O  O266  1  0.74054242  0.85909452  0.51880954  1
  O  O267  1  0.12337947  0.48831202  0.24293782  1
  O  O268  1  0.13339781  0.49546590  0.74183380  1
  O  O269  1  0.12689293  0.99630170  0.24256567  1
  O  O270  1  0.14444201  1.01643303  0.72899849  1
  O  O271  1  0.63515600  0.48703732  0.24639384  1
  O  O272  1  0.63734694  0.48579233  0.75416304  1
  O  O273  1  0.63931297  1.00254612  0.24947023  1
  O  O274  1  0.62241996  0.98489583  0.75794362  1
  O  O275  1  0.35592378  0.01897275  0.24061821  1
  O  O276  1  0.36428816  0.01323646  0.75769084  1
  O  O277  1  0.36433750  0.49644150  0.24963608  1
  O  O278  1  0.36219022  0.50808911  0.74458591  1
  O  O279  1  0.87117940  0.00527923  0.25845017  1
  O  O280  1  0.87894172  0.00708390  0.76056053  1
  O  O281  1  0.87282943  0.50347672  0.25287982  1
  O  O282  1  0.87003679  0.51093077  0.74904778  1
  O  O283  1  0.12378445  0.37643126  0.35682218  1
  O  O284  1  0.11637699  0.36974559  0.86866099  1
  O  O285  1  0.11065776  0.86469053  0.36358881  1
  O  O286  1  0.10585091  0.92922644  0.84787414  1
  O  O287  1  0.61963366  0.36924196  0.36899056  1
  O  O288  1  0.61712870  0.36760585  0.86754277  1
  O  O289  1  0.64202875  0.85079494  0.37120832  1
  O  O290  1  0.61982193  0.86767481  0.87293648  1
  O  O291  1  0.36924775  0.13760147  0.13553745  1
  O  O292  1  0.38143491  0.13286856  0.63338619  1
  O  O293  1  0.38099417  0.63544558  0.11744067  1
  O  O294  1  0.38878509  0.62730613  0.64106857  1
  O  O295  1  0.87325657  0.13148201  0.13073735  1
  O  O296  1  0.88034425  0.12522310  0.63204585  1
  O  O297  1  0.88642617  0.62634975  0.12773697  1
  O  O298  1  0.88741760  0.63297819  0.63542435  1
  O  O299  1  0.25375053  0.26100021  0.11763758  1
  O  O300  1  0.25509931  0.25811791  0.61547720  1
  O  O301  1  0.24259811  0.74761069  0.10087691  1
  O  O302  1  0.24627500  0.76526658  0.61486239  1
  O  O303  1  0.75594456  0.25597733  0.11758765  1
  O  O304  1  0.75726274  0.25731055  0.62131822  1
  O  O305  1  0.75162601  0.76236155  0.13487078  1
  O  O306  1  0.75975840  0.74690253  0.61984173  1
  O  O307  1  0.25116054  0.24302902  0.37980415  1
  O  O308  1  0.24276489  0.24647863  0.87933096  1
  O  O309  1  0.24529933  0.75161228  0.38600098  1
  O  O310  1  0.24683275  0.74232655  0.88077017  1
  O  O311  1  0.74666863  0.24397821  0.38146313  1
  O  O312  1  0.74225554  0.24125579  0.87887179  1
  O  O313  1  0.74959525  0.74191977  0.37867954  1
  O  O314  1  0.74093886  0.73891984  0.86885829  1
  O  O315  1  0.00327418  0.11470620  0.00298872  1
  O  O316  1  -0.00874267  0.11299419  0.51179451  1
  O  O317  1  0.00384504  0.61827288  0.00127794  1
  O  O318  1  0.00012184  0.61997486  0.50932108  1
  O  O319  1  0.49889545  0.11981008  0.00655223  1
  O  O320  1  0.51383706  0.12678657  0.51265261  1
  O  O321  1  0.49995562  0.61072133  -0.01329978  1
  O  O322  1  0.50604990  0.63299992  0.52483225  1
  O  O323  1  0.49772636  0.37645440  0.48611663  1
  O  O324  1  0.49627999  0.38438008  0.98809927  1
  O  O325  1  0.53534455  0.88957772  0.51136931  1
  O  O326  1  0.50108576  0.87174941  0.98773017  1
  O  O327  1  0.99340188  0.38177623  0.50123608  1
  O  O328  1  0.99580053  0.38035373  0.99284599  1
  O  O329  1  1.00477383  0.88605812  0.48979427  1
  O  O330  1  0.99054888  0.88707864  1.00741746  1
  O  O331  1  0.51196612  0.48839399  0.37743564  1
  O  O332  1  0.50470991  0.48894416  0.88250886  1
  O  O333  1  0.53687230  0.98079424  0.37383307  1
  O  O334  1  0.48895505  0.99129416  0.87619511  1
  O  O335  1  0.99552399  0.49872215  0.38244679  1
  O  O336  1  1.00391633  0.48698152  0.88103395  1
  O  O337  1  0.99396861  0.99436122  0.38032431  1
  O  O338  1  0.97885699  1.01029349  0.88897520  1
  O  O339  1  0.00748937  0.00180533  0.11935515  1
  O  O340  1  0.00615682  0.00261203  0.61881321  1
  O  O341  1  -0.00449799  0.50906071  0.11147479  1
  O  O342  1  0.00372630  0.50822891  0.62081766  1
  O  O343  1  0.49876440  -0.00251591  0.12852065  1
  O  O344  1  0.49649543  0.02005936  0.63954600  1
  O  O345  1  0.49973526  0.49715946  0.10776025  1
  O  O346  1  0.50125334  0.51222000  0.63192052  1
  O  O347  1  0.23943746  0.38426429  0.24364376  1
  O  O348  1  0.24601261  0.38419263  0.74248539  1
  O  O349  1  0.23386798  0.88960231  0.26133678  1
  O  O350  1  0.25009870  0.88377386  0.74010205  1
  O  O351  1  0.74505473  0.37877127  0.24349149  1
  O  O352  1  0.74569511  0.37812026  0.74740121  1
  O  O353  1  0.75765996  0.88448962  0.23841676  1
  O  O354  1  0.74380342  0.86564669  0.73923073  1
  O  O355  1  0.24747396  0.12556105  0.25892702  1
  O  O356  1  0.25934732  0.12146358  0.75296448  1
  O  O357  1  0.24829423  0.61263534  0.24861435  1
  O  O358  1  0.25494070  0.62252256  0.75031694  1
  O  O359  1  0.75645281  0.11750044  0.25581187  1
  O  O360  1  0.76032067  0.12798304  0.75946451  1
  O  O361  1  0.75819368  0.61935436  0.25618680  1
  O  O362  1  0.75813070  0.61673607  0.75589781  1
  O  O363  1  0.36181605  0.13388136  0.35667627  1
  O  O364  1  0.36918414  0.12189251  0.86820859  1
  O  O365  1  0.37183439  0.58317795  0.41335158  1
  O  O366  1  0.35924649  0.62551313  0.86207993  1
  O  O367  1  0.87086642  0.11549966  0.36989442  1
  O  O368  1  0.86570878  0.11964702  0.86813838  1
  O  O369  1  0.87250139  0.61833110  0.36644479  1
  O  O370  1  0.86654567  0.63277951  0.86303505  1
  O  O371  1  0.13506385  0.37270718  0.13273578  1
  O  O372  1  0.13182748  0.38186699  0.62929212  1
  O  O373  1  0.12666228  0.88343974  0.13351890  1
  O  O374  1  0.13461620  0.88775426  0.63163275  1
  O  O375  1  0.63121884  0.37136168  0.13265023  1
  O  O376  1  0.63595729  0.36255474  0.63432091  1
  O  O377  1  0.63886389  0.87430170  0.12504100  1
  O  O378  1  0.63864170  0.86982547  0.63826530  1
  O  O379  1  0.11365506  0.26179937  0.24193171  1
  O  O380  1  0.12447288  0.25727152  0.75500433  1
  O  O381  1  0.12382406  0.75707157  0.25458285  1
  O  O382  1  0.11055530  0.75078955  0.74583835  1
  O  O383  1  0.63484833  0.26067744  0.26141050  1
  O  O384  1  0.63135195  0.26255211  0.76243172  1
  O  O385  1  0.62280396  0.74362591  0.26451865  1
  O  O386  1  0.61772673  0.75908862  0.76411792  1
  O  O387  1  0.36404362  0.24160315  0.23884857  1
  O  O388  1  0.36439240  0.24232738  0.73432548  1
  O  O389  1  0.38694886  0.73346627  0.27383986  1
  O  O390  1  0.38628521  0.74199257  0.75785737  1
  O  O391  1  0.88144574  0.24610797  0.24292642  1
  O  O392  1  0.87877436  0.23597908  0.74424724  1
  O  O393  1  0.88519202  0.74062807  0.24873196  1
  O  O394  1  0.88501499  0.74035852  0.74138902  1
  O  O395  1  0.36668972  0.52882656  0.48130662  1
  O  O396  1  0.38652601  0.49813793  0.99746326  1
  O  O397  1  0.37991540  1.01957938  0.48751571  1
  O  O398  1  0.36747820  1.00392186  0.98717331  1
  O  O399  1  0.87703721  0.49358907  0.49486017  1
  O  O400  1  0.88604458  0.48602300  0.99870000  1
  O  O401  1  0.88323758  1.00039861  0.48653651  1
  O  O402  1  0.87845867  0.99145575  0.99666346  1
  O  O403  1  0.11610728  0.00341360  0.00799469  1
  O  O404  1  0.11343370  0.00385290  0.51000807  1
  O  O405  1  0.11334209  0.51133443  -0.00482464  1
  O  O406  1  0.11939173  0.50268500  0.50496123  1
  O  O407  1  0.61867384  0.00425127  0.00616029  1
  O  O408  1  0.64399249  0.02139916  0.51525004  1
  O  O409  1  0.61191156  0.50105647  0.00092984  1
  O  O410  1  0.66931810  0.51325681  0.51298186  1
  O  O411  1  0.36079389  0.36800700  0.12433912  1
  O  O412  1  0.37202328  0.36982330  0.61505488  1
  O  O413  1  0.35229278  0.85350401  0.15715588  1
  O  O414  1  0.36430831  0.88023354  0.63256678  1
  O  O415  1  0.87014831  0.36947223  0.11343172  1
  O  O416  1  0.86779825  0.36680670  0.62135723  1
  O  O417  1  0.86628666  0.87129843  0.11852767  1
  O  O418  1  0.86265896  0.86251960  0.63364612  1
  O  O419  1  0.12864038  0.13481375  0.37121550  1
  O  O420  1  0.12878186  0.12782568  0.87843559  1
  O  O421  1  0.12855650  0.63958623  0.37504893  1
  O  O422  1  0.13463337  0.62214894  0.87924325  1
  O  O423  1  0.63069595  0.13378633  0.38533284  1
  O  O424  1  0.63184830  0.13331757  0.87064787  1
  O  O425  1  0.64206025  0.62863625  0.37400494  1
  O  O426  1  0.63534584  0.63224668  0.87363278  1
