# generated using pymatgen
data_V85Zn86O256
_symmetry_space_group_name_H-M   'P 1'
_cell_length_a   16.97969342
_cell_length_b   16.96959154
_cell_length_c   16.96691052
_cell_angle_alpha   89.99190295
_cell_angle_beta   90.10738788
_cell_angle_gamma   90.11825337
_symmetry_Int_Tables_number   1
_chemical_formula_structural   V85Zn86O256
_chemical_formula_sum   'V85 Zn86 O256'
_cell_volume   4888.80045097
_cell_formula_units_Z   1
loop_
 _symmetry_equiv_pos_site_id
 _symmetry_equiv_pos_as_xyz
  1  'x, y, z'
loop_
 _atom_site_type_symbol
 _atom_site_label
 _atom_site_symmetry_multiplicity
 _atom_site_fract_x
 _atom_site_fract_y
 _atom_site_fract_z
 _atom_site_occupancy
  V  V0  1  0.12645880  0.62592871  0.49744036  1
  V  V1  1  0.87303474  0.25476543  0.61256897  1
  V  V2  1  0.75371941  0.11861597  0.87758361  1
  V  V3  1  -0.00303931  0.48747205  0.49495990  1
  V  V4  1  0.25496349  0.11830329  0.87007138  1
  V  V5  1  0.37403945  0.62496476  0.24950367  1
  V  V6  1  0.74418169  0.24620805  0.00299487  1
  V  V7  1  0.37094314  0.24328724  0.64328292  1
  V  V8  1  0.49846984  0.36374074  0.37111087  1
  V  V9  1  0.62722754  0.24588800  0.39673450  1
  V  V10  1  0.87360182  0.00018180  0.37672762  1
  V  V11  1  0.87366639  0.75265598  0.62355111  1
  V  V12  1  0.11559181  0.49978095  0.11991077  1
  V  V13  1  0.24895574  0.14350419  0.37910039  1
  V  V14  1  0.00221458  0.87497740  0.87589731  1
  V  V15  1  0.50066871  0.50608232  -0.00945199  1
  V  V16  1  -0.00094618  0.12505170  0.12802493  1
  V  V17  1  0.12609291  0.86794373  0.75417786  1
  V  V18  1  0.74431100  0.49556102  0.74892345  1
  V  V19  1  0.25118943  0.00193061  0.25436251  1
  V  V20  1  0.37658687  0.75054121  0.62086870  1
  V  V21  1  0.12095357  0.25052822  0.87377244  1
  V  V22  1  0.52006159  0.35784725  0.86500759  1
  V  V23  1  0.12001288  0.37324009  0.26361530  1
  V  V24  1  0.75060403  0.61757129  0.37042109  1
  V  V25  1  0.00074498  0.62522542  0.62261907  1
  V  V26  1  0.25001710  0.62634041  0.37230644  1
  V  V27  1  0.61690192  0.35668122  0.24547024  1
  V  V28  1  0.87374974  0.25095290  0.12699950  1
  V  V29  1  0.49876273  0.49722689  0.49884952  1
  V  V30  1  0.87583580  0.62253200  0.74943459  1
  V  V31  1  0.62588883  0.75719530  0.36928698  1
  V  V32  1  0.87853175  0.49022798  0.37643395  1
  V  V33  1  0.52258191  0.13843807  0.62753188  1
  V  V34  1  0.87277066  0.62007950  0.25015360  1
  V  V35  1  0.87584451  0.87408758  0.50256965  1
  V  V36  1  0.62533059  0.50089438  0.13554205  1
  V  V37  1  0.50379280  0.76035516  0.24909225  1
  V  V38  1  0.12496490  0.37480571  0.75210242  1
  V  V39  1  0.62519496  0.62180220  0.49808056  1
  V  V40  1  0.24496777  0.87579795  0.12924448  1
  V  V41  1  0.24753166  0.50138627  0.24906660  1
  V  V42  1  0.00189189  0.25398228  0.26388367  1
  V  V43  1  0.00209085  0.00030424  0.50093417  1
  V  V44  1  0.00181289  0.75326709  0.24879537  1
  V  V45  1  0.12573095  0.75543779  0.37030737  1
  V  V46  1  0.24990570  0.37302074  0.12504383  1
  V  V47  1  0.37001331  0.36161009  0.50174629  1
  V  V48  1  0.63194786  -0.02508064  0.62441507  1
  V  V49  1  0.24348670  0.75015538  -0.00698747  1
  V  V50  1  0.12218872  -0.00210752  0.13071155  1
  V  V51  1  0.62529314  0.62873586  0.00102768  1
  V  V52  1  0.50436841  0.75503369  0.74670579  1
  V  V53  1  0.12780212  0.00118872  0.62654067  1
  V  V54  1  0.74464986  0.12776710  0.38760706  1
  V  V55  1  0.74953283  0.37348702  0.60688729  1
  V  V56  1  0.50088107  0.62435372  0.62253509  1
  V  V57  1  0.25366915  0.87617511  0.62164940  1
  V  V58  1  0.38170606  0.14223648  0.23489797  1
  V  V59  1  0.12312095  0.12375020  0.00105501  1
  V  V60  1  0.11922120  0.62236075  -0.00305247  1
  V  V61  1  0.49782347  0.88216980  0.87056613  1
  V  V62  1  0.62183183  0.12368602  -0.00129082  1
  V  V63  1  0.62176785  -0.00466310  0.12801569  1
  V  V64  1  0.37173914  0.88093221  -0.00713435  1
  V  V65  1  0.87437348  0.88280238  -0.00451808  1
  V  V66  1  0.74294732  -0.00705515  0.25215850  1
  V  V67  1  0.12959938  0.13642228  0.49804953  1
  V  V68  1  0.75162615  0.75170408  0.50106725  1
  V  V69  1  0.12928727  0.49932242  0.62562070  1
  V  V70  1  0.87297528  0.12447027  0.25261420  1
  V  V71  1  0.62492938  0.75678488  0.87016773  1
  V  V72  1  0.75027319  0.75352171  -0.00043868  1
  V  V73  1  0.49723576  0.00331051  0.00222656  1
  V  V74  1  0.49912772  0.62604603  0.12570900  1
  V  V75  1  0.87419584  0.75110244  0.12453223  1
  V  V76  1  0.39310604  0.36226392  0.01275220  1
  V  V77  1  0.75139177  0.62749743  0.87341054  1
  V  V78  1  0.75197129  -0.01261374  0.74998824  1
  V  V79  1  0.25274425  0.24962113  0.00490365  1
  V  V80  1  0.74672887  0.37804769  0.12984107  1
  V  V81  1  0.87595811  0.12521746  0.75403405  1
  V  V82  1  0.00215036  0.87562277  0.37309655  1
  V  V83  1  0.37414228  0.75078348  0.12390244  1
  V  V84  1  0.25120858  0.62355949  0.87447736  1
  Zn  Zn85  1  0.38083532  0.00450268  0.37743270  1
  Zn  Zn86  1  0.37665020  0.48941689  0.87126694  1
  Zn  Zn87  1  0.00068221  0.12798608  0.62691288  1
  Zn  Zn88  1  -0.00781851  0.25324501  0.75391275  1
  Zn  Zn89  1  0.24805278  0.36811364  0.62339360  1
  Zn  Zn90  1  -0.00784573  0.00479469  -0.00620181  1
  Zn  Zn91  1  0.37699352  0.62084821  0.75213904  1
  Zn  Zn92  1  0.37406737  0.49833839  0.37505790  1
  Zn  Zn93  1  0.74648315  0.87300757  0.12911376  1
  Zn  Zn94  1  0.00056235  0.38632605  0.88782774  1
  Zn  Zn95  1  0.25365211  0.75166593  0.49533382  1
  Zn  Zn96  1  0.39606124  0.11134201  0.76100954  1
  Zn  Zn97  1  0.38244888  0.88198224  0.49532125  1
  Zn  Zn98  1  0.88210405  0.38140961  -0.00073234  1
  Zn  Zn99  1  -0.00423787  0.62216627  0.11884651  1
  Zn  Zn100  1  0.26176277  -0.00664577  0.75585242  1
  Zn  Zn101  1  0.50195528  0.88546498  0.37337027  1
  Zn  Zn102  1  0.00514850  0.74702358  0.75593703  1
  Zn  Zn103  1  0.50756832  0.00526207  0.49819633  1
  Zn  Zn104  1  0.62233315  0.49073869  0.62665946  1
  Zn  Zn105  1  0.88117689  0.49649737  0.88316160  1
  Zn  Zn106  1  0.25385101  0.49858801  0.75125609  1
  Zn  Zn107  1  0.18670731  0.18935341  0.19237051  1
  Zn  Zn108  1  0.18851509  0.18923204  0.68727176  1
  Zn  Zn109  1  0.18556401  0.68718817  0.18347827  1
  Zn  Zn110  1  0.19146745  0.68754471  0.68716429  1
  Zn  Zn111  1  0.68483996  0.17735923  0.18700927  1
  Zn  Zn112  1  0.69575330  0.19855229  0.69774332  1
  Zn  Zn113  1  0.68824374  0.68859603  0.18776188  1
  Zn  Zn114  1  0.68685115  0.68594086  0.68508415  1
  Zn  Zn115  1  0.31039429  0.31562363  0.31066114  1
  Zn  Zn116  1  0.31397890  0.31534986  0.82233939  1
  Zn  Zn117  1  0.31674559  0.81532696  0.31281673  1
  Zn  Zn118  1  0.31464906  0.80937299  0.80814273  1
  Zn  Zn119  1  0.80533780  0.30888567  0.31136521  1
  Zn  Zn120  1  0.80007760  0.30889865  0.81258344  1
  Zn  Zn121  1  0.81476860  0.81047282  0.31510504  1
  Zn  Zn122  1  0.81992948  0.80995407  0.81483409  1
  Zn  Zn123  1  0.18851876  0.44042390  0.43981473  1
  Zn  Zn124  1  0.18997202  0.43793912  0.93902641  1
  Zn  Zn125  1  0.18836189  0.94006376  0.43898850  1
  Zn  Zn126  1  0.18252704  0.93826966  0.93906462  1
  Zn  Zn127  1  0.68500043  0.43474763  0.43045012  1
  Zn  Zn128  1  0.69544889  0.44110120  0.94143761  1
  Zn  Zn129  1  0.68841478  0.93869015  0.44045003  1
  Zn  Zn130  1  0.68682036  0.93891793  0.93625100  1
  Zn  Zn131  1  0.31123176  0.06297494  0.06252968  1
  Zn  Zn132  1  0.31689526  0.06444363  0.56198648  1
  Zn  Zn133  1  0.31181901  0.55730143  0.06096263  1
  Zn  Zn134  1  0.31466247  0.56308686  0.55921498  1
  Zn  Zn135  1  0.80867552  0.06112262  0.06843700  1
  Zn  Zn136  1  0.81172389  0.06175644  0.56943174  1
  Zn  Zn137  1  0.81055733  0.56348664  0.06418808  1
  Zn  Zn138  1  0.81331452  0.55968400  0.55900651  1
  Zn  Zn139  1  0.43851434  0.43880017  0.18760315  1
  Zn  Zn140  1  0.43778884  0.43535095  0.68953308  1
  Zn  Zn141  1  0.43028654  0.94430940  0.18513846  1
  Zn  Zn142  1  0.44319030  0.94380488  0.68270373  1
  Zn  Zn143  1  0.93710626  0.43494358  0.18966397  1
  Zn  Zn144  1  0.93743584  0.43559775  0.68943412  1
  Zn  Zn145  1  0.93345526  0.93676987  0.18685560  1
  Zn  Zn146  1  0.93983807  0.93931634  0.69102833  1
  Zn  Zn147  1  0.06432268  0.06649453  0.31477217  1
  Zn  Zn148  1  0.06259447  0.05786014  0.81112433  1
  Zn  Zn149  1  0.06024113  0.56264743  0.31031585  1
  Zn  Zn150  1  0.06453550  0.56208752  0.81453555  1
  Zn  Zn151  1  0.55948198  0.07127952  0.30888031  1
  Zn  Zn152  1  0.57262723  0.06312054  0.80771788  1
  Zn  Zn153  1  0.55908140  0.56289524  0.31406063  1
  Zn  Zn154  1  0.56599893  0.56844779  0.80854874  1
  Zn  Zn155  1  0.43799017  0.17814783  0.44141621  1
  Zn  Zn156  1  0.43979147  0.18872942  0.93501642  1
  Zn  Zn157  1  0.43913145  0.68984706  0.43420979  1
  Zn  Zn158  1  0.43443131  0.69134860  0.93619812  1
  Zn  Zn159  1  0.93765702  0.18238135  0.44012425  1
  Zn  Zn160  1  0.93401581  0.19211574  0.93944826  1
  Zn  Zn161  1  0.93945026  0.68267238  0.43582863  1
  Zn  Zn162  1  0.93873678  0.69265129  0.93472763  1
  Zn  Zn163  1  0.06215934  0.31209130  0.06882174  1
  Zn  Zn164  1  0.05826530  0.31163916  0.56808444  1
  Zn  Zn165  1  0.05980301  0.81102118  0.06043986  1
  Zn  Zn166  1  0.06462503  0.81272431  0.56134910  1
  Zn  Zn167  1  0.56672133  0.31897699  0.05000220  1
  Zn  Zn168  1  0.55905352  0.31427767  0.56998290  1
  Zn  Zn169  1  0.56083847  0.81582306  0.06035936  1
  Zn  Zn170  1  0.56291698  0.81188596  0.55445365  1
  O  O171  1  0.12096518  0.11940776  0.11842733  1
  O  O172  1  0.12836230  0.11499017  0.61927708  1
  O  O173  1  0.12337522  0.61663078  0.11620089  1
  O  O174  1  0.11892169  0.61895274  0.62060258  1
  O  O175  1  0.62863271  0.10864384  0.11127461  1
  O  O176  1  0.62258857  0.14531104  0.62897653  1
  O  O177  1  0.62074728  0.61888098  0.12192737  1
  O  O178  1  0.61811358  0.62366690  0.61394420  1
  O  O179  1  0.38165973  0.37293982  0.38574879  1
  O  O180  1  0.38984690  0.37075742  0.89255504  1
  O  O181  1  0.38009099  0.88198208  0.37625652  1
  O  O182  1  0.38334148  0.86860737  0.88401454  1
  O  O183  1  0.86319871  0.39271691  0.36215978  1
  O  O184  1  0.87487715  0.37098614  0.87552253  1
  O  O185  1  0.88172269  0.88052475  0.38284144  1
  O  O186  1  0.88453536  0.87159642  0.88718773  1
  O  O187  1  0.24846156  -0.00034824  0.36106526  1
  O  O188  1  0.24495876  0.01522910  0.87867874  1
  O  O189  1  0.25109649  0.50858583  0.36711556  1
  O  O190  1  0.25634773  0.50925009  0.87693996  1
  O  O191  1  0.75229889  0.00604919  0.36964939  1
  O  O192  1  0.74660343  0.00655707  0.86276598  1
  O  O193  1  0.75660582  0.51309819  0.38085912  1
  O  O194  1  0.74917550  0.50898716  0.85895406  1
  O  O195  1  0.23733804  0.49525442  0.13039523  1
  O  O196  1  0.23703840  0.50048319  0.62258227  1
  O  O197  1  0.24140885  0.99446844  0.13067728  1
  O  O198  1  0.24225697  0.99167992  0.62434071  1
  O  O199  1  0.73518593  0.48995016  0.12205121  1
  O  O200  1  0.75132405  0.49181231  0.62907076  1
  O  O201  1  0.74171295  0.99667260  0.13632898  1
  O  O202  1  0.74115698  1.00065971  0.63670319  1
  O  O203  1  0.00867692  0.36556353  0.24506261  1
  O  O204  1  0.01594320  0.37393075  0.75047484  1
  O  O205  1  -0.00854181  0.86204219  0.25685013  1
  O  O206  1  0.00845452  0.87405660  0.75649627  1
  O  O207  1  0.50343163  0.37801099  0.26187777  1
  O  O208  1  0.49959258  0.38210690  0.76848769  1
  O  O209  1  0.49249516  0.86230498  0.24609171  1
  O  O210  1  0.49546794  0.86351191  0.75735272  1
  O  O211  1  0.48028675  0.12727233  0.24777453  1
  O  O212  1  0.50720418  0.12380972  0.73558101  1
  O  O213  1  0.49372975  0.63253574  0.24397887  1
  O  O214  1  0.49985640  0.63744089  0.74145184  1
  O  O215  1  0.99394815  0.13234679  0.24723743  1
  O  O216  1  0.98914197  0.12283286  0.74912013  1
  O  O217  1  0.98991034  0.63773670  0.24976387  1
  O  O218  1  0.99431769  0.62595096  0.73876918  1
  O  O219  1  0.35531119  0.24865877  -0.01114274  1
  O  O220  1  0.37732874  0.26035300  0.50449256  1
  O  O221  1  0.36616274  0.76049293  0.00549482  1
  O  O222  1  0.37684932  0.75245338  0.51086900  1
  O  O223  1  0.86483284  0.24681222  0.01755347  1
  O  O224  1  0.88003384  0.24706688  0.51395099  1
  O  O225  1  0.86908946  0.75678346  0.00574024  1
  O  O226  1  0.87049384  0.75117971  0.50435229  1
  O  O227  1  0.12156971  0.23513312  0.51138678  1
  O  O228  1  0.13169971  0.24029881  0.99525844  1
  O  O229  1  0.12595201  0.74353813  0.48847111  1
  O  O230  1  0.13773876  0.74108991  1.00796739  1
  O  O231  1  0.62639284  0.25536436  0.49443289  1
  O  O232  1  0.63262986  0.23450606  1.01420038  1
  O  O233  1  0.63387946  0.74177854  0.49039480  1
  O  O234  1  0.62864739  0.74732702  0.99204635  1
  O  O235  1  0.45556069  0.30703023  0.07409541  1
  O  O236  1  0.48933278  0.24253412  0.62602688  1
  O  O237  1  0.49578062  0.74623166  0.12975350  1
  O  O238  1  0.49634429  0.74649816  0.62919909  1
  O  O239  1  0.98930785  0.24299093  0.13435428  1
  O  O240  1  0.98565665  0.24892783  0.63261079  1
  O  O241  1  0.99404370  0.74874479  0.13396886  1
  O  O242  1  0.99295052  0.73822496  0.62130875  1
  O  O243  1  -0.00929770  0.24676299  0.36246618  1
  O  O244  1  0.01424793  0.24687537  0.87478002  1
  O  O245  1  0.00635392  0.75404660  0.36875687  1
  O  O246  1  0.00059165  0.76633921  0.87204102  1
  O  O247  1  0.50849842  0.25825571  0.38449222  1
  O  O248  1  0.51086939  0.25802649  0.88027013  1
  O  O249  1  0.51059987  0.74892495  0.36434959  1
  O  O250  1  0.50595984  0.75711932  0.86705445  1
  O  O251  1  0.24480021  0.12099644  0.48570812  1
  O  O252  1  0.24089095  0.12983754  0.99324173  1
  O  O253  1  0.24417366  0.62734173  0.49129471  1
  O  O254  1  0.24505391  0.63256027  0.99573064  1
  O  O255  1  0.75501674  0.11778504  0.48588794  1
  O  O256  1  0.74333436  0.12459234  0.99772486  1
  O  O257  1  0.74695845  0.63253059  0.49048639  1
  O  O258  1  0.74397371  0.63507689  0.99376839  1
  O  O259  1  0.25861367  0.36691024  0.00692218  1
  O  O260  1  0.26742428  0.38131831  0.50125622  1
  O  O261  1  0.25408978  0.87033319  0.00427798  1
  O  O262  1  0.25071487  0.87254735  0.51254942  1
  O  O263  1  0.73923601  0.36060682  0.01735540  1
  O  O264  1  0.75385620  0.38348321  0.50833559  1
  O  O265  1  0.75844437  0.86999679  -0.00243059  1
  O  O266  1  0.75920640  0.85840172  0.49267624  1
  O  O267  1  0.12773989  0.49423041  0.24235023  1
  O  O268  1  0.12760633  0.49406875  0.73928500  1
  O  O269  1  0.13385758  1.00816449  0.23790937  1
  O  O270  1  0.13033502  0.99059179  0.73907636  1
  O  O271  1  0.61574698  0.49223027  0.23906231  1
  O  O272  1  0.64041899  0.51115535  0.74274609  1
  O  O273  1  0.63214987  1.00815828  0.24012351  1
  O  O274  1  0.64268241  0.99974378  0.73964562  1
  O  O275  1  0.36209316  0.01435222  0.24750358  1
  O  O276  1  0.37282200  0.00230510  0.74561592  1
  O  O277  1  0.36731237  0.50743004  0.25154878  1
  O  O278  1  0.37101453  0.50327944  0.75232109  1
  O  O279  1  0.86709689  0.00515825  0.25707182  1
  O  O280  1  0.86245603  0.01185764  0.73726648  1
  O  O281  1  0.88385923  0.51460145  0.25692127  1
  O  O282  1  0.86574248  0.51421328  0.74336011  1
  O  O283  1  0.12887707  0.38127140  0.36245104  1
  O  O284  1  0.12731026  0.36611294  0.86997717  1
  O  O285  1  0.11936732  0.86333529  0.38025409  1
  O  O286  1  0.12218167  0.87799131  0.86264991  1
  O  O287  1  0.61985995  0.36262050  0.36508687  1
  O  O288  1  0.61755768  0.38204701  0.87911278  1
  O  O289  1  0.62858974  0.85924604  0.37706504  1
  O  O290  1  0.61442119  0.86315154  0.88114347  1
  O  O291  1  0.36318747  0.13034915  0.13548038  1
  O  O292  1  0.37644897  0.13838176  0.63223407  1
  O  O293  1  0.37885333  0.63046857  0.12818459  1
  O  O294  1  0.38222225  0.63443379  0.62327719  1
  O  O295  1  0.87811572  0.13155641  0.13290654  1
  O  O296  1  0.87218700  0.13819569  0.63319094  1
  O  O297  1  0.87424513  0.63109827  0.13307309  1
  O  O298  1  0.88318589  0.63119928  0.62851129  1
  O  O299  1  0.23870596  0.26056392  0.11524979  1
  O  O300  1  0.26611289  0.25107152  0.62732313  1
  O  O301  1  0.25370085  0.75867975  0.11822217  1
  O  O302  1  0.26046095  0.75693970  0.62268906  1
  O  O303  1  0.75661745  0.25155760  0.12380606  1
  O  O304  1  0.76222642  0.26381633  0.62199770  1
  O  O305  1  0.75491021  0.75281102  0.11872553  1
  O  O306  1  0.76171537  0.73944403  0.61230635  1
  O  O307  1  0.24638069  0.24171533  0.37552477  1
  O  O308  1  0.23694495  0.24099554  0.88322374  1
  O  O309  1  0.24126974  0.74649427  0.37182011  1
  O  O310  1  0.25541640  0.74325180  0.88651686  1
  O  O311  1  0.73858393  0.24005291  0.37059707  1
  O  O312  1  0.75784009  0.23503382  0.90087339  1
  O  O313  1  0.74566451  0.73947389  0.38064502  1
  O  O314  1  0.74214468  0.74781881  0.87751926  1
  O  O315  1  0.00773747  0.12566179  0.00695965  1
  O  O316  1  0.01072176  0.11661459  0.50218671  1
  O  O317  1  0.01465672  0.63531951  -0.00009744  1
  O  O318  1  0.00667942  0.61855435  0.50790619  1
  O  O319  1  0.50646235  0.11142473  -0.01081322  1
  O  O320  1  0.49922995  0.12321605  0.52331476  1
  O  O321  1  0.50414356  0.62513474  0.00681937  1
  O  O322  1  0.50396837  0.61565622  0.50083920  1
  O  O323  1  0.49182004  0.37962617  0.49383144  1
  O  O324  1  0.50723071  0.39449093  0.97757829  1
  O  O325  1  0.50127225  0.88153205  0.49347374  1
  O  O326  1  0.49001332  0.88121384  0.99084002  1
  O  O327  1  1.00491898  0.38883949  0.50381665  1
  O  O328  1  0.99501408  0.36653722  1.00101252  1
  O  O329  1  0.99587999  0.88059700  0.49357320  1
  O  O330  1  0.99283735  0.87682116  0.99463029  1
  O  O331  1  0.49900905  0.48725426  0.38330141  1
  O  O332  1  0.49784627  0.51651693  0.88535552  1
  O  O333  1  0.50176776  1.00300966  0.37771104  1
  O  O334  1  0.51020981  0.98747662  0.88145457  1
  O  O335  1  0.99138914  0.50662663  0.38357289  1
  O  O336  1  0.99356380  0.49920289  0.87002403  1
  O  O337  1  0.99481083  0.99607051  0.37920990  1
  O  O338  1  1.00629946  0.98421898  0.87854955  1
  O  O339  1  0.00790886  0.00596361  0.12758635  1
  O  O340  1  0.01211695  0.00012295  0.61959608  1
  O  O341  1  0.01155987  0.50239478  0.12996730  1
  O  O342  1  0.00705808  0.50810700  0.61827168  1
  O  O343  1  0.50575395  -0.00695121  0.11107818  1
  O  O344  1  0.52605892  0.00902824  0.62991194  1
  O  O345  1  0.50763907  0.50540736  0.11569013  1
  O  O346  1  0.50238558  0.50297342  0.61472094  1
  O  O347  1  0.24021900  0.38051782  0.24375819  1
  O  O348  1  0.23822166  0.37605004  0.75038729  1
  O  O349  1  0.25690893  0.88392677  0.23526041  1
  O  O350  1  0.24405567  0.87315278  0.74021770  1
  O  O351  1  0.73298435  0.36748941  0.23654779  1
  O  O352  1  0.75757342  0.39687102  0.74026811  1
  O  O353  1  0.75562699  0.88882014  0.25317113  1
  O  O354  1  0.76104312  0.88857669  0.75607034  1
  O  O355  1  0.25152460  0.12197191  0.26249393  1
  O  O356  1  0.24271280  0.12377675  0.76709722  1
  O  O357  1  0.25425846  0.62154937  0.25240643  1
  O  O358  1  0.25096668  0.62542143  0.76187356  1
  O  O359  1  0.75490015  0.11422984  0.25812307  1
  O  O360  1  0.75859683  0.11625127  0.76129251  1
  O  O361  1  0.76076084  0.63175983  0.25935314  1
  O  O362  1  0.75887240  0.62120213  0.75135951  1
  O  O363  1  0.35952133  0.12645477  0.36933366  1
  O  O364  1  0.35868363  0.13247702  0.87261012  1
  O  O365  1  0.36817225  0.62535908  0.36790991  1
  O  O366  1  0.36324011  0.62445299  0.87667103  1
  O  O367  1  0.86620521  0.11858095  0.37114811  1
  O  O368  1  0.86620158  0.12698207  0.86922201  1
  O  O369  1  0.86775253  0.61996346  0.36803904  1
  O  O370  1  0.86928829  0.63050448  0.86276335  1
  O  O371  1  0.13343613  0.38346268  0.13015219  1
  O  O372  1  0.12754205  0.38285482  0.63175134  1
  O  O373  1  0.13440446  0.88530270  0.11606542  1
  O  O374  1  0.13321733  0.88176221  0.62918019  1
  O  O375  1  0.62448836  0.38164767  0.13040936  1
  O  O376  1  0.64367643  0.37318560  0.62196260  1
  O  O377  1  0.62819813  0.88880403  0.11739713  1
  O  O378  1  0.62706995  0.87595144  0.62864772  1
  O  O379  1  0.11327165  0.26004988  0.24511328  1
  O  O380  1  0.12412211  0.25694853  0.75776544  1
  O  O381  1  0.11455437  0.74377739  0.25861322  1
  O  O382  1  0.12243166  0.76372737  0.73811311  1
  O  O383  1  0.61625478  0.25598826  0.24090749  1
  O  O384  1  0.69332387  0.27215189  0.77902173  1
  O  O385  1  0.61551814  0.74384770  0.25709785  1
  O  O386  1  0.61724022  0.74514110  0.75854573  1
  O  O387  1  0.36814366  0.24167428  0.24910890  1
  O  O388  1  0.37358716  0.25038406  0.74415107  1
  O  O389  1  0.38267574  0.74429495  0.24282627  1
  O  O390  1  0.38588384  0.74677498  0.73813183  1
  O  O391  1  0.87870336  0.24549491  0.24286177  1
  O  O392  1  0.87296401  0.23701777  0.74581336  1
  O  O393  1  0.88143700  0.74216965  0.24619416  1
  O  O394  1  0.87635370  0.73970361  0.73910498  1
  O  O395  1  0.38610746  0.49045317  0.49957679  1
  O  O396  1  0.38972554  0.48690654  1.00552144  1
  O  O397  1  0.38245043  0.99995426  0.49870968  1
  O  O398  1  0.38160221  0.98995632  1.00436897  1
  O  O399  1  0.88599525  0.50669769  0.48916275  1
  O  O400  1  0.84500990  0.48931158  0.99152658  1
  O  O401  1  0.88072710  0.99436749  0.49777461  1
  O  O402  1  0.87475761  0.98816662  1.00900699  1
  O  O403  1  0.12377460  0.01100102  0.01140464  1
  O  O404  1  0.12163463  0.00592060  0.50890593  1
  O  O405  1  0.13161675  0.50975698  0.00969736  1
  O  O406  1  0.11804888  0.50575614  0.50698463  1
  O  O407  1  0.61668367  0.00412673  0.00541377  1
  O  O408  1  0.63331734  -0.00457385  0.52110994  1
  O  O409  1  0.61811297  0.51047289  0.00762597  1
  O  O410  1  0.61348170  0.50230899  0.49737942  1
  O  O411  1  0.35267776  0.39058122  0.12527560  1
  O  O412  1  0.37895457  0.36272793  0.61529264  1
  O  O413  1  0.36418641  0.87185256  0.11334101  1
  O  O414  1  0.36873446  0.86649397  0.62515285  1
  O  O415  1  0.86209730  0.36681001  0.13076188  1
  O  O416  1  0.86738919  0.36383925  0.62967745  1
  O  O417  1  0.87228343  0.86742074  0.11572220  1
  O  O418  1  0.88541396  0.85949944  0.61958312  1
  O  O419  1  0.13857133  0.12090539  0.38359672  1
  O  O420  1  0.13011906  0.12982835  0.88401244  1
  O  O421  1  0.12998423  0.63390780  0.37748254  1
  O  O422  1  0.13844174  0.61998098  0.88520886  1
  O  O423  1  0.63169245  0.13748293  0.37116091  1
  O  O424  1  0.63804300  0.11818674  0.88880773  1
  O  O425  1  0.63278413  0.63016416  0.37766436  1
  O  O426  1  0.63075884  0.63813754  0.88039429  1
