# generated using pymatgen
data_V85Zn86O256
_symmetry_space_group_name_H-M   'P 1'
_cell_length_a   16.96863559
_cell_length_b   16.95591415
_cell_length_c   16.97789694
_cell_angle_alpha   90.01457398
_cell_angle_beta   90.06561582
_cell_angle_gamma   90.14963999
_symmetry_Int_Tables_number   1
_chemical_formula_structural   V85Zn86O256
_chemical_formula_sum   'V85 Zn86 O256'
_cell_volume   4884.83889352
_cell_formula_units_Z   1
loop_
 _symmetry_equiv_pos_site_id
 _symmetry_equiv_pos_as_xyz
  1  'x, y, z'
loop_
 _atom_site_type_symbol
 _atom_site_label
 _atom_site_symmetry_multiplicity
 _atom_site_fract_x
 _atom_site_fract_y
 _atom_site_fract_z
 _atom_site_occupancy
  V  V0  1  0.87559488  -0.00959500  0.37483810  1
  V  V1  1  0.61940895  0.62823340  0.50755355  1
  V  V2  1  0.62354203  0.88138050  0.74647496  1
  V  V3  1  0.50197564  0.37240999  0.87290117  1
  V  V4  1  0.62370630  0.61986561  -0.00311908  1
  V  V5  1  0.87385235  0.87174047  0.01111316  1
  V  V6  1  0.87233829  0.12698790  0.74975768  1
  V  V7  1  0.25289427  0.12139134  0.36982791  1
  V  V8  1  0.24570221  0.75033780  0.50033831  1
  V  V9  1  0.75481049  0.25812377  0.49980235  1
  V  V10  1  0.24636736  0.38368867  0.12758514  1
  V  V11  1  0.25026568  0.12055140  0.87427971  1
  V  V12  1  0.37985529  0.74592718  0.12952990  1
  V  V13  1  0.74619730  0.75395371  0.49586117  1
  V  V14  1  0.11514030  0.49751362  0.12668490  1
  V  V15  1  0.25016136  0.62293145  0.87205653  1
  V  V16  1  0.00084345  0.37860156  0.88018553  1
  V  V17  1  0.50353302  0.61947781  0.12667696  1
  V  V18  1  0.38597998  0.74195124  0.63219943  1
  V  V19  1  0.12518092  0.49621121  0.62233494  1
  V  V20  1  -0.00310950  0.87467678  0.87456383  1
  V  V21  1  0.87348657  0.75609654  0.61652971  1
  V  V22  1  0.12355656  0.63153520  0.48630577  1
  V  V23  1  0.61930842  0.75031609  0.86713076  1
  V  V24  1  0.00553712  0.74938867  0.24897703  1
  V  V25  1  0.11374381  0.37236751  0.25084329  1
  V  V26  1  0.87798242  0.13063470  0.25134419  1
  V  V27  1  0.12472044  0.25526554  0.86958682  1
  V  V28  1  0.38749887  0.62786745  0.74759168  1
  V  V29  1  -0.01357435  0.62389850  0.12041206  1
  V  V30  1  0.87576571  0.25702431  0.61991512  1
  V  V31  1  -0.00009574  0.13141862  0.12917114  1
  V  V32  1  0.36957770  0.24857196  0.13871255  1
  V  V33  1  0.11772862  0.61660967  -0.00386165  1
  V  V34  1  0.75384139  0.74964470  0.00443501  1
  V  V35  1  0.38367818  0.87728691  0.00210090  1
  V  V36  1  0.11917961  0.24889395  0.37270732  1
  V  V37  1  0.75153178  0.62610432  0.87175393  1
  V  V38  1  0.62716562  0.49824985  0.62915556  1
  V  V39  1  0.37557674  0.37431065  0.50171650  1
  V  V40  1  0.38167848  0.88181408  0.50911399  1
  V  V41  1  0.37326319  0.37547215  0.00012477  1
  V  V42  1  0.49962076  0.50189529  0.51010247  1
  V  V43  1  0.87355539  0.62543179  0.74637841  1
  V  V44  1  0.74807513  0.88194424  0.62404786  1
  V  V45  1  0.24800267  0.24823785  0.49777230  1
  V  V46  1  0.24795804  0.49623611  0.74168601  1
  V  V47  1  0.01152197  0.86912871  0.37179355  1
  V  V48  1  0.87227684  0.00105799  0.87365623  1
  V  V49  1  0.00118435  -0.00020553  0.00231787  1
  V  V50  1  0.87096606  0.49681913  0.37658681  1
  V  V51  1  0.37524324  0.49883478  0.87305838  1
  V  V52  1  0.62313582  0.86801839  0.25383441  1
  V  V53  1  0.62517403  0.24757424  0.37535450  1
  V  V54  1  0.12624025  0.87611235  0.75404555  1
  V  V55  1  0.49997173  0.37541808  0.37967698  1
  V  V56  1  -0.00488367  -0.00846714  0.49936910  1
  V  V57  1  0.38176368  0.00488650  0.38032673  1
  V  V58  1  0.50701958  0.87434656  0.38278218  1
  V  V59  1  0.62172811  0.00157445  0.11211068  1
  V  V60  1  -0.00526974  0.49607153  0.49485468  1
  V  V61  1  0.12404010  -0.00084837  0.62529743  1
  V  V62  1  0.25210722  0.75262214  0.00114360  1
  V  V63  1  0.00024487  0.62702390  0.62031704  1
  V  V64  1  0.62015595  0.37919919  0.24691453  1
  V  V65  1  0.12475320  0.74918216  0.87305230  1
  V  V66  1  0.37717646  0.12310028  0.75232073  1
  V  V67  1  0.73332663  0.62862045  0.37441828  1
  V  V68  1  0.00240596  0.25485804  0.74833034  1
  V  V69  1  0.00056492  0.75100996  0.74707634  1
  V  V70  1  0.50452741  0.11096150  0.62325821  1
  V  V71  1  0.12300832  0.12387331  0.00398590  1
  V  V72  1  0.86507287  0.25326327  0.11820084  1
  V  V73  1  0.24861168  0.25206416  0.00058274  1
  V  V74  1  0.50199710  0.88009372  0.87330216  1
  V  V75  1  0.73799423  0.49940059  0.24476461  1
  V  V76  1  0.86661119  0.62948728  0.24485853  1
  V  V77  1  0.74942230  0.12813052  0.89208923  1
  V  V78  1  0.63313400  0.24686758  0.88854043  1
  V  V79  1  0.62199427  0.11485029  0.50544632  1
  V  V80  1  0.88267007  0.50298805  0.87955383  1
  V  V81  1  0.74920965  0.12397764  0.37641613  1
  V  V82  1  0.50141215  0.12007076  0.12326122  1
  V  V83  1  0.37844007  0.24778228  0.62698796  1
  V  V84  1  0.74913694  -0.00037635  0.24833125  1
  Zn  Zn85  1  0.38343465  0.00371215  0.87972362  1
  Zn  Zn86  1  -0.01327765  0.36387836  0.37436281  1
  Zn  Zn87  1  0.73072456  0.36971540  0.11537819  1
  Zn  Zn88  1  0.24981843  -0.00060158  0.75250929  1
  Zn  Zn89  1  0.75295797  0.49653011  0.74816954  1
  Zn  Zn90  1  0.75486819  0.37801794  0.62356674  1
  Zn  Zn91  1  0.48873081  0.24249445  0.25790493  1
  Zn  Zn92  1  0.24239565  0.36919428  0.62780545  1
  Zn  Zn93  1  0.50828948  0.24663400  0.75046990  1
  Zn  Zn94  1  0.12437068  0.12178774  0.49965618  1
  Zn  Zn95  1  0.63293747  0.37045941  0.74948640  1
  Zn  Zn96  1  0.74757652  0.87102093  0.12692952  1
  Zn  Zn97  1  0.19496162  0.92487948  0.20450528  1
  Zn  Zn98  1  0.20573656  0.73822239  0.30700187  1
  Zn  Zn99  1  0.31434930  0.05676803  0.20820652  1
  Zn  Zn100  1  -0.00110595  0.12409138  0.62229322  1
  Zn  Zn101  1  0.31496953  0.56649588  0.32115809  1
  Zn  Zn102  1  0.49934412  0.74177620  0.26585404  1
  Zn  Zn103  1  0.74533857  0.00592972  0.74469474  1
  Zn  Zn104  1  0.25330373  0.87496901  0.63097577  1
  Zn  Zn105  1  0.87082930  0.37317924  -0.00144800  1
  Zn  Zn106  1  0.50418008  0.49614811  0.00204818  1
  Zn  Zn107  1  0.18414704  0.19226274  0.19050954  1
  Zn  Zn108  1  0.18763075  0.18416896  0.68678281  1
  Zn  Zn109  1  0.20215690  0.65877374  0.17062334  1
  Zn  Zn110  1  0.19367193  0.68383530  0.67986661  1
  Zn  Zn111  1  0.68394078  0.18606990  0.18689759  1
  Zn  Zn112  1  0.68698087  0.19174498  0.68971177  1
  Zn  Zn113  1  0.68214879  0.68458153  0.18500012  1
  Zn  Zn114  1  0.68583097  0.69061397  0.68494401  1
  Zn  Zn115  1  0.32344142  0.37809329  0.30059036  1
  Zn  Zn116  1  0.31224782  0.31184444  0.81132210  1
  Zn  Zn117  1  0.33465818  0.85228707  0.29704941  1
  Zn  Zn118  1  0.31328803  0.81163524  0.81579427  1
  Zn  Zn119  1  0.80631396  0.31347486  0.30665673  1
  Zn  Zn120  1  0.81314657  0.31464686  0.81111128  1
  Zn  Zn121  1  0.81291386  0.81134488  0.30989386  1
  Zn  Zn122  1  0.80926326  0.81285520  0.81127729  1
  Zn  Zn123  1  0.18344887  0.43925905  0.43031585  1
  Zn  Zn124  1  0.18806326  0.43881400  0.93554328  1
  Zn  Zn125  1  0.19191932  0.93519757  0.43760092  1
  Zn  Zn126  1  0.19152327  0.93982267  1.04344766  1
  Zn  Zn127  1  0.68345950  0.44113016  0.43600159  1
  Zn  Zn128  1  0.69368355  0.43620470  0.93400647  1
  Zn  Zn129  1  0.68954501  0.93686845  0.43819222  1
  Zn  Zn130  1  0.69145731  0.93704818  0.93254339  1
  Zn  Zn131  1  0.31710347  0.06521241  0.05262241  1
  Zn  Zn132  1  0.30998916  0.06212118  0.56425636  1
  Zn  Zn133  1  0.31367542  0.56286056  0.06021808  1
  Zn  Zn134  1  0.29274416  0.54396962  0.51868302  1
  Zn  Zn135  1  0.81728903  0.05673931  0.06765172  1
  Zn  Zn136  1  0.81350345  0.06768312  0.55893612  1
  Zn  Zn137  1  0.80088734  0.54399339  0.05265535  1
  Zn  Zn138  1  0.80963011  0.56546849  0.55993795  1
  Zn  Zn139  1  0.43813051  0.44182598  0.18949802  1
  Zn  Zn140  1  0.43676239  0.43784979  0.68822897  1
  Zn  Zn141  1  0.44414682  0.93383698  0.18911401  1
  Zn  Zn142  1  0.43989041  0.93495840  0.69358926  1
  Zn  Zn143  1  0.93252807  0.44082488  0.19145185  1
  Zn  Zn144  1  0.94244420  0.43794846  0.68817568  1
  Zn  Zn145  1  1.03712607  0.93833574  0.18198010  1
  Zn  Zn146  1  0.93532938  0.93800666  0.68764815  1
  Zn  Zn147  1  0.06712040  0.06106582  0.31451987  1
  Zn  Zn148  1  0.06060012  0.06466362  0.81468293  1
  Zn  Zn149  1  0.06046890  0.56260685  0.30727058  1
  Zn  Zn150  1  0.06340956  0.56243132  0.80560668  1
  Zn  Zn151  1  0.55855403  0.06270985  0.30704573  1
  Zn  Zn152  1  0.56525274  0.06423584  0.81525094  1
  Zn  Zn153  1  0.50704184  0.57433115  0.32951114  1
  Zn  Zn154  1  0.56411127  0.55874856  0.81374846  1
  Zn  Zn155  1  0.43869166  0.18532013  0.44135907  1
  Zn  Zn156  1  0.43920586  0.19186126  0.94254443  1
  Zn  Zn157  1  0.42901729  0.69285378  0.44233116  1
  Zn  Zn158  1  0.43920524  0.68756673  0.93636632  1
  Zn  Zn159  1  0.93767367  0.17859808  0.44036440  1
  Zn  Zn160  1  0.93606527  0.18985909  0.93778755  1
  Zn  Zn161  1  0.93158694  0.68381469  0.43173624  1
  Zn  Zn162  1  0.93643982  0.68951128  0.93568195  1
  Zn  Zn163  1  0.05729937  0.30981615  0.06018630  1
  Zn  Zn164  1  0.05885027  0.31324881  0.55857930  1
  Zn  Zn165  1  0.06009547  0.80245129  0.06279911  1
  Zn  Zn166  1  0.06165481  0.81682989  0.56158382  1
  Zn  Zn167  1  0.55296617  0.30517328  0.06332983  1
  Zn  Zn168  1  0.56582495  0.30826375  0.56479667  1
  Zn  Zn169  1  0.56591205  0.81029499  0.06159277  1
  Zn  Zn170  1  0.56338171  0.81381413  0.56567094  1
  O  O171  1  0.11544369  0.13737263  0.11232317  1
  O  O172  1  0.12026640  0.11159226  0.62571490  1
  O  O173  1  0.11383885  0.61481489  0.11464253  1
  O  O174  1  0.11718709  0.61863902  0.61480081  1
  O  O175  1  0.61062502  0.11922716  0.12761928  1
  O  O176  1  0.61612008  0.13365531  0.61821144  1
  O  O177  1  0.61223692  0.63278317  0.10891042  1
  O  O178  1  0.63071792  0.61518744  0.61650905  1
  O  O179  1  0.38766644  0.36081796  0.39345727  1
  O  O180  1  0.38186191  0.37629840  0.87994091  1
  O  O181  1  0.38671388  0.88479172  0.39159605  1
  O  O182  1  0.38512862  0.87264048  0.88300570  1
  O  O183  1  0.87120437  0.39084211  0.36485568  1
  O  O184  1  0.88200152  0.38551632  0.87531007  1
  O  O185  1  0.88224271  0.88650529  0.36614102  1
  O  O186  1  0.87977700  0.88142993  0.87621677  1
  O  O187  1  0.25949780  0.01187207  0.38292778  1
  O  O188  1  0.25350262  0.01881016  0.87624614  1
  O  O189  1  0.26705794  0.50763355  0.41051751  1
  O  O190  1  0.25388959  0.50304468  0.86362442  1
  O  O191  1  0.75720181  0.00349850  0.36909402  1
  O  O192  1  0.75536755  0.01117723  0.87043067  1
  O  O193  1  0.75168801  0.50935937  0.36945156  1
  O  O194  1  0.76423914  0.50938173  0.86907667  1
  O  O195  1  0.23566866  0.49132417  0.11602974  1
  O  O196  1  0.24121783  0.49993533  0.62433164  1
  O  O197  1  0.25605006  0.99663300  0.12553986  1
  O  O198  1  0.23745844  0.99705809  0.62965029  1
  O  O199  1  0.74223691  0.50852995  0.14434503  1
  O  O200  1  0.74230454  0.49813987  0.62341046  1
  O  O201  1  0.74159667  1.00003866  0.13452789  1
  O  O202  1  0.76164661  0.98588837  0.62309702  1
  O  O203  1  0.00933946  0.37889497  0.25468756  1
  O  O204  1  -0.00370164  0.36104576  0.75906004  1
  O  O205  1  -0.00319539  0.85542082  0.25274025  1
  O  O206  1  0.00549487  0.86999726  0.75440760  1
  O  O207  1  0.50503297  0.37056066  0.26367029  1
  O  O208  1  0.49861273  0.37139076  0.76417911  1
  O  O209  1  0.50866543  0.87213541  0.26226989  1
  O  O210  1  0.51088316  0.87443518  0.75978476  1
  O  O211  1  0.49565027  0.12867288  0.23793933  1
  O  O212  1  0.49175646  0.12605933  0.74503117  1
  O  O213  1  0.51669812  0.63034102  0.22998453  1
  O  O214  1  0.48646609  0.62125594  0.75668317  1
  O  O215  1  0.98841346  0.11634305  0.23975400  1
  O  O216  1  0.98869934  0.13623880  0.75295806  1
  O  O217  1  0.98532252  0.62923406  0.24233841  1
  O  O218  1  0.99291369  0.63201406  0.74112657  1
  O  O219  1  0.36662844  0.25675789  0.01084940  1
  O  O220  1  0.36859397  0.25284702  0.51028060  1
  O  O221  1  0.36946045  0.75567648  0.00172379  1
  O  O222  1  0.36789017  0.75704681  0.51667414  1
  O  O223  1  0.87262655  0.25010904  0.01388350  1
  O  O224  1  0.86733810  0.24075138  0.50828164  1
  O  O225  1  0.86442247  0.75845871  -0.00914509  1
  O  O226  1  0.86268069  0.74074016  0.50931889  1
  O  O227  1  0.13384444  0.24966120  0.49631594  1
  O  O228  1  0.12724557  0.24242546  0.98979506  1
  O  O229  1  0.13689195  0.74853302  0.50638747  1
  O  O230  1  0.13313841  0.73956677  0.99411709  1
  O  O231  1  0.63361465  0.24315790  0.49073353  1
  O  O232  1  0.62532154  0.25532624  0.98799053  1
  O  O233  1  0.63397415  0.73954226  0.50893504  1
  O  O234  1  0.63347848  0.74306964  0.98779989  1
  O  O235  1  0.48631882  0.23914724  0.13045486  1
  O  O236  1  0.48930603  0.24238660  0.62795779  1
  O  O237  1  0.49072902  0.73872756  0.11786226  1
  O  O238  1  0.48490684  0.75261126  0.62444400  1
  O  O239  1  0.98769702  0.23751388  0.12129986  1
  O  O240  1  0.99508656  0.24764852  0.63067265  1
  O  O241  1  0.99658404  0.73571416  0.13592562  1
  O  O242  1  0.99129013  0.74802123  0.62619906  1
  O  O243  1  0.01389071  0.24915989  0.38930503  1
  O  O244  1  0.00534696  0.25627322  0.86804989  1
  O  O245  1  -0.01310729  0.75555621  0.36000384  1
  O  O246  1  0.00506632  0.75396564  0.86667022  1
  O  O247  1  0.50912998  0.25613469  0.37859822  1
  O  O248  1  0.51153648  0.25609051  0.87712675  1
  O  O249  1  0.49675398  0.76906739  0.37980894  1
  O  O250  1  0.51277811  0.75894826  0.87891485  1
  O  O251  1  0.24834553  0.13381057  0.49465665  1
  O  O252  1  0.24215401  0.13225481  0.99297735  1
  O  O253  1  0.23766038  0.64264800  0.51026977  1
  O  O254  1  0.24008379  0.62962740  0.99261744  1
  O  O255  1  0.74260254  0.13528291  0.49499806  1
  O  O256  1  0.75762423  0.12061757  0.99039647  1
  O  O257  1  0.73939938  0.63224033  0.49273119  1
  O  O258  1  0.74412389  0.63039732  0.99191777  1
  O  O259  1  0.25149988  0.37085699  0.00743657  1
  O  O260  1  0.25967085  0.36293749  0.50327754  1
  O  O261  1  0.26454331  0.86032455  -0.00293080  1
  O  O262  1  0.26064196  0.86753431  0.50681177  1
  O  O263  1  0.76620608  0.41515234  0.01845237  1
  O  O264  1  0.74539685  0.36123343  0.49733948  1
  O  O265  1  0.75709844  0.86659305  -0.00160007  1
  O  O266  1  0.74170395  0.86303249  0.50817670  1
  O  O267  1  0.12007988  0.49237488  0.23574103  1
  O  O268  1  0.13611949  0.50961699  0.73450691  1
  O  O269  1  0.11541321  0.99663414  0.24013281  1
  O  O270  1  0.12104099  0.99258596  0.74495509  1
  O  O271  1  0.62761997  0.48442654  0.26262248  1
  O  O272  1  0.62831411  0.49919495  0.74020122  1
  O  O273  1  0.63535713  0.99412341  0.24484161  1
  O  O274  1  0.62850445  0.98721525  0.75499196  1
  O  O275  1  0.36858444  -0.02346660  0.26807785  1
  O  O276  1  0.37234132  0.01210861  0.75545341  1
  O  O277  1  0.36523133  0.47816800  0.26391823  1
  O  O278  1  0.36802682  0.50823509  0.75172238  1
  O  O279  1  0.86055516  0.01229436  0.25820920  1
  O  O280  1  0.87723816  0.01205869  0.75578067  1
  O  O281  1  0.86107700  0.50932169  0.25644223  1
  O  O282  1  0.87867399  0.51459769  0.75164301  1
  O  O283  1  0.12399348  0.36708486  0.36638708  1
  O  O284  1  0.11848402  0.36285339  0.88011775  1
  O  O285  1  0.11127096  0.87320610  0.37844398  1
  O  O286  1  0.11487536  0.86693214  0.86398099  1
  O  O287  1  0.61833891  0.36487967  0.37251131  1
  O  O288  1  0.62008367  0.36658750  0.87589922  1
  O  O289  1  0.61681701  0.88535803  0.36687263  1
  O  O290  1  0.62102592  0.86879861  0.86823711  1
  O  O291  1  0.37453515  0.13106052  0.13203169  1
  O  O292  1  0.38132440  0.12962437  0.63214120  1
  O  O293  1  0.38902150  0.63460872  0.11714265  1
  O  O294  1  0.37324136  0.63875951  0.63281663  1
  O  O295  1  0.87852277  0.13430531  0.13143684  1
  O  O296  1  0.87698770  0.13409470  0.63400806  1
  O  O297  1  0.87955408  0.61028321  0.12975905  1
  O  O298  1  0.87843620  0.63429105  0.63008072  1
  O  O299  1  0.25185047  0.25913060  0.11950828  1
  O  O300  1  0.25798815  0.24770296  0.61839140  1
  O  O301  1  0.26802120  0.73527626  0.11087179  1
  O  O302  1  0.26037281  0.75642877  0.61958887  1
  O  O303  1  0.76069680  0.25097530  0.12825866  1
  O  O304  1  0.75920322  0.25070279  0.61579325  1
  O  O305  1  0.74234597  0.74989347  0.10819870  1
  O  O306  1  0.75666338  0.75711044  0.61674872  1
  O  O307  1  0.23968941  0.24062918  0.38759911  1
  O  O308  1  0.24237072  0.24507417  0.87855825  1
  O  O309  1  0.26530521  0.75429689  0.40256727  1
  O  O310  1  0.24483549  0.74228487  0.88209423  1
  O  O311  1  0.74485187  0.24436598  0.38087279  1
  O  O312  1  0.74106962  0.24563488  0.87599415  1
  O  O313  1  0.75525537  0.74130016  0.38517097  1
  O  O314  1  0.74239379  0.74479807  0.88177795  1
  O  O315  1  0.00487375  0.12000876  0.00354492  1
  O  O316  1  0.00504069  0.10656021  0.50094256  1
  O  O317  1  0.00922961  0.63556439  0.00704497  1
  O  O318  1  0.00438562  0.62191501  0.50226404  1
  O  O319  1  0.48745607  0.12691546  0.02261915  1
  O  O320  1  0.51009862  0.13018263  0.51130759  1
  O  O321  1  0.50771454  0.62247940  0.00407464  1
  O  O322  1  0.51024409  0.61363656  0.49685030  1
  O  O323  1  0.49558800  0.37664859  0.49841245  1
  O  O324  1  0.49288429  0.37560529  0.99117068  1
  O  O325  1  0.49191497  0.87391325  0.49801446  1
  O  O326  1  0.49008835  0.86769026  0.99055792  1
  O  O327  1  1.00235469  0.39205142  0.49304348  1
  O  O328  1  0.99277827  0.36951932  0.98485021  1
  O  O329  1  0.99867722  0.88312431  0.49033106  1
  O  O330  1  0.99280548  0.87967336  0.99392858  1
  O  O331  1  0.50940579  0.48194072  0.39535356  1
  O  O332  1  0.49402800  0.48842872  0.87668209  1
  O  O333  1  0.49023552  0.99370743  0.37381405  1
  O  O334  1  0.50224386  0.98635266  0.87552784  1
  O  O335  1  0.98745458  0.50425656  0.37970621  1
  O  O336  1  0.99600079  0.48811975  0.86026744  1
  O  O337  1  0.99419164  0.98989358  0.37941660  1
  O  O338  1  0.99348999  0.99749120  0.88519652  1
  O  O339  1  -0.01015940  0.01468144  0.10769358  1
  O  O340  1  0.00429409  -0.00294242  0.61636137  1
  O  O341  1  0.00504752  0.50851865  0.12575252  1
  O  O342  1  0.00394602  0.50652425  0.61585259  1
  O  O343  1  0.50572977  0.01091431  0.13109512  1
  O  O344  1  0.49700111  0.01208401  0.62960961  1
  O  O345  1  0.49467857  0.51456214  0.12061706  1
  O  O346  1  0.51256473  0.49351069  0.61881079  1
  O  O347  1  0.23010511  0.37252892  0.23430713  1
  O  O348  1  0.25730281  0.39045130  0.74540458  1
  O  O349  1  0.23437166  0.83868176  0.25946011  1
  O  O350  1  0.23811270  0.87842448  0.75482427  1
  O  O351  1  0.73811238  0.38314941  0.24479640  1
  O  O352  1  0.75077556  0.37981960  0.74364679  1
  O  O353  1  0.74314559  0.88283130  0.24932225  1
  O  O354  1  0.74360912  0.87838017  0.74157482  1
  O  O355  1  0.24885983  0.13158705  0.26420588  1
  O  O356  1  0.25917671  0.12586680  0.75799065  1
  O  O357  1  0.24202197  0.63679635  0.26860897  1
  O  O358  1  0.25791119  0.61539586  0.75337114  1
  O  O359  1  0.75286760  0.11774164  0.25653235  1
  O  O360  1  0.76170728  0.12651396  0.75536086  1
  O  O361  1  0.74657027  0.62128783  0.25716247  1
  O  O362  1  0.76113597  0.62801250  0.75271839  1
  O  O363  1  0.36909140  0.11558823  0.38150810  1
  O  O364  1  0.36972676  0.12945788  0.86953286  1
  O  O365  1  0.40887743  0.62277626  0.35989195  1
  O  O366  1  0.36938363  0.62009289  0.86825016  1
  O  O367  1  0.87039324  0.11755395  0.36734472  1
  O  O368  1  0.86800886  0.12397290  0.86872936  1
  O  O369  1  0.86033461  0.61620906  0.36422878  1
  O  O370  1  0.87444463  0.62308878  0.86244662  1
  O  O371  1  0.12452765  0.37911753  0.12712469  1
  O  O372  1  0.12336341  0.39118962  0.61707071  1
  O  O373  1  0.11913183  0.88326709  0.11390075  1
  O  O374  1  0.12280196  0.88236738  0.63870820  1
  O  O375  1  0.61631444  0.36261436  0.14125517  1
  O  O376  1  0.62856421  0.38407559  0.62612355  1
  O  O377  1  0.62219862  0.88383661  0.13485823  1
  O  O378  1  0.63555107  0.86846853  0.63591213  1
  O  O379  1  0.12314583  0.25788571  0.26226128  1
  O  O380  1  0.11586061  0.24168014  0.75917167  1
  O  O381  1  0.10297303  0.73327291  0.25032460  1
  O  O382  1  0.12092117  0.75549798  0.75149398  1
  O  O383  1  0.62782790  0.25620245  0.26565519  1
  O  O384  1  0.62407300  0.25329852  0.76377710  1
  O  O385  1  0.62445886  0.76464153  0.24592878  1
  O  O386  1  0.63346775  0.76010478  0.76057901  1
  O  O387  1  0.36884812  0.26846947  0.23854467  1
  O  O388  1  0.37438895  0.23952518  0.74234190  1
  O  O389  1  0.38318346  0.76048042  0.23050340  1
  O  O390  1  0.36859179  0.74296121  0.74080538  1
  O  O391  1  0.86837575  0.23639564  0.24400505  1
  O  O392  1  0.88223772  0.24357565  0.74275085  1
  O  O393  1  0.87279241  0.73363005  0.24777815  1
  O  O394  1  0.87947184  0.74235322  0.74131917  1
  O  O395  1  0.38978569  0.48381427  0.51860307  1
  O  O396  1  0.37346664  0.49280619  0.99020084  1
  O  O397  1  0.37129338  0.99028568  0.49662076  1
  O  O398  1  0.37210538  0.98077286  0.99698958  1
  O  O399  1  0.88251876  0.51171693  0.48871714  1
  O  O400  1  0.88685221  0.51483706  0.97968645  1
  O  O401  1  0.88254000  1.00647175  0.48595338  1
  O  O402  1  0.88128781  0.99199455  0.99248560  1
  O  O403  1  0.11487120  0.01451686  -0.00598560  1
  O  O404  1  0.11720005  -0.00549489  0.51092385  1
  O  O405  1  0.12465194  0.51007250  0.00409399  1
  O  O406  1  0.11436598  0.51173126  0.50368400  1
  O  O407  1  0.62998548  -0.00788836  0.01361501  1
  O  O408  1  0.63342712  0.01616596  0.49827982  1
  O  O409  1  0.62504134  0.51616882  -0.01181694  1
  O  O410  1  0.61979981  0.50662267  0.51009851  1
  O  O411  1  0.36412886  0.37136427  0.11904956  1
  O  O412  1  0.37596075  0.36173877  0.61951234  1
  O  O413  1  0.38758280  0.86052759  0.10968663  1
  O  O414  1  0.37556226  0.86910472  0.62352930  1
  O  O415  1  0.88011243  0.35727704  0.13028385  1
  O  O416  1  0.87845937  0.36070182  0.62751416  1
  O  O417  1  0.87149653  0.87797528  0.10956674  1
  O  O418  1  0.86631522  0.86226059  0.63139192  1
  O  O419  1  0.13346198  0.13174919  0.37791697  1
  O  O420  1  0.13011518  0.13504081  0.88209203  1
  O  O421  1  0.11664462  0.62790141  0.38651235  1
  O  O422  1  0.12740780  0.62839256  0.87886917  1
  O  O423  1  0.62784906  0.13156239  0.38122368  1
  O  O424  1  0.63337288  0.13824558  0.87403561  1
  O  O425  1  0.63072424  0.62078301  0.38553396  1
  O  O426  1  0.62976055  0.63281271  0.87662447  1
