# generated using pymatgen
data_V85Zn86O256
_symmetry_space_group_name_H-M   'P 1'
_cell_length_a   16.94268237
_cell_length_b   16.93862979
_cell_length_c   16.94060015
_cell_angle_alpha   90.00470954
_cell_angle_beta   90.03921775
_cell_angle_gamma   89.95919488
_symmetry_Int_Tables_number   1
_chemical_formula_structural   V85Zn86O256
_chemical_formula_sum   'V85 Zn86 O256'
_cell_volume   4861.70971212
_cell_formula_units_Z   1
loop_
 _symmetry_equiv_pos_site_id
 _symmetry_equiv_pos_as_xyz
  1  'x, y, z'
loop_
 _atom_site_type_symbol
 _atom_site_label
 _atom_site_symmetry_multiplicity
 _atom_site_fract_x
 _atom_site_fract_y
 _atom_site_fract_z
 _atom_site_occupancy
  V  V0  1  0.12782674  -0.00012824  0.62466173  1
  V  V1  1  0.38289839  0.12205541  0.74198511  1
  V  V2  1  0.00105756  0.87385347  0.87441438  1
  V  V3  1  0.62267451  0.13233252  -0.00566564  1
  V  V4  1  0.12833601  -0.00209121  0.13493031  1
  V  V5  1  -0.00166129  0.74617312  0.74833404  1
  V  V6  1  0.00396599  0.74671211  0.25405228  1
  V  V7  1  0.75130973  0.12817677  0.36982957  1
  V  V8  1  0.25501755  0.85940346  0.62404017  1
  V  V9  1  0.25210395  0.12252722  0.87506955  1
  V  V10  1  0.49517853  0.25048544  0.25236364  1
  V  V11  1  0.61819415  0.75141406  0.87585936  1
  V  V12  1  0.87462657  0.87899540  0.49872905  1
  V  V13  1  0.49876676  0.74204977  0.73262626  1
  V  V14  1  0.62658000  0.87967312  0.25392679  1
  V  V15  1  0.25014055  0.12375010  0.37197724  1
  V  V16  1  0.25053007  0.49365095  0.74460595  1
  V  V17  1  0.87824179  0.12410599  0.74899375  1
  V  V18  1  0.50199356  0.74975908  0.24645169  1
  V  V19  1  0.00128319  0.36755969  0.86957357  1
  V  V20  1  0.00301043  -0.00217172  -0.00055016  1
  V  V21  1  0.37978204  0.49887974  0.87507822  1
  V  V22  1  0.86789070  -0.00255453  0.86773348  1
  V  V23  1  0.20393980  0.64060611  0.41112364  1
  V  V24  1  0.12522063  0.24716755  0.87221167  1
  V  V25  1  0.38083296  0.25670099  0.62437370  1
  V  V26  1  0.39018914  -0.00432927  0.87833806  1
  V  V27  1  0.62004924  0.50713779  0.61527147  1
  V  V28  1  0.38717996  0.87826416  -0.00308282  1
  V  V29  1  0.74776941  0.74021653  0.49391662  1
  V  V30  1  0.62216099  0.87517829  0.75141682  1
  V  V31  1  0.48965448  0.38665753  0.38337024  1
  V  V32  1  0.75013149  0.24959411  0.49866973  1
  V  V33  1  0.74857377  0.87870205  0.62738405  1
  V  V34  1  0.12565187  0.12235486  0.00151626  1
  V  V35  1  0.49819550  0.00564880  0.50357034  1
  V  V36  1  0.25072976  0.87626215  0.13351125  1
  V  V37  1  0.25208137  0.75202781  0.00157187  1
  V  V38  1  0.63226296  0.73831052  0.37342110  1
  V  V39  1  0.88340719  0.24771390  0.62858394  1
  V  V40  1  0.87724021  0.37430600  0.49870178  1
  V  V41  1  0.62081392  -0.00078912  0.11598633  1
  V  V42  1  0.12711005  0.12747564  0.50182510  1
  V  V43  1  0.75217983  0.87624249  0.12379619  1
  V  V44  1  0.00096147  0.50689522  0.50057991  1
  V  V45  1  0.12719294  0.36919017  0.74805781  1
  V  V46  1  0.86795586  0.50672810  0.37678772  1
  V  V47  1  0.12828443  0.87349660  0.74998293  1
  V  V48  1  0.25307032  0.26281561  0.50457412  1
  V  V49  1  0.75382065  0.00843432  0.24636651  1
  V  V50  1  0.12509382  0.62051223  0.01107867  1
  V  V51  1  0.49578837  0.11943669  0.11831467  1
  V  V52  1  0.25338584  0.62306540  0.87371014  1
  V  V53  1  0.24792421  0.39062690  0.12731116  1
  V  V54  1  0.25386884  -0.00185190  0.75093155  1
  V  V55  1  0.87781645  0.36486840  0.00880448  1
  V  V56  1  0.37075693  -0.00152986  0.37256924  1
  V  V57  1  0.37418528  0.86233905  0.50450267  1
  V  V58  1  0.62388680  0.00269390  0.62677504  1
  V  V59  1  0.51219541  0.61502416  0.11837044  1
  V  V60  1  0.00469511  0.50240612  0.00923603  1
  V  V61  1  0.62645438  0.36463373  0.75347415  1
  V  V62  1  0.37102372  0.24915849  0.12607439  1
  V  V63  1  0.87665748  0.49721052  0.87798963  1
  V  V64  1  0.24898878  0.24989334  0.00147907  1
  V  V65  1  0.74371572  0.50576515  0.24816034  1
  V  V66  1  0.87581751  0.00606079  0.37040319  1
  V  V67  1  0.75015098  0.37291804  0.62533693  1
  V  V68  1  0.62106086  0.25116183  0.37759958  1
  V  V69  1  0.37075404  0.12150275  0.25021440  1
  V  V70  1  0.87580163  0.87372375  -0.00134082  1
  V  V71  1  0.74597140  0.74381367  0.00042360  1
  V  V72  1  0.12568392  0.74901621  0.87555166  1
  V  V73  1  0.62236016  0.37784236  0.24520177  1
  V  V74  1  0.74781699  0.12941447  0.87237042  1
  V  V75  1  0.37521799  0.37548268  0.00042017  1
  V  V76  1  0.12148071  0.50008885  0.62492741  1
  V  V77  1  0.00055425  0.24443380  0.24552335  1
  V  V78  1  0.74979092  0.49899207  0.75065120  1
  V  V79  1  0.50292308  0.36268836  0.87425533  1
  V  V80  1  0.74289670  0.62080966  0.88056424  1
  V  V81  1  0.12723563  0.39180093  0.24614950  1
  V  V82  1  0.88069839  0.73726852  0.12442823  1
  V  V83  1  0.37152166  0.61594762  0.24960405  1
  V  V84  1  0.62249583  0.12579869  0.50277699  1
  Zn  Zn85  1  0.12997766  0.87023264  0.25948792  1
  Zn  Zn86  1  0.00686756  0.12908084  0.63220171  1
  Zn  Zn87  1  -0.00244972  0.62652018  0.62453870  1
  Zn  Zn88  1  0.35862716  0.51412042  0.38220443  1
  Zn  Zn89  1  0.87406821  0.62099254  0.24846357  1
  Zn  Zn90  1  0.75422781  0.24492091  0.00707344  1
  Zn  Zn91  1  0.45959096  0.57827106  0.56240472  1
  Zn  Zn92  1  -0.00638972  0.12206113  0.12582430  1
  Zn  Zn93  1  0.36993445  0.40179235  0.51672360  1
  Zn  Zn94  1  0.37908396  0.75060827  0.12372695  1
  Zn  Zn95  1  0.83816818  0.19816624  0.17753173  1
  Zn  Zn96  1  0.00562622  0.87364368  0.37737718  1
  Zn  Zn97  1  0.87492091  0.62583345  0.75114727  1
  Zn  Zn98  1  -0.00016958  0.00281408  0.49984818  1
  Zn  Zn99  1  0.37769560  0.63026391  0.73653711  1
  Zn  Zn100  1  0.51051952  0.24108407  0.74441311  1
  Zn  Zn101  1  0.51812777  0.49884629  -0.00284062  1
  Zn  Zn102  1  0.49842988  0.87520925  0.37524004  1
  Zn  Zn103  1  0.12827988  0.25657285  0.37456057  1
  Zn  Zn104  1  0.00382047  0.37624242  0.37135022  1
  Zn  Zn105  1  0.74825304  0.37126313  0.12631785  1
  Zn  Zn106  1  0.87352174  0.74850697  0.62368524  1
  Zn  Zn107  1  0.18225131  0.19180606  0.18824403  1
  Zn  Zn108  1  0.19768037  0.18879579  0.68661315  1
  Zn  Zn109  1  0.18735580  0.68708676  0.19176298  1
  Zn  Zn110  1  0.18476329  0.68067731  0.68740034  1
  Zn  Zn111  1  0.67409175  0.19036394  0.18571446  1
  Zn  Zn112  1  0.69718965  0.18196728  0.68664595  1
  Zn  Zn113  1  0.69100889  0.69037402  0.19073455  1
  Zn  Zn114  1  0.68813971  0.68908642  0.68620161  1
  Zn  Zn115  1  0.30838715  0.31477767  0.31336310  1
  Zn  Zn116  1  0.31417629  0.30976070  0.81132709  1
  Zn  Zn117  1  0.31169014  0.80030521  0.32061656  1
  Zn  Zn118  1  0.31878402  0.81298439  0.81268992  1
  Zn  Zn119  1  0.81115443  0.31857140  0.31437608  1
  Zn  Zn120  1  0.81449655  0.30811350  0.81366426  1
  Zn  Zn121  1  0.81605594  0.81695264  0.31116876  1
  Zn  Zn122  1  0.80946553  0.81121787  0.81223328  1
  Zn  Zn123  1  0.18788383  0.44987706  0.43094618  1
  Zn  Zn124  1  0.18793660  0.43624881  0.93699609  1
  Zn  Zn125  1  0.19025142  0.93112229  0.44238110  1
  Zn  Zn126  1  0.19271955  0.93740911  0.93904387  1
  Zn  Zn127  1  0.68544932  0.43725963  0.43287010  1
  Zn  Zn128  1  0.69036995  0.42491766  0.93522592  1
  Zn  Zn129  1  0.69148493  0.93955217  0.43831179  1
  Zn  Zn130  1  0.68682916  0.93611561  0.93622347  1
  Zn  Zn131  1  0.31060256  0.05720676  0.06122209  1
  Zn  Zn132  1  0.31194145  0.06281723  0.56101311  1
  Zn  Zn133  1  0.32206743  0.56825859  0.06275195  1
  Zn  Zn134  1  0.29397139  0.57766617  0.55848972  1
  Zn  Zn135  1  0.81157895  0.05916966  0.05552260  1
  Zn  Zn136  1  0.80950138  0.06361625  0.56151384  1
  Zn  Zn137  1  0.68999092  0.55587842  0.06637427  1
  Zn  Zn138  1  0.81420615  0.56349892  0.56711945  1
  Zn  Zn139  1  0.43713121  0.43760912  0.18875405  1
  Zn  Zn140  1  0.44081739  0.43689750  0.69288270  1
  Zn  Zn141  1  0.43504511  0.93572415  0.18609732  1
  Zn  Zn142  1  0.44128915  0.93236600  0.68819803  1
  Zn  Zn143  1  0.93752987  0.43661768  0.19106736  1
  Zn  Zn144  1  0.93931933  0.43401698  0.68828392  1
  Zn  Zn145  1  0.94042558  0.93452630  0.18727215  1
  Zn  Zn146  1  0.93962375  0.93605334  0.68585874  1
  Zn  Zn147  1  0.06285775  0.06210956  0.31626658  1
  Zn  Zn148  1  0.06175081  0.06100426  0.81264834  1
  Zn  Zn149  1  0.05247639  0.56519918  0.31099532  1
  Zn  Zn150  1  0.06523221  0.55953968  0.81767463  1
  Zn  Zn151  1  0.55967063  0.06283722  0.31312318  1
  Zn  Zn152  1  0.56498975  0.05997355  0.81126599  1
  Zn  Zn153  1  0.55867100  0.56452715  0.31423901  1
  Zn  Zn154  1  0.56467639  0.55997650  0.80849070  1
  Zn  Zn155  1  0.43615990  0.18925763  0.43912595  1
  Zn  Zn156  1  0.43341304  0.18416758  0.93667626  1
  Zn  Zn157  1  0.44680314  0.68717179  0.43140261  1
  Zn  Zn158  1  0.43843214  0.68671236  0.93833486  1
  Zn  Zn159  1  0.94209229  0.19014693  0.43317405  1
  Zn  Zn160  1  0.94002071  0.18278420  0.93571606  1
  Zn  Zn161  1  0.93644733  0.68862407  0.43628639  1
  Zn  Zn162  1  0.93641964  0.68339540  0.93777372  1
  Zn  Zn163  1  0.06438994  0.31281406  0.06546882  1
  Zn  Zn164  1  0.06485173  0.31607999  0.56207675  1
  Zn  Zn165  1  0.06467139  0.81184047  0.06534161  1
  Zn  Zn166  1  0.06721468  0.80880277  0.55785944  1
  Zn  Zn167  1  0.55805220  0.31112246  0.06197301  1
  Zn  Zn168  1  0.56088533  0.31827609  0.56376194  1
  Zn  Zn169  1  0.56629667  0.80946530  0.06443215  1
  Zn  Zn170  1  0.56296704  0.81106591  0.55718261  1
  O  O171  1  0.12581260  0.11443398  0.11888957  1
  O  O172  1  0.12988322  0.11831463  0.62050430  1
  O  O173  1  0.13128444  0.62653953  0.10960378  1
  O  O174  1  0.11498933  0.60495678  0.63860320  1
  O  O175  1  0.61486187  0.11741289  0.11600771  1
  O  O176  1  0.63406022  0.11218884  0.61918821  1
  O  O177  1  0.61758825  0.62647820  0.12781749  1
  O  O178  1  0.63398678  0.60522570  0.63213309  1
  O  O179  1  0.38358375  0.38413846  0.37021723  1
  O  O180  1  0.38201752  0.38012810  0.87898841  1
  O  O181  1  0.37110019  0.88177825  0.38564585  1
  O  O182  1  0.36961550  0.88442847  0.88510605  1
  O  O183  1  0.87498683  0.38254622  0.38849629  1
  O  O184  1  0.88362700  0.37707972  0.88012713  1
  O  O185  1  0.87117781  0.88862589  0.38437427  1
  O  O186  1  0.87819321  0.87976974  0.87774842  1
  O  O187  1  0.26151473  0.01163096  0.38583972  1
  O  O188  1  0.25693037  0.00438905  0.86798969  1
  O  O189  1  0.24215105  0.54124621  0.38709437  1
  O  O190  1  0.25741866  0.50587431  0.86989317  1
  O  O191  1  0.75471563  0.00880461  0.36713858  1
  O  O192  1  0.76207563  0.00729871  0.88114075  1
  O  O193  1  0.75808944  0.49225488  0.36428198  1
  O  O194  1  0.75699497  0.50195104  0.86945636  1
  O  O195  1  0.25804868  0.48914884  0.11726719  1
  O  O196  1  0.23796768  0.50114206  0.63888548  1
  O  O197  1  0.24121415  0.98796757  0.12134835  1
  O  O198  1  0.24327789  0.99381786  0.63097499  1
  O  O199  1  0.74829859  0.49035962  0.14390079  1
  O  O200  1  0.74776142  0.49227265  0.63554282  1
  O  O201  1  0.73932834  0.99590807  0.12734383  1
  O  O202  1  0.73790584  0.98873367  0.61789713  1
  O  O203  1  0.01401222  0.36936283  0.24724116  1
  O  O204  1  0.01055203  0.37764244  0.76135972  1
  O  O205  1  0.00188102  0.86159475  0.25076127  1
  O  O206  1  0.00791572  0.86674063  0.75485366  1
  O  O207  1  0.50320838  0.37040319  0.25954848  1
  O  O208  1  0.50985468  0.36888437  0.75760259  1
  O  O209  1  0.51089529  0.86829759  0.24633946  1
  O  O210  1  0.51375228  0.85958523  0.74416221  1
  O  O211  1  0.49301903  0.13016296  0.24130009  1
  O  O212  1  0.48834271  0.12706212  0.75612095  1
  O  O213  1  0.49875177  0.63174823  0.23802685  1
  O  O214  1  0.50179138  0.63812627  0.75316159  1
  O  O215  1  1.00574758  0.14077731  0.25224693  1
  O  O216  1  0.98538571  0.12268820  0.75093598  1
  O  O217  1  0.99019990  0.64057698  0.24767644  1
  O  O218  1  0.99973392  0.63663996  0.75872591  1
  O  O219  1  0.36871168  0.25523282  0.00590285  1
  O  O220  1  0.36920826  0.24596586  0.51396254  1
  O  O221  1  0.36557882  0.75686847  -0.00205022  1
  O  O222  1  0.38183239  0.76516349  0.49240439  1
  O  O223  1  0.88257938  0.26180420  -0.00192832  1
  O  O224  1  0.87104272  0.25655447  0.50517223  1
  O  O225  1  0.86862097  0.75252808  0.00706168  1
  O  O226  1  0.86376882  0.76016443  0.49890167  1
  O  O227  1  0.13535395  0.24562776  0.50136134  1
  O  O228  1  0.13013838  0.24361437  0.99398123  1
  O  O229  1  0.12648849  0.78330262  0.46800732  1
  O  O230  1  0.13282728  0.74232528  0.99487654  1
  O  O231  1  0.62960019  0.24703825  0.49781286  1
  O  O232  1  0.62630978  0.23588913  1.00401237  1
  O  O233  1  0.64023369  0.76084037  0.48730925  1
  O  O234  1  0.63875628  0.75800120  0.99163154  1
  O  O235  1  0.49105432  0.23990761  0.13086497  1
  O  O236  1  0.48616388  0.25000558  0.62433362  1
  O  O237  1  0.50486368  0.74048948  0.13357154  1
  O  O238  1  0.50779899  0.74535305  0.63341876  1
  O  O239  1  1.00466754  0.24666574  0.13913207  1
  O  O240  1  0.98725194  0.24881602  0.61905737  1
  O  O241  1  0.98562359  0.75544541  0.12967419  1
  O  O242  1  1.00338664  0.74994935  0.63631849  1
  O  O243  1  0.00677891  0.25700902  0.36566412  1
  O  O244  1  0.00863130  0.25944725  0.87974564  1
  O  O245  1  -0.01700955  0.75539999  0.35694296  1
  O  O246  1  0.00486235  0.75482982  0.87035019  1
  O  O247  1  0.50056483  0.25785651  0.37039922  1
  O  O248  1  0.49194408  0.25985689  0.87065424  1
  O  O249  1  0.51470885  0.75717565  0.36059954  1
  O  O250  1  0.51641701  0.74501229  0.87655399  1
  O  O251  1  0.24312896  0.13425877  0.49417572  1
  O  O252  1  0.24559300  0.12969200  0.99505624  1
  O  O253  1  0.21529764  0.64332162  0.51266323  1
  O  O254  1  0.24745935  0.63153311  0.99296274  1
  O  O255  1  0.74196087  0.13111088  0.49201646  1
  O  O256  1  0.74012303  0.12461426  0.99190211  1
  O  O257  1  0.75498924  0.64192667  0.50323639  1
  O  O258  1  0.74849784  0.63383370  0.99430471  1
  O  O259  1  0.25440637  0.36964692  0.00632691  1
  O  O260  1  0.25654419  0.36639944  0.48720562  1
  O  O261  1  0.25564803  0.86489059  0.00678279  1
  O  O262  1  0.26685736  0.87902994  0.51026471  1
  O  O263  1  0.76801266  0.36880172  -0.00018370  1
  O  O264  1  0.75930796  0.36945051  0.50455613  1
  O  O265  1  0.75594899  0.86508625  0.00319563  1
  O  O266  1  0.75783752  0.87162015  0.50761328  1
  O  O267  1  0.11554613  0.49051415  0.24802086  1
  O  O268  1  0.13158024  0.48939210  0.74928714  1
  O  O269  1  0.11986208  0.99717222  0.23789316  1
  O  O270  1  0.13218019  0.99455879  0.74396526  1
  O  O271  1  0.63619912  0.49241849  0.26114771  1
  O  O272  1  0.63633427  0.48779433  0.74615105  1
  O  O273  1  0.63013650  0.99661051  0.24050969  1
  O  O274  1  0.61708192  0.98796834  0.73868160  1
  O  O275  1  0.38064560  0.00430096  0.26371977  1
  O  O276  1  0.37425353  0.00281441  0.75555100  1
  O  O277  1  0.37986203  0.51238914  0.25399811  1
  O  O278  1  0.36700016  0.49624824  0.76168146  1
  O  O279  1  0.86752642  -0.00719541  0.26078507  1
  O  O280  1  0.87932275  0.00402859  0.76018216  1
  O  O281  1  0.86441206  0.49568991  0.25868603  1
  O  O282  1  0.86656977  0.49397350  0.76109356  1
  O  O283  1  0.12897675  0.37859088  0.35960994  1
  O  O284  1  0.11934348  0.36848883  0.86926460  1
  O  O285  1  0.12082304  0.88095331  0.37305001  1
  O  O286  1  0.12272933  0.86928408  0.87003039  1
  O  O287  1  0.61150005  0.36955774  0.36939266  1
  O  O288  1  0.61606113  0.37385008  0.86420934  1
  O  O289  1  0.62649369  0.87618976  0.36175040  1
  O  O290  1  0.63642951  0.86440766  0.86235733  1
  O  O291  1  0.37848954  0.12627108  0.12878603  1
  O  O292  1  0.37060838  0.13120507  0.63522210  1
  O  O293  1  0.39246755  0.62984554  0.13212419  1
  O  O294  1  0.37488337  0.61197914  0.62781561  1
  O  O295  1  0.88042830  0.11099200  0.12565333  1
  O  O296  1  0.87528188  0.12958472  0.63120637  1
  O  O297  1  0.87336939  0.63962161  0.12248027  1
  O  O298  1  0.87892020  0.63016667  0.63407438  1
  O  O299  1  0.25465579  0.25623229  0.11943557  1
  O  O300  1  0.26254919  0.24995419  0.61438737  1
  O  O301  1  0.25131367  0.75562993  0.11236636  1
  O  O302  1  0.24706050  0.76065874  0.63448991  1
  O  O303  1  0.75036300  0.25257256  0.12606769  1
  O  O304  1  0.76084783  0.25367678  0.61721588  1
  O  O305  1  0.75866117  0.75466314  0.11789852  1
  O  O306  1  0.74684765  0.76000046  0.61112481  1
  O  O307  1  0.25257202  0.23985829  0.38587639  1
  O  O308  1  0.24696816  0.24307867  0.88192970  1
  O  O309  1  0.24868832  0.72018302  0.36578445  1
  O  O310  1  0.24771356  0.74215708  0.88115575  1
  O  O311  1  0.74293186  0.24792061  0.37986931  1
  O  O312  1  0.75668527  0.23381547  0.88103044  1
  O  O313  1  0.74772756  0.75671910  0.38512469  1
  O  O314  1  0.74609435  0.73947418  0.88188802  1
  O  O315  1  0.00935972  0.11564500  -0.00138662  1
  O  O316  1  0.01686110  0.12664424  0.50245797  1
  O  O317  1  0.00921600  0.61021266  -0.00953912  1
  O  O318  1  -0.00935119  0.61035216  0.50308527  1
  O  O319  1  0.50459063  0.12897343  0.01070112  1
  O  O320  1  0.50683936  0.11448472  0.49452960  1
  O  O321  1  0.49894992  0.62357078  0.01469578  1
  O  O322  1  0.52054255  0.63458078  0.49185584  1
  O  O323  1  0.49091027  0.37075410  0.48654092  1
  O  O324  1  0.49372760  0.37587143  0.99130974  1
  O  O325  1  0.48891378  0.88390776  0.49815853  1
  O  O326  1  0.48589205  0.86776073  1.00809505  1
  O  O327  1  0.98852512  0.38223483  0.50069623  1
  O  O328  1  0.99647289  0.38227605  0.99262831  1
  O  O329  1  0.98298563  0.87798989  0.50277423  1
  O  O330  1  0.99623720  0.87675872  0.99275546  1
  O  O331  1  0.50175739  0.48688172  0.37516598  1
  O  O332  1  0.49227295  0.49051523  0.87184906  1
  O  O333  1  0.49116659  0.99691103  0.38368521  1
  O  O334  1  0.48939212  0.99931210  0.87401096  1
  O  O335  1  0.98817210  0.49455988  0.38393348  1
  O  O336  1  0.99412787  0.48837629  0.87927810  1
  O  O337  1  0.98813731  0.99990015  0.37852537  1
  O  O338  1  0.99330266  0.99180927  0.87903936  1
  O  O339  1  0.01158123  -0.00376329  0.11636223  1
  O  O340  1  0.01636656  0.00152011  0.62459023  1
  O  O341  1  -0.00500760  0.49706510  0.10707015  1
  O  O342  1  0.00317613  0.49864523  0.61840405  1
  O  O343  1  0.50741396  0.01032862  0.13147334  1
  O  O344  1  0.51031037  -0.00633778  0.61362749  1
  O  O345  1  0.50111625  0.51173505  0.12426525  1
  O  O346  1  0.51548911  0.49542823  0.62842944  1
  O  O347  1  0.23803850  0.37431745  0.24182660  1
  O  O348  1  0.24061905  0.38482559  0.76044294  1
  O  O349  1  0.25132859  0.85905720  0.23636678  1
  O  O350  1  0.24836629  0.87869284  0.74359186  1
  O  O351  1  0.73783703  0.38083794  0.25132267  1
  O  O352  1  0.74573226  0.37995934  0.74881321  1
  O  O353  1  0.74237159  0.88407611  0.24335118  1
  O  O354  1  0.73795856  0.86326878  0.73666641  1
  O  O355  1  0.25419714  0.13222781  0.26342580  1
  O  O356  1  0.26139774  0.11756866  0.75583760  1
  O  O357  1  0.27366747  0.62924476  0.23258398  1
  O  O358  1  0.25158919  0.61519774  0.76111135  1
  O  O359  1  0.74598785  0.12430017  0.25385723  1
  O  O360  1  0.76372358  0.12294179  0.75968156  1
  O  O361  1  0.75232466  0.60982961  0.24685516  1
  O  O362  1  0.75152975  0.61373742  0.76016804  1
  O  O363  1  0.36902938  0.11838494  0.37122190  1
  O  O364  1  0.37002011  0.11556203  0.86827291  1
  O  O365  1  0.38733061  0.62888572  0.35290977  1
  O  O366  1  0.36748404  0.61617597  0.87486912  1
  O  O367  1  0.86685315  0.11593296  0.38243413  1
  O  O368  1  0.86981517  0.11649033  0.86926044  1
  O  O369  1  0.87523511  0.60992408  0.37380893  1
  O  O370  1  0.86426292  0.61343666  0.87573489  1
  O  O371  1  0.13476637  0.37410459  0.13494544  1
  O  O372  1  0.11853767  0.38307118  0.63975577  1
  O  O373  1  0.13478064  0.88095848  0.12576940  1
  O  O374  1  0.13524618  0.88229747  0.62975344  1
  O  O375  1  0.61878031  0.36984125  0.14165575  1
  O  O376  1  0.63154895  0.38206683  0.63383122  1
  O  O377  1  0.63010805  0.88195635  0.13248226  1
  O  O378  1  0.63074587  0.88164437  0.62874651  1
  O  O379  1  0.11565376  0.25986980  0.25371675  1
  O  O380  1  0.13665210  0.25900816  0.75662486  1
  O  O381  1  0.10750765  0.74847576  0.24273005  1
  O  O382  1  0.11888326  0.75349758  0.75672545  1
  O  O383  1  0.61451329  0.25765697  0.25855328  1
  O  O384  1  0.62913862  0.25976043  0.74029213  1
  O  O385  1  0.62506059  0.76160700  0.25419259  1
  O  O386  1  0.61729411  0.75347496  0.75584698  1
  O  O387  1  0.37646904  0.24299631  0.24513843  1
  O  O388  1  0.37277153  0.24167362  0.73732168  1
  O  O389  1  0.39154734  0.74686211  0.24775478  1
  O  O390  1  0.39513334  0.75069235  0.75531518  1
  O  O391  1  0.89271519  0.26231784  0.25474745  1
  O  O392  1  0.87047262  0.24084898  0.73813103  1
  O  O393  1  0.87449159  0.75115205  0.23447433  1
  O  O394  1  0.88664532  0.75141645  0.74979535  1
  O  O395  1  0.37206408  0.51294979  0.49789955  1
  O  O396  1  0.37748095  0.49438936  0.98698900  1
  O  O397  1  0.38314785  0.99808956  0.49275538  1
  O  O398  1  0.37052430  0.99053311  0.99049758  1
  O  O399  1  0.87769746  0.49177416  0.49722426  1
  O  O400  1  0.88825028  0.48560606  0.98673794  1
  O  O401  1  0.87343831  0.99524279  0.49201527  1
  O  O402  1  0.88246449  0.99233811  0.98780350  1
  O  O403  1  0.12208062  0.00303843  0.00535041  1
  O  O404  1  0.12917746  0.00953854  0.51076142  1
  O  O405  1  0.11286288  0.50422597  -0.00640970  1
  O  O406  1  0.11183077  0.48669004  0.51300612  1
  O  O407  1  0.62678080  0.00466756  0.01111454  1
  O  O408  1  0.61725161  0.00359210  0.50494329  1
  O  O409  1  0.63000632  0.49300122  -0.00221403  1
  O  O410  1  0.63485181  0.49320282  0.51689137  1
  O  O411  1  0.36905612  0.36906514  0.12142885  1
  O  O412  1  0.37659343  0.36212132  0.62812105  1
  O  O413  1  0.36663626  0.87427252  0.11627098  1
  O  O414  1  0.37028025  0.87768174  0.61333648  1
  O  O415  1  0.87833885  0.37674983  0.10996962  1
  O  O416  1  0.87074846  0.36745914  0.61912612  1
  O  O417  1  0.86820017  0.87272290  0.11582133  1
  O  O418  1  0.86529485  0.87580411  0.61876159  1
  O  O419  1  0.13536351  0.12378576  0.38560969  1
  O  O420  1  0.13199669  0.12721801  0.87908332  1
  O  O421  1  0.10709593  0.63186433  0.38324337  1
  O  O422  1  0.13804992  0.62806671  0.88277047  1
  O  O423  1  0.62926703  0.13163151  0.38036924  1
  O  O424  1  0.63428251  0.11434056  0.88359900  1
  O  O425  1  0.63017676  0.63993146  0.36296977  1
  O  O426  1  0.63731386  0.63177266  0.87008394  1
