# generated using pymatgen
data_V85Zn86O256
_symmetry_space_group_name_H-M   'P 1'
_cell_length_a   16.97605970
_cell_length_b   17.00668998
_cell_length_c   16.99051552
_cell_angle_alpha   90.01268016
_cell_angle_beta   89.85463181
_cell_angle_gamma   89.99054790
_symmetry_Int_Tables_number   1
_chemical_formula_structural   V85Zn86O256
_chemical_formula_sum   'V85 Zn86 O256'
_cell_volume   4905.25772708
_cell_formula_units_Z   1
loop_
 _symmetry_equiv_pos_site_id
 _symmetry_equiv_pos_as_xyz
  1  'x, y, z'
loop_
 _atom_site_type_symbol
 _atom_site_label
 _atom_site_symmetry_multiplicity
 _atom_site_fract_x
 _atom_site_fract_y
 _atom_site_fract_z
 _atom_site_occupancy
  V  V0  1  0.62283703  0.62547122  0.00199384  1
  V  V1  1  0.00421260  0.86982126  0.37878179  1
  V  V2  1  0.87245288  -0.00837371  0.38117343  1
  V  V3  1  0.87683168  0.24698062  0.12601671  1
  V  V4  1  0.00233610  0.24501053  0.25390335  1
  V  V5  1  0.86825560  0.50327855  0.87179226  1
  V  V6  1  0.36901475  0.25555354  0.62616941  1
  V  V7  1  0.62831782  0.75094445  0.87723483  1
  V  V8  1  -0.00388700  0.74768654  0.25189745  1
  V  V9  1  0.24917123  0.25741940  0.50401338  1
  V  V10  1  0.37595405  0.87701967  0.50293275  1
  V  V11  1  0.75488341  0.87581880  0.11580544  1
  V  V12  1  0.24822076  0.12561453  0.37622455  1
  V  V13  1  0.00574912  0.11442030  0.12504607  1
  V  V14  1  0.00434740  0.50059046  -0.00079162  1
  V  V15  1  0.24957078  0.63487577  0.38290495  1
  V  V16  1  0.50092692  0.62582693  0.62428779  1
  V  V17  1  0.44703954  0.17935495  0.07962121  1
  V  V18  1  0.74930857  0.12420781  0.37656586  1
  V  V19  1  0.00054963  0.74140586  0.74385864  1
  V  V20  1  0.12301571  0.50094817  0.61490560  1
  V  V21  1  0.00411961  0.37635575  0.86745618  1
  V  V22  1  0.25335878  0.62427058  0.87312136  1
  V  V23  1  0.50353625  0.50076972  0.50058119  1
  V  V24  1  0.38167857  0.62445196  0.24519355  1
  V  V25  1  0.36222706  0.11991964  0.74858161  1
  V  V26  1  0.50276402  0.74556681  0.24337794  1
  V  V27  1  0.24748379  -0.00194515  0.25198896  1
  V  V28  1  0.63111877  0.12628227  0.00116314  1
  V  V29  1  0.50171749  0.75042360  0.75037241  1
  V  V30  1  0.25076767  0.88045623  0.63160726  1
  V  V31  1  0.62231066  0.25332120  0.87711302  1
  V  V32  1  0.12671231  0.62324211  0.00595737  1
  V  V33  1  0.62270980  0.50585029  0.12522120  1
  V  V34  1  -0.00429426  0.62377380  0.12941284  1
  V  V35  1  0.50215327  0.24595512  0.25206244  1
  V  V36  1  0.62564608  0.87532344  0.24935898  1
  V  V37  1  -0.00153438  0.37433345  0.37578437  1
  V  V38  1  0.25075501  0.49152164  0.74360255  1
  V  V39  1  0.37368538  0.75054986  0.62479340  1
  V  V40  1  0.12606219  0.00134151  0.63158785  1
  V  V41  1  0.49554703  -0.00539919  0.00437333  1
  V  V42  1  0.50229775  0.00084135  0.50384137  1
  V  V43  1  0.49450996  0.49031873  -0.00391618  1
  V  V44  1  0.12365434  0.87417030  0.75267739  1
  V  V45  1  0.49720074  0.87497700  0.87902590  1
  V  V46  1  0.37659485  0.75490538  0.12248001  1
  V  V47  1  0.37126403  -0.00382731  0.87253429  1
  V  V48  1  0.75558885  0.24579179  -0.00662586  1
  V  V49  1  0.75846641  0.50333156  0.24922405  1
  V  V50  1  0.24044393  0.12038717  0.89247255  1
  V  V51  1  0.87739477  0.75387904  0.11725107  1
  V  V52  1  0.62262923  0.00208392  0.12456554  1
  V  V53  1  0.25511779  0.75482584  0.00053303  1
  V  V54  1  0.87289803  0.12283606  0.25332302  1
  V  V55  1  0.62395708  0.12351335  0.50485739  1
  V  V56  1  0.62789874  0.74883916  0.37702187  1
  V  V57  1  0.75678189  0.25257623  0.51132257  1
  V  V58  1  0.12685406  0.86782059  0.25212624  1
  V  V59  1  0.75649404  0.62846249  0.37077510  1
  V  V60  1  0.37780118  0.49970633  0.37033652  1
  V  V61  1  0.87717489  0.37576620  -0.00287655  1
  V  V62  1  0.50210493  0.12197918  0.62858579  1
  V  V63  1  0.62789157  0.37504156  0.25109700  1
  V  V64  1  0.63346108  0.88255167  0.74198278  1
  V  V65  1  0.12424726  0.12501264  0.50316286  1
  V  V66  1  0.75686822  0.37610992  0.12566794  1
  V  V67  1  -0.01683768  0.86864771  0.87887623  1
  V  V68  1  0.87461455  0.49855956  0.37405443  1
  V  V69  1  0.50024563  0.87448421  0.37638596  1
  V  V70  1  0.62829067  0.37859474  0.74734994  1
  V  V71  1  0.74830766  -0.00024054  0.25047475  1
  V  V72  1  -0.00523500  -0.00510731  0.50407449  1
  V  V73  1  0.37952380  0.12697049  0.25507465  1
  V  V74  1  0.86937680  0.02294500  0.88096081  1
  V  V75  1  0.87210901  0.76934568  0.62153422  1
  V  V76  1  -0.01301354  0.12817530  0.62887309  1
  V  V77  1  0.87063611  0.61728624  0.73689936  1
  V  V78  1  0.62638865  0.25083160  0.37639843  1
  V  V79  1  0.50173969  0.37585877  0.37448096  1
  V  V80  1  0.12672175  0.25383607  0.37542956  1
  V  V81  1  0.49735964  0.25495336  0.75363166  1
  V  V82  1  -0.01736688  0.24893740  0.74306483  1
  V  V83  1  0.75188538  0.01598864  0.74729714  1
  V  V84  1  0.22938229  0.50692580  0.24605242  1
  Zn  Zn85  1  0.12543040  0.74991987  0.87558401  1
  Zn  Zn86  1  0.24993317  0.87478484  0.12079840  1
  Zn  Zn87  1  0.37706488  0.61936382  0.75333531  1
  Zn  Zn88  1  0.30585182  0.32014299  0.06853245  1
  Zn  Zn89  1  0.37433031  -0.00117003  0.37719040  1
  Zn  Zn90  1  0.74796734  0.61979563  0.87144263  1
  Zn  Zn91  1  0.11003185  0.63915011  0.50769556  1
  Zn  Zn92  1  0.75664896  0.76256428  0.50433371  1
  Zn  Zn93  1  0.75617539  0.75012947  -0.00361742  1
  Zn  Zn94  1  0.12864423  0.24560477  0.87393537  1
  Zn  Zn95  1  -0.00234991  -0.00914484  -0.00000120  1
  Zn  Zn96  1  0.37344866  0.37638578  0.50323871  1
  Zn  Zn97  1  0.87947530  0.36997878  0.50700697  1
  Zn  Zn98  1  0.12984147  0.36571004  0.73824710  1
  Zn  Zn99  1  -0.00498857  0.50461929  0.50499412  1
  Zn  Zn100  1  0.16353620  0.35320009  0.19440294  1
  Zn  Zn101  1  0.76773692  0.39254101  0.63789486  1
  Zn  Zn102  1  0.37311507  0.48580874  0.88090758  1
  Zn  Zn103  1  0.63216406  0.62696182  0.50324537  1
  Zn  Zn104  1  0.63003494  0.50690853  0.63687944  1
  Zn  Zn105  1  0.12874086  -0.00151228  0.11621648  1
  Zn  Zn106  1  0.23758865  0.75832013  0.49551637  1
  Zn  Zn107  1  0.19270608  0.18379191  0.18254831  1
  Zn  Zn108  1  0.18016503  0.18896523  0.68991159  1
  Zn  Zn109  1  0.18773282  0.68583724  0.18949991  1
  Zn  Zn110  1  0.18865639  0.68524011  0.68533350  1
  Zn  Zn111  1  0.68819846  0.18700316  0.18464247  1
  Zn  Zn112  1  0.68712942  0.19015059  0.69009095  1
  Zn  Zn113  1  0.69271119  0.68827781  0.18724862  1
  Zn  Zn114  1  0.69116702  0.69080962  0.68852804  1
  Zn  Zn115  1  0.33247154  0.33854683  0.26407809  1
  Zn  Zn116  1  0.30675483  0.30644036  0.81924419  1
  Zn  Zn117  1  0.31769500  0.81403521  0.31113806  1
  Zn  Zn118  1  0.31281002  0.81055291  0.81197376  1
  Zn  Zn119  1  0.81359124  0.31215764  0.31567559  1
  Zn  Zn120  1  0.81278410  0.31259020  0.81316133  1
  Zn  Zn121  1  0.81458716  0.81429108  0.30870772  1
  Zn  Zn122  1  0.80993592  0.80707871  0.80258019  1
  Zn  Zn123  1  0.19137942  0.43782161  0.42914472  1
  Zn  Zn124  1  0.18733369  0.43994371  0.93160874  1
  Zn  Zn125  1  0.18541665  0.93743120  0.44100385  1
  Zn  Zn126  1  0.18151427  0.93909149  0.93739624  1
  Zn  Zn127  1  0.69058498  0.43912490  0.44370911  1
  Zn  Zn128  1  0.68582780  0.43420247  0.93780444  1
  Zn  Zn129  1  0.68592962  0.93458381  0.44439260  1
  Zn  Zn130  1  0.68824356  0.94162166  0.93257231  1
  Zn  Zn131  1  0.30970696  0.05321740  0.06182628  1
  Zn  Zn132  1  0.31239402  0.06491836  0.56367376  1
  Zn  Zn133  1  0.31203012  0.56516495  0.06791694  1
  Zn  Zn134  1  0.31499773  0.56168298  0.56237694  1
  Zn  Zn135  1  0.81724459  0.06007865  0.06136356  1
  Zn  Zn136  1  0.80740682  0.05691940  0.56370380  1
  Zn  Zn137  1  0.81413421  0.56662090  0.06041854  1
  Zn  Zn138  1  0.80736825  0.56515169  0.55569400  1
  Zn  Zn139  1  0.44020702  0.43779398  0.17756825  1
  Zn  Zn140  1  0.43839383  0.43828203  0.68991756  1
  Zn  Zn141  1  0.43631425  0.93588624  0.18944040  1
  Zn  Zn142  1  0.44202816  0.93665142  0.69150098  1
  Zn  Zn143  1  0.97941337  0.41341446  0.16478821  1
  Zn  Zn144  1  0.94328235  0.44046381  0.68277912  1
  Zn  Zn145  1  0.93388782  0.93240675  0.19502056  1
  Zn  Zn146  1  0.93507055  0.94319006  0.69827983  1
  Zn  Zn147  1  0.06386399  0.05876501  0.31534007  1
  Zn  Zn148  1  0.05253926  0.06042091  0.81222875  1
  Zn  Zn149  1  0.05332240  0.57750461  0.33443154  1
  Zn  Zn150  1  0.06672047  0.56317044  0.81055776  1
  Zn  Zn151  1  0.56317700  0.06136342  0.31653111  1
  Zn  Zn152  1  0.56299359  0.06451705  0.81564326  1
  Zn  Zn153  1  0.56756632  0.56343372  0.31245216  1
  Zn  Zn154  1  0.55794380  0.56226018  0.81823673  1
  Zn  Zn155  1  0.43502459  0.18877953  0.43743355  1
  Zn  Zn156  1  0.42589454  0.19290871  0.91913200  1
  Zn  Zn157  1  0.43723892  0.68833425  0.43706943  1
  Zn  Zn158  1  0.43969101  0.68128301  0.94084385  1
  Zn  Zn159  1  0.93746459  0.18095839  0.44028016  1
  Zn  Zn160  1  0.96593731  0.19795317  0.94800613  1
  Zn  Zn161  1  0.93745637  0.68495739  0.44104381  1
  Zn  Zn162  1  0.93808211  0.68518622  0.93401828  1
  Zn  Zn163  1  0.09516099  0.29300897  0.05803046  1
  Zn  Zn164  1  0.06331346  0.31835376  0.56448337  1
  Zn  Zn165  1  0.06810492  0.81172561  0.06280508  1
  Zn  Zn166  1  0.06005019  0.81265259  0.56631940  1
  Zn  Zn167  1  0.57066142  0.32011920  0.06303206  1
  Zn  Zn168  1  0.56062964  0.31109246  0.56415238  1
  Zn  Zn169  1  0.56571813  0.81409395  0.06328615  1
  Zn  Zn170  1  0.56467495  0.81370279  0.56287460  1
  O  O171  1  0.10885699  0.11803787  0.13652505  1
  O  O172  1  0.11688001  0.11547808  0.62279454  1
  O  O173  1  0.11341308  0.63150229  0.11379563  1
  O  O174  1  0.13839430  0.60873942  0.61892793  1
  O  O175  1  0.62815008  0.11821410  0.11225384  1
  O  O176  1  0.61214537  0.13312697  0.61672179  1
  O  O177  1  0.63509986  0.61483598  0.11706505  1
  O  O178  1  0.61360584  0.62887187  0.62444660  1
  O  O179  1  0.38347826  0.38845707  0.36490166  1
  O  O180  1  0.34306370  0.37219978  0.91000124  1
  O  O181  1  0.38305451  0.87673603  0.38383388  1
  O  O182  1  0.38807458  0.88157286  0.86597348  1
  O  O183  1  0.88019926  0.37976003  0.38173856  1
  O  O184  1  0.88209816  0.38458181  0.87584197  1
  O  O185  1  0.88757729  0.88674515  0.36573316  1
  O  O186  1  0.88337963  0.86398234  0.87145635  1
  O  O187  1  0.24934590  0.00638725  0.36824384  1
  O  O188  1  0.26446261  0.00241404  0.88209815  1
  O  O189  1  0.26175073  0.51260342  0.36795732  1
  O  O190  1  0.25075152  0.51074735  0.86432033  1
  O  O191  1  0.75498644  0.00542467  0.37131950  1
  O  O192  1  0.76283695  0.00378198  0.87266998  1
  O  O193  1  0.75412436  0.50667111  0.36954446  1
  O  O194  1  0.76406869  0.49647621  0.87854333  1
  O  O195  1  0.24774324  0.51151112  0.14659088  1
  O  O196  1  0.25336783  0.50042079  0.63933298  1
  O  O197  1  0.25010638  0.99459227  0.13819994  1
  O  O198  1  0.23905919  0.99214878  0.62150164  1
  O  O199  1  0.74802109  0.49594099  0.13099411  1
  O  O200  1  0.73336600  0.49257273  0.59746387  1
  O  O201  1  0.74519959  0.99397796  0.12961957  1
  O  O202  1  0.75569560  1.00295636  0.64751836  1
  O  O203  1  -0.00809638  0.35302101  0.26342926  1
  O  O204  1  0.00230297  0.36735356  0.75207239  1
  O  O205  1  0.00897499  0.86854758  0.25849639  1
  O  O206  1  0.00506347  0.86501494  0.75916558  1
  O  O207  1  0.50948502  0.36718407  0.25504271  1
  O  O208  1  0.50556127  0.36047670  0.74809020  1
  O  O209  1  0.50523384  0.86651682  0.25614146  1
  O  O210  1  0.51207156  0.87240073  0.76055169  1
  O  O211  1  0.49118129  0.12872492  0.25740313  1
  O  O212  1  0.49475131  0.13245551  0.74471200  1
  O  O213  1  0.49533131  0.63616796  0.25584712  1
  O  O214  1  0.49886163  0.63005452  0.74153277  1
  O  O215  1  0.99320374  0.12956619  0.25294742  1
  O  O216  1  1.00006531  0.13976945  0.74394649  1
  O  O217  1  1.00823615  0.63742325  0.24168348  1
  O  O218  1  0.99021067  0.63508684  0.75699104  1
  O  O219  1  0.38765556  0.23677564  0.01962580  1
  O  O220  1  0.36713091  0.24956005  0.50886719  1
  O  O221  1  0.36839040  0.73913707  0.01193917  1
  O  O222  1  0.38012208  0.75887165  0.51329121  1
  O  O223  1  0.87143300  0.25410353  0.00396592  1
  O  O224  1  0.85909735  0.24468408  0.49520112  1
  O  O225  1  0.87529592  0.74687072  0.01171037  1
  O  O226  1  0.88456130  0.74565297  0.52064944  1
  O  O227  1  0.13062415  0.24510840  0.49684966  1
  O  O228  1  0.07811826  0.23102568  0.97222628  1
  O  O229  1  0.12632191  0.74953296  0.50551141  1
  O  O230  1  0.13572698  0.73953049  0.99778142  1
  O  O231  1  0.63090269  0.24083183  0.49636247  1
  O  O232  1  0.63403172  0.24666367  0.99664568  1
  O  O233  1  0.62339831  0.75093445  0.48519290  1
  O  O234  1  0.62393227  0.74272522  0.99268399  1
  O  O235  1  0.50870269  0.24371529  0.13056155  1
  O  O236  1  0.49029957  0.23964737  0.63236874  1
  O  O237  1  0.49521862  0.75621170  0.13610157  1
  O  O238  1  0.49402758  0.74439767  0.62932162  1
  O  O239  1  0.99429292  0.23070305  0.13932493  1
  O  O240  1  1.00632711  0.24307421  0.63457949  1
  O  O241  1  0.99498363  0.74548500  0.13003565  1
  O  O242  1  0.98872584  0.75526469  0.63707084  1
  O  O243  1  0.00631274  0.25124463  0.37371644  1
  O  O244  1  -0.01183336  0.26426823  0.85385138  1
  O  O245  1  -0.01168891  0.76233352  0.36631989  1
  O  O246  1  0.00209287  0.75695340  0.86442363  1
  O  O247  1  0.50667976  0.25549320  0.37267471  1
  O  O248  1  0.50676946  0.24673004  0.86479591  1
  O  O249  1  0.50830505  0.75397823  0.36629037  1
  O  O250  1  0.50667728  0.75614687  0.87227093  1
  O  O251  1  0.24373909  0.13173775  0.49624149  1
  O  O252  1  0.24799344  0.11879799  0.99240965  1
  O  O253  1  0.26045875  0.62804822  0.48741932  1
  O  O254  1  0.24364889  0.62862244  0.99470782  1
  O  O255  1  0.74073665  0.13008016  0.49843960  1
  O  O256  1  0.74374493  0.13572756  1.00563068  1
  O  O257  1  0.74917271  0.63947502  0.48497013  1
  O  O258  1  0.73807629  0.62743774  0.99443921  1
  O  O259  1  0.27645194  0.37318634  -0.03147422  1
  O  O260  1  0.25467573  0.36050269  0.49082130  1
  O  O261  1  0.24527025  0.85787968  -0.00168036  1
  O  O262  1  0.25662704  0.87684760  0.51201766  1
  O  O263  1  0.75706560  0.36628231  0.00552742  1
  O  O264  1  0.74785079  0.35574465  0.49739580  1
  O  O265  1  0.73983854  0.87356679  0.01334226  1
  O  O266  1  0.76256511  0.87014846  0.48283505  1
  O  O267  1  0.13187494  0.51910078  0.25790662  1
  O  O268  1  0.13844460  0.50126328  0.74040530  1
  O  O269  1  0.13567252  0.99215649  0.25083280  1
  O  O270  1  0.11255872  0.98854649  0.73832439  1
  O  O271  1  0.63373174  0.49536342  0.24330427  1
  O  O272  1  0.61495854  0.48198247  0.75554080  1
  O  O273  1  0.62870662  0.99588285  0.24580987  1
  O  O274  1  0.63544622  0.99008866  0.76258899  1
  O  O275  1  0.36733120  0.00812785  0.25289070  1
  O  O276  1  0.38549330  0.00929701  0.76176039  1
  O  O277  1  0.37984141  0.51046884  0.25660145  1
  O  O278  1  0.36538135  0.49786462  0.75674438  1
  O  O279  1  0.86727904  0.00360321  0.26158569  1
  O  O280  1  0.86157932  -0.00014784  0.76663909  1
  O  O281  1  0.86114354  0.49216477  0.26012348  1
  O  O282  1  0.88438965  0.51237623  0.75703495  1
  O  O283  1  0.11464074  0.36218766  0.38006909  1
  O  O284  1  0.11049557  0.37755823  0.87116153  1
  O  O285  1  0.11343932  0.88143480  0.36731125  1
  O  O286  1  0.11941984  0.87355051  0.86136855  1
  O  O287  1  0.62157607  0.37102184  0.37056474  1
  O  O288  1  0.62673251  0.36144903  0.86633336  1
  O  O289  1  0.61937845  0.86694889  0.36798174  1
  O  O290  1  0.61610553  0.86792433  0.87045950  1
  O  O291  1  0.38119996  0.12107104  0.13389836  1
  O  O292  1  0.38246194  0.13206499  0.63185615  1
  O  O293  1  0.37330329  0.63677622  0.13964249  1
  O  O294  1  0.38459791  0.63396822  0.62673762  1
  O  O295  1  0.87913060  0.12706758  0.13633779  1
  O  O296  1  0.88879795  0.11937343  0.61996928  1
  O  O297  1  0.88715860  0.63601305  0.12203647  1
  O  O298  1  0.87593222  0.61780715  0.63626032  1
  O  O299  1  0.21003855  0.27383658  0.11658034  1
  O  O300  1  0.25721611  0.24174089  0.61589993  1
  O  O301  1  0.25803767  0.74816720  0.11802627  1
  O  O302  1  0.26120818  0.75965661  0.62438743  1
  O  O303  1  0.75688242  0.25599424  0.11714204  1
  O  O304  1  0.74596103  0.24855826  0.61185234  1
  O  O305  1  0.75989667  0.75867655  0.12562178  1
  O  O306  1  0.76782356  0.74809388  0.62556069  1
  O  O307  1  0.23781643  0.24193980  0.38466650  1
  O  O308  1  0.24738608  0.22449714  0.87365629  1
  O  O309  1  0.26617081  0.73843590  0.37884436  1
  O  O310  1  0.25151571  0.74150154  0.88211103  1
  O  O311  1  0.74406061  0.24176829  0.38206263  1
  O  O312  1  0.74268538  0.25362269  0.88745870  1
  O  O313  1  0.74177403  0.74216358  0.36185321  1
  O  O314  1  0.73719827  0.75179056  0.87627087  1
  O  O315  1  -0.01090576  0.11375566  0.02524541  1
  O  O316  1  0.00565555  0.11531924  0.50820644  1
  O  O317  1  0.00803581  0.62019304  0.00390454  1
  O  O318  1  0.01594378  0.60506694  0.45266729  1
  O  O319  1  0.50177745  0.12239767  0.00932096  1
  O  O320  1  0.50462035  0.12076201  0.50728706  1
  O  O321  1  0.51695188  0.61502090  -0.00221505  1
  O  O322  1  0.49923263  0.61860828  0.50909438  1
  O  O323  1  0.49749735  0.38259298  0.49399079  1
  O  O324  1  0.50400328  0.39024347  1.00514163  1
  O  O325  1  0.49748416  0.88430453  0.49893233  1
  O  O326  1  0.50692146  0.88311456  0.98939897  1
  O  O327  1  0.99951652  0.38017524  0.48709246  1
  O  O328  1  0.99232615  0.38763506  0.98490143  1
  O  O329  1  1.00507822  0.88788926  0.49397436  1
  O  O330  1  1.00312236  0.86555602  0.98016383  1
  O  O331  1  0.49522541  0.49799709  0.38012519  1
  O  O332  1  0.49318097  0.50022209  0.89036970  1
  O  O333  1  0.49927068  0.99367019  0.38714445  1
  O  O334  1  0.49391650  0.99466511  0.88401787  1
  O  O335  1  0.98817035  0.48289028  0.35830396  1
  O  O336  1  0.99268671  0.49653961  0.87859868  1
  O  O337  1  0.99295667  0.99346063  0.38453475  1
  O  O338  1  0.98254326  0.98392749  0.86859493  1
  O  O339  1  -0.00392542  0.00892606  0.13696657  1
  O  O340  1  0.00444094  0.00513467  0.62162697  1
  O  O341  1  -0.01110351  0.51386457  0.10935566  1
  O  O342  1  0.01826543  0.50549278  0.62106110  1
  O  O343  1  0.50658058  -0.01075652  0.11404799  1
  O  O344  1  0.49447699  0.01172999  0.61738181  1
  O  O345  1  0.51676823  0.49892194  0.11895061  1
  O  O346  1  0.50079598  0.50864342  0.61818164  1
  O  O347  1  0.23547587  0.39998251  0.26638000  1
  O  O348  1  0.24845835  0.38858447  0.76049550  1
  O  O349  1  0.24309465  0.88183215  0.25527245  1
  O  O350  1  0.23994463  0.86960628  0.74031844  1
  O  O351  1  0.74657983  0.38124193  0.24590361  1
  O  O352  1  0.73308833  0.36647343  0.74808909  1
  O  O353  1  0.74443117  0.88191159  0.24137382  1
  O  O354  1  0.73592847  0.88014307  0.75527343  1
  O  O355  1  0.25782538  0.11816624  0.25400122  1
  O  O356  1  0.26139892  0.12210643  0.74630249  1
  O  O357  1  0.26108579  0.62137777  0.26119309  1
  O  O358  1  0.25313892  0.61760058  0.75810268  1
  O  O359  1  0.75224800  0.11931104  0.25602867  1
  O  O360  1  0.73852659  0.11498588  0.75621891  1
  O  O361  1  0.74429436  0.61316594  0.25802876  1
  O  O362  1  0.76622756  0.62775063  0.75239543  1
  O  O363  1  0.36783458  0.12137016  0.37013804  1
  O  O364  1  0.36228764  0.11574460  0.86741652  1
  O  O365  1  0.37417674  0.61757264  0.36622836  1
  O  O366  1  0.36422039  0.62183669  0.87527445  1
  O  O367  1  0.86968178  0.11286042  0.37211802  1
  O  O368  1  0.88958218  0.11911906  0.88290314  1
  O  O369  1  0.86349747  0.61668591  0.37327201  1
  O  O370  1  0.87248689  0.61787651  0.86719866  1
  O  O371  1  0.08174974  0.37887885  0.12558115  1
  O  O372  1  0.12774950  0.39215720  0.62498989  1
  O  O373  1  0.12787554  0.87644865  0.13980014  1
  O  O374  1  0.13099497  0.88257744  0.63329413  1
  O  O375  1  0.63694765  0.38561395  0.13111308  1
  O  O376  1  0.62036076  0.37195378  0.64223700  1
  O  O377  1  0.63351185  0.88102527  0.13145595  1
  O  O378  1  0.61912614  0.87348094  0.64339160  1
  O  O379  1  0.11752571  0.24559815  0.26249399  1
  O  O380  1  0.11603080  0.25244119  0.75748952  1
  O  O381  1  0.11543009  0.75948026  0.24751374  1
  O  O382  1  0.11734280  0.75687209  0.74705824  1
  O  O383  1  0.62250631  0.25371802  0.25565597  1
  O  O384  1  0.61628989  0.25461276  0.75874922  1
  O  O385  1  0.61900762  0.75371870  0.25490034  1
  O  O386  1  0.62212432  0.76000043  0.75886627  1
  O  O387  1  0.38229700  0.23359076  0.25600180  1
  O  O388  1  0.37870930  0.24146083  0.74726747  1
  O  O389  1  0.38497180  0.74366972  0.24495078  1
  O  O390  1  0.38281834  0.75043193  0.73870338  1
  O  O391  1  0.88044048  0.24134969  0.24855459  1
  O  O392  1  0.88327635  0.25529975  0.74220702  1
  O  O393  1  0.88899096  0.75697474  0.23693362  1
  O  O394  1  0.88042067  0.73849308  0.73809042  1
  O  O395  1  0.38456565  0.49736396  0.48989356  1
  O  O396  1  0.39292623  0.50809384  1.01058501  1
  O  O397  1  0.38511849  0.99630066  0.50095433  1
  O  O398  1  0.38820141  1.00438831  0.99099291  1
  O  O399  1  0.87607002  0.50029431  0.48258912  1
  O  O400  1  0.88322409  0.49817760  0.99023476  1
  O  O401  1  0.88369681  1.00573152  0.49148137  1
  O  O402  1  0.87791350  0.99828844  0.98525034  1
  O  O403  1  0.11107214  -0.01044936  0.00581386  1
  O  O404  1  0.11530107  0.00398041  0.51146347  1
  O  O405  1  0.11482999  0.50983780  -0.00764178  1
  O  O406  1  0.13466750  0.49950608  0.50982234  1
  O  O407  1  0.61511232  0.00973436  0.00084711  1
  O  O408  1  0.61487167  0.01225542  0.49659017  1
  O  O409  1  0.61988780  0.50441103  0.00550485  1
  O  O410  1  0.60867249  0.50517579  0.49367118  1
  O  O411  1  0.36481838  0.36121783  0.15470827  1
  O  O412  1  0.38082862  0.35846138  0.62592963  1
  O  O413  1  0.36977582  0.85972453  0.13288121  1
  O  O414  1  0.36984379  0.87131881  0.62511899  1
  O  O415  1  0.87742247  0.36678490  0.11722321  1
  O  O416  1  0.87676159  0.38052831  0.61837891  1
  O  O417  1  0.86551917  0.86916812  0.12782627  1
  O  O418  1  0.87649854  0.86767290  0.63284178  1
  O  O419  1  0.12688677  0.13247509  0.38311655  1
  O  O420  1  0.14251119  0.10613015  0.86677202  1
  O  O421  1  0.15027167  0.62883873  0.37531820  1
  O  O422  1  0.13511059  0.62772882  0.88370552  1
  O  O423  1  0.62887627  0.13027571  0.38557618  1
  O  O424  1  0.61659815  0.13700493  0.89226255  1
  O  O425  1  0.63387921  0.63466152  0.37556266  1
  O  O426  1  0.62630518  0.63485244  0.87913662  1
