# generated using pymatgen
data_V85Zn86O256
_symmetry_space_group_name_H-M   'P 1'
_cell_length_a   16.96706137
_cell_length_b   16.95776755
_cell_length_c   16.96936441
_cell_angle_alpha   90.05885363
_cell_angle_beta   89.95649971
_cell_angle_gamma   90.04717796
_symmetry_Int_Tables_number   1
_chemical_formula_structural   V85Zn86O256
_chemical_formula_sum   'V85 Zn86 O256'
_cell_volume   4882.47899235
_cell_formula_units_Z   1
loop_
 _symmetry_equiv_pos_site_id
 _symmetry_equiv_pos_as_xyz
  1  'x, y, z'
loop_
 _atom_site_type_symbol
 _atom_site_label
 _atom_site_symmetry_multiplicity
 _atom_site_fract_x
 _atom_site_fract_y
 _atom_site_fract_z
 _atom_site_occupancy
  V  V0  1  0.12667642  -0.00111738  0.13245306  1
  V  V1  1  0.50092653  0.50006011  0.00073347  1
  V  V2  1  0.25415753  0.75101969  0.00315025  1
  V  V3  1  0.87581009  0.24951692  0.12892478  1
  V  V4  1  0.37750433  0.62817259  0.75608649  1
  V  V5  1  0.74997714  0.37270078  0.62544590  1
  V  V6  1  0.87513149  0.62602848  0.25198773  1
  V  V7  1  0.75156401  0.75106939  0.00244675  1
  V  V8  1  0.62479737  0.37421179  0.75059772  1
  V  V9  1  0.74471912  0.37527742  0.12926078  1
  V  V10  1  0.87793688  0.62652058  0.74619524  1
  V  V11  1  0.62613519  0.25443639  0.35330217  1
  V  V12  1  0.00559525  0.12548164  0.12182620  1
  V  V13  1  0.75034277  0.12431688  0.87550402  1
  V  V14  1  0.12464944  0.24496570  0.87165366  1
  V  V15  1  0.61010893  0.12154526  0.00072286  1
  V  V16  1  0.50579819  -0.00550300  0.49247322  1
  V  V17  1  0.49321436  0.62420630  0.62662020  1
  V  V18  1  0.75129937  0.62644354  0.87606849  1
  V  V19  1  0.50140959  0.75271188  0.75342680  1
  V  V20  1  0.24992984  0.50226957  0.25527500  1
  V  V21  1  0.74812659  0.11388429  0.37262872  1
  V  V22  1  0.24884357  0.37224745  0.12455282  1
  V  V23  1  0.87389875  0.87605470  0.00245264  1
  V  V24  1  0.49883287  0.37376990  0.87428528  1
  V  V25  1  0.24849910  0.87350168  0.13008825  1
  V  V26  1  0.49890661  0.49573725  0.49984255  1
  V  V27  1  0.12527306  0.49863471  0.12487649  1
  V  V28  1  0.74955817  0.49840376  0.75058915  1
  V  V29  1  0.62117966  0.00215613  0.11545430  1
  V  V30  1  0.24497047  0.24064405  0.00051182  1
  V  V31  1  0.49567607  0.75768258  0.24706729  1
  V  V32  1  0.39548411  -0.00391827  0.87756095  1
  V  V33  1  0.24787571  0.50203685  0.74322801  1
  V  V34  1  0.74672772  0.62475564  0.37752723  1
  V  V35  1  0.87046370  0.10878066  0.25127950  1
  V  V36  1  0.88092761  0.12796167  0.74836471  1
  V  V37  1  0.38227651  -0.00539493  0.37429435  1
  V  V38  1  0.62494243  0.87536913  0.74204519  1
  V  V39  1  0.87073912  0.88626276  0.48862491  1
  V  V40  1  0.00185401  0.36957776  0.86844890  1
  V  V41  1  0.75088866  -0.00496121  0.74394010  1
  V  V42  1  0.38686937  0.24485517  0.12572818  1
  V  V43  1  0.24674859  0.62332522  0.87904069  1
  V  V44  1  0.87511187  0.00064801  0.87497599  1
  V  V45  1  0.38776690  0.87834406  0.00378718  1
  V  V46  1  0.24895971  0.24174141  0.49897970  1
  V  V47  1  0.50270415  0.12596176  0.61609408  1
  V  V48  1  0.74046008  0.24695896  0.49898187  1
  V  V49  1  0.87961030  0.24795442  0.62402418  1
  V  V50  1  0.74958630  0.24773471  0.00000680  1
  V  V51  1  0.37470500  0.49700145  0.87725885  1
  V  V52  1  0.49849622  0.62599325  0.12507564  1
  V  V53  1  0.24607860  0.11659739  0.87243024  1
  V  V54  1  0.87632683  0.75057551  0.12772270  1
  V  V55  1  0.37671084  0.37212389  0.49824774  1
  V  V56  1  0.74196591  0.49680547  0.25084494  1
  V  V57  1  0.49755846  0.24876558  0.74862399  1
  V  V58  1  0.37199223  0.62517116  0.25031695  1
  V  V59  1  0.87668623  0.49959067  0.87494364  1
  V  V60  1  0.87587250  0.37421561  -0.00069523  1
  V  V61  1  0.00187052  0.11974903  0.61916012  1
  V  V62  1  0.00051267  0.37077825  0.37408148  1
  V  V63  1  0.63276570  0.88308179  0.25497065  1
  V  V64  1  0.62410197  0.75793090  0.87718366  1
  V  V65  1  0.00598680  0.00256657  0.00141766  1
  V  V66  1  0.62377387  0.24802695  0.87535664  1
  V  V67  1  0.12621321  -0.01596279  0.63310161  1
  V  V68  1  0.12628334  0.37674185  0.74267670  1
  V  V69  1  0.38985379  0.13020963  0.24611993  1
  V  V70  1  0.62069941  0.62307076  0.49996306  1
  V  V71  1  0.50449901  0.37038326  0.36188069  1
  V  V72  1  0.37146085  0.24462195  0.62545413  1
  V  V73  1  0.37388541  0.37148273  -0.00044439  1
  V  V74  1  0.61902705  0.75034333  0.37345229  1
  V  V75  1  0.14496797  0.62374044  0.48265914  1
  V  V76  1  0.00486342  0.87036137  0.86934030  1
  V  V77  1  0.86633776  0.75643302  0.62157857  1
  V  V78  1  0.62640433  0.00372545  0.62067661  1
  V  V79  1  0.00181356  0.50044225  0.00042265  1
  V  V80  1  0.00883157  0.75891477  0.26123964  1
  V  V81  1  0.00092549  0.62485827  0.12651502  1
  V  V82  1  0.12556608  0.11565933  0.49928558  1
  V  V83  1  0.01020151  0.61827696  0.61645697  1
  V  V84  1  0.87618630  0.49900195  0.38005720  1
  Zn  Zn85  1  0.25315635  0.12484700  0.37045568  1
  Zn  Zn86  1  0.62313876  0.49783587  0.12675651  1
  Zn  Zn87  1  0.62462378  0.49851174  0.62634219  1
  Zn  Zn88  1  0.37145875  0.50219749  0.37808891  1
  Zn  Zn89  1  0.13567230  0.76102652  0.86531136  1
  Zn  Zn90  1  0.00405644  0.24828591  0.25066119  1
  Zn  Zn91  1  0.01045191  0.49335429  0.50584530  1
  Zn  Zn92  1  0.12385051  0.62964037  0.00019662  1
  Zn  Zn93  1  0.13743160  0.76052964  0.38163561  1
  Zn  Zn94  1  0.25127168  0.00021777  0.25328494  1
  Zn  Zn95  1  0.12517648  0.24655172  0.37404285  1
  Zn  Zn96  1  0.00724007  0.91091919  0.39183397  1
  Zn  Zn97  1  0.32681721  0.81466261  0.56267324  1
  Zn  Zn98  1  0.62624661  0.62533572  0.00204674  1
  Zn  Zn99  1  0.75644771  0.88316110  0.13494062  1
  Zn  Zn100  1  0.73303755  0.75819346  0.51302036  1
  Zn  Zn101  1  0.00682420  0.75588886  0.73912942  1
  Zn  Zn102  1  0.12589148  0.37054433  0.25086970  1
  Zn  Zn103  1  0.87613146  0.37155596  0.50068725  1
  Zn  Zn104  1  0.24829747  -0.02218526  0.75274511  1
  Zn  Zn105  1  0.24446946  0.38964354  0.61767155  1
  Zn  Zn106  1  0.37338461  0.11421649  0.74741506  1
  Zn  Zn107  1  0.19285872  0.18489082  0.19283800  1
  Zn  Zn108  1  0.18765912  0.18385946  0.68948931  1
  Zn  Zn109  1  0.18512191  0.68773188  0.18838603  1
  Zn  Zn110  1  0.18969913  0.79654629  0.69248563  1
  Zn  Zn111  1  0.68914639  0.18114513  0.18410946  1
  Zn  Zn112  1  0.68962529  0.18573281  0.68825070  1
  Zn  Zn113  1  0.68698873  0.68776327  0.18793618  1
  Zn  Zn114  1  0.68381982  0.68338594  0.68875565  1
  Zn  Zn115  1  0.31335043  0.31162406  0.31099951  1
  Zn  Zn116  1  0.30753602  0.31138662  0.80989770  1
  Zn  Zn117  1  0.32076891  0.81842003  0.31337320  1
  Zn  Zn118  1  0.32015797  0.81389749  0.82020383  1
  Zn  Zn119  1  0.81290280  0.31185737  0.31280885  1
  Zn  Zn120  1  0.81261931  0.31071320  0.81147617  1
  Zn  Zn121  1  0.81169544  0.81007058  0.31783080  1
  Zn  Zn122  1  0.81416458  0.81278548  0.81207871  1
  Zn  Zn123  1  0.18604720  0.43680007  0.43955883  1
  Zn  Zn124  1  0.18618290  0.43493842  0.93727723  1
  Zn  Zn125  1  0.19184015  0.93431933  0.43503676  1
  Zn  Zn126  1  0.18921226  0.93641098  0.94393804  1
  Zn  Zn127  1  0.68747383  0.43339510  0.43782435  1
  Zn  Zn128  1  0.68741036  0.43751339  0.93941189  1
  Zn  Zn129  1  0.68748858  0.93203713  0.44175389  1
  Zn  Zn130  1  0.68696706  0.93817965  0.93492073  1
  Zn  Zn131  1  0.31655538  0.06068819  0.06164240  1
  Zn  Zn132  1  0.32422241  0.02226285  0.57494939  1
  Zn  Zn133  1  0.31434083  0.56180595  0.06676208  1
  Zn  Zn134  1  0.27212043  0.63683925  0.60485742  1
  Zn  Zn135  1  0.80684324  0.06009989  0.06549496  1
  Zn  Zn136  1  0.80941873  0.06540841  0.55844477  1
  Zn  Zn137  1  0.81347774  0.56255444  0.06373586  1
  Zn  Zn138  1  0.80941355  0.56437299  0.56278475  1
  Zn  Zn139  1  0.43250308  0.43858716  0.18347815  1
  Zn  Zn140  1  0.43328326  0.43719069  0.68659257  1
  Zn  Zn141  1  0.43894688  0.94185036  0.18479671  1
  Zn  Zn142  1  0.43499367  0.93027031  0.68587000  1
  Zn  Zn143  1  0.93565037  0.43798578  0.19142585  1
  Zn  Zn144  1  0.93729786  0.43692758  0.68760402  1
  Zn  Zn145  1  0.94265618  0.93636604  0.19138324  1
  Zn  Zn146  1  0.93939332  0.94030730  0.68221208  1
  Zn  Zn147  1  0.06228223  0.06354630  0.31298124  1
  Zn  Zn148  1  0.06182341  0.05982668  0.81113987  1
  Zn  Zn149  1  0.06414227  0.56389214  0.31417198  1
  Zn  Zn150  1  0.06430234  0.56301463  0.80813673  1
  Zn  Zn151  1  0.56711230  0.06835832  0.30912852  1
  Zn  Zn152  1  0.56430369  0.06686925  0.80633532  1
  Zn  Zn153  1  0.55672027  0.56234988  0.31375156  1
  Zn  Zn154  1  0.56570972  0.56341138  0.81702306  1
  Zn  Zn155  1  0.44226279  0.18554622  0.43265034  1
  Zn  Zn156  1  0.43089092  0.18577293  0.93505336  1
  Zn  Zn157  1  0.41885443  0.68837871  0.43329176  1
  Zn  Zn158  1  0.43728716  0.69090537  0.93990137  1
  Zn  Zn159  1  0.93545807  0.17906082  0.43657312  1
  Zn  Zn160  1  0.93799406  0.18778276  0.93846127  1
  Zn  Zn161  1  0.93395602  0.68941875  0.44222127  1
  Zn  Zn162  1  0.93714716  0.68765238  0.93898482  1
  Zn  Zn163  1  0.06390050  0.31238518  0.05917547  1
  Zn  Zn164  1  0.06085077  0.30790095  0.55992099  1
  Zn  Zn165  1  0.06607416  0.81125258  0.06266298  1
  Zn  Zn166  1  0.05649452  0.80564774  0.55148136  1
  Zn  Zn167  1  0.56424917  0.31211766  0.06084571  1
  Zn  Zn168  1  0.56354633  0.31080256  0.56154081  1
  Zn  Zn169  1  0.56815816  0.81207467  0.07041706  1
  Zn  Zn170  1  0.51772331  0.79145280  0.54046191  1
  O  O171  1  0.11114857  0.11939088  0.12765240  1
  O  O172  1  0.11479815  0.12431469  0.62054472  1
  O  O173  1  0.11880216  0.61758967  0.12186460  1
  O  O174  1  0.10878705  0.62305658  0.61272799  1
  O  O175  1  0.62954809  0.11249438  0.11557692  1
  O  O176  1  0.61539449  0.11440579  0.63445787  1
  O  O177  1  0.61392962  0.62206302  0.12350531  1
  O  O178  1  0.61285189  0.61994099  0.62049609  1
  O  O179  1  0.38595564  0.36747707  0.38623157  1
  O  O180  1  0.37923750  0.37651191  0.87938164  1
  O  O181  1  0.39141645  0.89706353  0.36233364  1
  O  O182  1  0.37816258  0.88754357  0.89000021  1
  O  O183  1  0.88163951  0.38220258  0.37552316  1
  O  O184  1  0.88302261  0.37693466  0.87763648  1
  O  O185  1  0.87373721  0.87543608  0.38575444  1
  O  O186  1  0.88270523  0.88067756  0.88421260  1
  O  O187  1  0.27120232  0.00073835  0.37679977  1
  O  O188  1  0.24590743  0.00908760  0.87647093  1
  O  O189  1  0.25278141  0.49031027  0.35887107  1
  O  O190  1  0.25675621  0.50528230  0.87277765  1
  O  O191  1  0.73893384  0.01620866  0.37747277  1
  O  O192  1  0.75592341  0.00529710  0.86599845  1
  O  O193  1  0.75520853  0.50245394  0.36896405  1
  O  O194  1  0.75737076  0.50425930  0.87139731  1
  O  O195  1  0.24564559  0.49194047  0.13087407  1
  O  O196  1  0.25347242  0.51315810  0.64215203  1
  O  O197  1  0.24087379  0.99146052  0.11928175  1
  O  O198  1  0.22877358  1.00955791  0.63624390  1
  O  O199  1  0.75176888  0.49224457  0.13298828  1
  O  O200  1  0.74859121  0.49187752  0.63229971  1
  O  O201  1  0.73387870  0.99599024  0.12372343  1
  O  O202  1  0.73999342  1.01195682  0.63555848  1
  O  O203  1  0.00060653  0.37204254  0.25977734  1
  O  O204  1  0.00841994  0.38089948  0.76181333  1
  O  O205  1  -0.00338996  0.85998551  0.25373507  1
  O  O206  1  -0.00916239  0.87726494  0.76701875  1
  O  O207  1  0.49289692  0.38120090  0.26360889  1
  O  O208  1  0.50379852  0.36954605  0.75486595  1
  O  O209  1  0.50746645  0.86128549  0.24208428  1
  O  O210  1  0.50812537  0.86271247  0.74448544  1
  O  O211  1  0.48959906  0.12706844  0.24809381  1
  O  O212  1  0.49491271  0.13151929  0.73932850  1
  O  O213  1  0.49409855  0.63018092  0.24214958  1
  O  O214  1  0.49507201  0.62642158  0.74731672  1
  O  O215  1  0.98432021  0.12806125  0.23733708  1
  O  O216  1  0.98647342  0.11944718  0.74120230  1
  O  O217  1  0.99362429  0.63107393  0.24455950  1
  O  O218  1  0.98928433  0.62082381  0.73990636  1
  O  O219  1  0.36554379  0.25189751  0.00558977  1
  O  O220  1  0.37104618  0.25268831  0.50672711  1
  O  O221  1  0.36598016  0.76573967  -0.00550252  1
  O  O222  1  0.41272709  0.75631344  0.51555056  1
  O  O223  1  0.86930984  0.25322791  0.00874468  1
  O  O224  1  0.86507578  0.24732190  0.50993935  1
  O  O225  1  0.87227092  0.75850897  0.00665758  1
  O  O226  1  0.86517710  0.75076621  0.51413719  1
  O  O227  1  0.13473595  0.23953800  0.50105245  1
  O  O228  1  0.13628252  0.25517354  0.98720462  1
  O  O229  1  0.11733045  0.72636294  0.49722107  1
  O  O230  1  0.13915400  0.74969194  0.99341491  1
  O  O231  1  0.63798488  0.24775627  0.49910501  1
  O  O232  1  0.63022361  0.24086200  0.99512532  1
  O  O233  1  0.61424692  0.74357173  0.49014505  1
  O  O234  1  0.63185964  0.75255152  0.99256693  1
  O  O235  1  0.48575679  0.25469341  0.11925290  1
  O  O236  1  0.49207827  0.24409213  0.62767114  1
  O  O237  1  0.50637303  0.73966940  0.13892115  1
  O  O238  1  0.50875826  0.73450004  0.64394557  1
  O  O239  1  0.99098633  0.24220406  0.11894552  1
  O  O240  1  0.98675847  0.23949461  0.62180832  1
  O  O241  1  0.99698506  0.74572306  0.13451458  1
  O  O242  1  0.98426828  0.73410187  0.62395020  1
  O  O243  1  -0.00382958  0.25921922  0.37490230  1
  O  O244  1  0.00936545  0.25941121  0.88226093  1
  O  O245  1  -0.00571900  0.74369253  0.36105355  1
  O  O246  1  -0.00261360  0.76575945  0.87886430  1
  O  O247  1  0.51959603  0.25425938  0.37787803  1
  O  O248  1  0.50285056  0.25397410  0.86929970  1
  O  O249  1  0.51099210  0.74107745  0.35796554  1
  O  O250  1  0.51371303  0.74162156  0.86615368  1
  O  O251  1  0.24335936  0.13304453  0.50002407  1
  O  O252  1  0.25494837  0.13363777  0.99039440  1
  O  O253  1  0.24442890  0.62043264  0.49498945  1
  O  O254  1  0.25552101  0.63279877  0.99583220  1
  O  O255  1  0.75883838  0.13412237  0.48055362  1
  O  O256  1  0.74454488  0.12961683  0.99280445  1
  O  O257  1  0.73716741  0.62750878  0.49552536  1
  O  O258  1  0.75211219  0.63279318  0.99412008  1
  O  O259  1  0.25574656  0.36458799  0.00323438  1
  O  O260  1  0.25826036  0.36699769  0.50256735  1
  O  O261  1  0.25782522  0.86800408  0.00786790  1
  O  O262  1  0.26459898  0.84328629  0.46196749  1
  O  O263  1  0.75687549  0.36905302  0.00672455  1
  O  O264  1  0.75302782  0.36505720  0.50721876  1
  O  O265  1  0.76322661  0.87089449  -0.00320926  1
  O  O266  1  0.76107624  0.86859855  0.49931089  1
  O  O267  1  0.13390300  0.49918708  0.24257003  1
  O  O268  1  0.13625370  0.48799561  0.75866258  1
  O  O269  1  0.12849717  1.00433921  0.23624546  1
  O  O270  1  0.11956728  0.99589542  0.73664591  1
  O  O271  1  0.63880337  0.50467221  0.25085227  1
  O  O272  1  0.63178140  0.49237153  0.75228795  1
  O  O273  1  0.62103326  0.98634366  0.24672332  1
  O  O274  1  0.63162101  0.99434819  0.74533590  1
  O  O275  1  0.38149254  0.01234525  0.25767715  1
  O  O276  1  0.37257688  -0.00620912  0.76898623  1
  O  O277  1  0.36632624  0.50715390  0.25000267  1
  O  O278  1  0.36946827  0.50523350  0.75882665  1
  O  O279  1  0.86982934  0.01060383  0.24065748  1
  O  O280  1  0.86781397  0.00729808  0.75201415  1
  O  O281  1  0.86584332  0.50614710  0.25998604  1
  O  O282  1  0.86907615  0.50666087  0.75597269  1
  O  O283  1  0.11161014  0.37296321  0.37527532  1
  O  O284  1  0.11911992  0.36722803  0.86775298  1
  O  O285  1  0.11140698  0.87070580  0.39337183  1
  O  O286  1  0.10659635  0.87927332  0.88424941  1
  O  O287  1  0.62037350  0.36233416  0.37505303  1
  O  O288  1  0.61941311  0.36736745  0.87120184  1
  O  O289  1  0.62559884  0.86675197  0.36326507  1
  O  O290  1  0.62994177  0.86506162  0.86357893  1
  O  O291  1  0.37257594  0.13023614  0.13528635  1
  O  O292  1  0.38317828  0.12987311  0.62561321  1
  O  O293  1  0.38781124  0.62174338  0.13537235  1
  O  O294  1  0.38544312  0.62019964  0.64405759  1
  O  O295  1  0.87712029  0.13073666  0.13318491  1
  O  O296  1  0.88140844  0.12802105  0.62893727  1
  O  O297  1  0.88092820  0.63027476  0.13130936  1
  O  O298  1  0.87432753  0.63135042  0.63416632  1
  O  O299  1  0.25444309  0.25210611  0.11517668  1
  O  O300  1  0.25998804  0.24704618  0.61703512  1
  O  O301  1  0.24483988  0.76441388  0.11883190  1
  O  O302  1  0.26101931  0.74588008  0.62453779  1
  O  O303  1  0.75763017  0.25552801  0.12044348  1
  O  O304  1  0.75666150  0.25007794  0.61793229  1
  O  O305  1  0.75795369  0.75310835  0.11997577  1
  O  O306  1  0.76107454  0.74498176  0.63002015  1
  O  O307  1  0.25110369  0.24964912  0.38893757  1
  O  O308  1  0.24557169  0.24101274  0.88164997  1
  O  O309  1  0.25924213  0.78104419  0.40294967  1
  O  O310  1  0.25360730  0.73793966  0.88600492  1
  O  O311  1  0.73906145  0.25125705  0.37928022  1
  O  O312  1  0.74417820  0.24485391  0.88000981  1
  O  O313  1  0.73321423  0.74113452  0.37437685  1
  O  O314  1  0.74469288  0.74668572  0.88068858  1
  O  O315  1  -0.01120727  0.11331596  0.01086108  1
  O  O316  1  0.01078952  0.12849768  0.50909010  1
  O  O317  1  0.00010600  0.61877438  0.00667164  1
  O  O318  1  -0.00756397  0.61820027  0.51075622  1
  O  O319  1  0.51161940  0.12910486  -0.00508760  1
  O  O320  1  0.50237402  0.12332521  0.51191034  1
  O  O321  1  0.49805465  0.62065220  0.00938443  1
  O  O322  1  0.50099862  0.61233137  0.50802933  1
  O  O323  1  0.49563144  0.37741942  0.49452424  1
  O  O324  1  0.49425910  0.37861590  0.99324392  1
  O  O325  1  0.50543659  0.89676697  0.49855355  1
  O  O326  1  0.48569677  0.86740919  1.01213828  1
  O  O327  1  0.99612441  0.37689898  0.49158419  1
  O  O328  1  0.99531950  0.38031496  0.98997955  1
  O  O329  1  0.97483087  0.86556289  0.50004400  1
  O  O330  1  0.98999789  0.88253302  0.99573557  1
  O  O331  1  0.49964029  0.48926577  0.38480649  1
  O  O332  1  0.49456336  0.49377228  0.88021037  1
  O  O333  1  0.50114746  1.01309609  0.38640812  1
  O  O334  1  0.49374130  1.00293330  0.87283139  1
  O  O335  1  0.98914606  0.49207751  0.37340204  1
  O  O336  1  0.99573365  0.49162853  0.87974944  1
  O  O337  1  0.98172135  1.01467972  0.36705338  1
  O  O338  1  0.99474927  0.99405614  0.88365804  1
  O  O339  1  0.00626839  0.00504057  0.12044288  1
  O  O340  1  0.01164031  0.00963027  0.62473790  1
  O  O341  1  0.00350444  0.50387001  0.12072868  1
  O  O342  1  -0.00899944  0.51244367  0.62277791  1
  O  O343  1  0.52136047  -0.00520403  0.12724400  1
  O  O344  1  0.50697389  0.00828326  0.61429228  1
  O  O345  1  0.50211079  0.50588585  0.11949231  1
  O  O346  1  0.50033242  0.50515960  0.61804003  1
  O  O347  1  0.25100083  0.38242429  0.24148801  1
  O  O348  1  0.24516894  0.38501461  0.74470659  1
  O  O349  1  0.26078278  0.87908316  0.23317838  1
  O  O350  1  0.24040416  0.86693638  0.76666679  1
  O  O351  1  0.75854168  0.38458109  0.23953065  1
  O  O352  1  0.74459975  0.37820631  0.74626625  1
  O  O353  1  0.73586856  0.86951126  0.25221512  1
  O  O354  1  0.74419681  0.88804769  0.75409384  1
  O  O355  1  0.26317992  0.11755783  0.25220198  1
  O  O356  1  0.25501465  0.12353932  0.76328978  1
  O  O357  1  0.26063074  0.61617569  0.23871750  1
  O  O358  1  0.26369579  0.61777826  0.76479955  1
  O  O359  1  0.76197225  0.12784074  0.25725707  1
  O  O360  1  0.75789048  0.11564603  0.75606994  1
  O  O361  1  0.75506210  0.61756231  0.25598807  1
  O  O362  1  0.75809904  0.61909792  0.75613337  1
  O  O363  1  0.37769720  0.12338603  0.36002188  1
  O  O364  1  0.36783513  0.10873776  0.87590613  1
  O  O365  1  0.37981981  0.61908739  0.35739030  1
  O  O366  1  0.37049239  0.61735182  0.87326483  1
  O  O367  1  0.86267388  0.13102805  0.35887323  1
  O  O368  1  0.87238427  0.12170493  0.86693934  1
  O  O369  1  0.86699764  0.61774285  0.37216983  1
  O  O370  1  0.87265317  0.62118085  0.86601735  1
  O  O371  1  0.13101548  0.38043866  0.12510393  1
  O  O372  1  0.12526804  0.36744079  0.63765729  1
  O  O373  1  0.13838090  0.88399344  0.12030847  1
  O  O374  1  0.11970024  0.88226355  0.61928231  1
  O  O375  1  0.64079668  0.37493423  0.11948764  1
  O  O376  1  0.63111350  0.37412451  0.63322579  1
  O  O377  1  0.63072891  0.88285161  0.13655685  1
  O  O378  1  0.62392944  0.88962952  0.63832040  1
  O  O379  1  0.12242669  0.25084779  0.25522341  1
  O  O380  1  0.13528849  0.26162579  0.76297684  1
  O  O381  1  0.11296371  0.74609028  0.25706301  1
  O  O382  1  0.11526180  0.74117831  0.75674229  1
  O  O383  1  0.63081432  0.25350193  0.25463411  1
  O  O384  1  0.61933754  0.25346639  0.75599660  1
  O  O385  1  0.61688654  0.75792086  0.25430719  1
  O  O386  1  0.62257200  0.75742438  0.75709375  1
  O  O387  1  0.37069151  0.23882656  0.24017715  1
  O  O388  1  0.37855297  0.25067435  0.73862438  1
  O  O389  1  0.38935718  0.74468298  0.25516220  1
  O  O390  1  0.38949239  0.73755529  0.76624414  1
  O  O391  1  0.87561017  0.24671525  0.23604215  1
  O  O392  1  0.86498500  0.23678384  0.73838318  1
  O  O393  1  0.88099832  0.74450969  0.24603358  1
  O  O394  1  0.87794250  0.74139985  0.74309317  1
  O  O395  1  0.38715381  0.48388786  0.49761053  1
  O  O396  1  0.38027817  0.49159861  0.99687175  1
  O  O397  1  0.39276379  1.01350489  0.48213344  1
  O  O398  1  0.37560047  0.99093653  0.98920062  1
  O  O399  1  0.86985387  0.49804173  0.48656216  1
  O  O400  1  0.88067048  0.49410666  0.99414500  1
  O  O401  1  0.86918506  0.98484282  0.50870274  1
  O  O402  1  0.88137272  0.99318123  0.99707345  1
  O  O403  1  0.11101388  -0.00284409  0.01030467  1
  O  O404  1  0.13580479  0.01044408  0.51362039  1
  O  O405  1  0.11936240  0.50058897  0.00688607  1
  O  O406  1  0.12299765  0.51666035  0.49118263  1
  O  O407  1  0.62598286  0.00482404  0.00678835  1
  O  O408  1  0.61860764  0.00103493  0.50877474  1
  O  O409  1  0.61650213  0.50354890  0.00093946  1
  O  O410  1  0.61409625  0.50184609  0.50085769  1
  O  O411  1  0.36816163  0.36505325  0.11870816  1
  O  O412  1  0.37436213  0.36372170  0.61472219  1
  O  O413  1  0.36188554  0.88874714  0.11188658  1
  O  O414  1  0.35760350  0.91451668  0.60905853  1
  O  O415  1  0.86911508  0.36750859  0.11922848  1
  O  O416  1  0.86953022  0.36329859  0.62762660  1
  O  O417  1  0.87608575  0.87142225  0.11681566  1
  O  O418  1  0.87811293  0.85853351  0.62717445  1
  O  O419  1  0.13039240  0.12398655  0.38696506  1
  O  O420  1  0.13045927  0.13459598  0.86770515  1
  O  O421  1  0.13156724  0.63148013  0.37857723  1
  O  O422  1  0.13956227  0.62050870  0.87929831  1
  O  O423  1  0.64034797  0.14061004  0.36345471  1
  O  O424  1  0.63017867  0.12882189  0.88093824  1
  O  O425  1  0.62632644  0.62999358  0.38012670  1
  O  O426  1  0.63392849  0.63736796  0.87636549  1
