# generated using pymatgen
data_V85Zn86O256
_symmetry_space_group_name_H-M   'P 1'
_cell_length_a   16.95068488
_cell_length_b   16.97743410
_cell_length_c   16.96702467
_cell_angle_alpha   90.08981691
_cell_angle_beta   89.96481947
_cell_angle_gamma   89.96995799
_symmetry_Int_Tables_number   1
_chemical_formula_structural   V85Zn86O256
_chemical_formula_sum   'V85 Zn86 O256'
_cell_volume   4882.74809856
_cell_formula_units_Z   1
loop_
 _symmetry_equiv_pos_site_id
 _symmetry_equiv_pos_as_xyz
  1  'x, y, z'
loop_
 _atom_site_type_symbol
 _atom_site_label
 _atom_site_symmetry_multiplicity
 _atom_site_fract_x
 _atom_site_fract_y
 _atom_site_fract_z
 _atom_site_occupancy
  V  V0  1  0.37678911  0.87004899  -0.00215388  1
  V  V1  1  0.87241367  0.00129688  0.87608945  1
  V  V2  1  0.87331279  0.49833046  0.37516125  1
  V  V3  1  0.63970568  0.62691550  0.49590227  1
  V  V4  1  0.24600443  0.25195091  0.00658083  1
  V  V5  1  0.00645665  0.74922847  0.25281707  1
  V  V6  1  0.86904227  0.86936545  0.50049262  1
  V  V7  1  0.87415560  0.74709499  0.62549155  1
  V  V8  1  0.00252296  0.00011002  0.50248198  1
  V  V9  1  0.74331204  0.24951190  0.49450923  1
  V  V10  1  0.62477000  0.50074967  0.62349288  1
  V  V11  1  0.50348668  0.49631889  0.00083533  1
  V  V12  1  0.62483577  0.12693472  -0.00485556  1
  V  V13  1  0.50980747  0.36950914  0.37596581  1
  V  V14  1  0.48697139  -0.00425638  0.49605178  1
  V  V15  1  0.00167592  0.49755047  -0.00262105  1
  V  V16  1  0.75262384  0.50560592  0.75606399  1
  V  V17  1  0.12801677  0.62539796  0.00058307  1
  V  V18  1  0.88167407  0.37447137  0.49501497  1
  V  V19  1  0.00016286  0.12367338  0.62614131  1
  V  V20  1  0.87326195  0.12612284  0.75043292  1
  V  V21  1  0.25041743  0.49914406  0.74404470  1
  V  V22  1  0.86800231  0.62607450  0.25719793  1
  V  V23  1  0.87000544  0.87478109  0.00518041  1
  V  V24  1  0.12017076  0.37669435  0.25787579  1
  V  V25  1  0.25109365  0.49931900  0.24890558  1
  V  V26  1  0.37388106  -0.00148352  0.86663688  1
  V  V27  1  0.87030071  -0.00023122  0.37556462  1
  V  V28  1  0.37513296  0.75817578  0.61808767  1
  V  V29  1  0.62406508  -0.00345028  0.62545086  1
  V  V30  1  -0.00535403  0.25723228  0.25904439  1
  V  V31  1  0.63218154  0.00280668  0.12635363  1
  V  V32  1  0.12728497  0.88460548  0.24821691  1
  V  V33  1  0.61445000  0.36116582  0.75997071  1
  V  V34  1  0.50622567  0.75739302  0.74746805  1
  V  V35  1  0.12305586  0.63011983  0.49782654  1
  V  V36  1  0.00000318  -0.00022332  0.00448627  1
  V  V37  1  0.62537968  0.12424007  0.49060931  1
  V  V38  1  0.24483922  0.87711241  0.64091685  1
  V  V39  1  0.62875231  0.36498374  0.23980695  1
  V  V40  1  0.12304641  0.25370355  0.87376045  1
  V  V41  1  0.49217879  0.86876725  0.37551413  1
  V  V42  1  0.50208294  0.62645714  0.12558596  1
  V  V43  1  0.00787169  0.75329379  0.74936527  1
  V  V44  1  0.63868779  0.74863338  0.38290394  1
  V  V45  1  0.37126375  0.37737395  0.50400390  1
  V  V46  1  0.12101745  0.12532340  0.00198402  1
  V  V47  1  0.25017336  0.75762020  0.49931644  1
  V  V48  1  0.12523359  0.49894790  0.62259177  1
  V  V49  1  0.38252537  0.23530269  0.13188493  1
  V  V50  1  0.74538356  -0.00427470  0.75166590  1
  V  V51  1  0.86894336  0.75351192  0.12646810  1
  V  V52  1  0.12644656  -0.00442880  0.64203530  1
  V  V53  1  0.37759709  0.25273901  0.62790625  1
  V  V54  1  0.37732978  0.62616433  0.74778963  1
  V  V55  1  0.39243465  0.35594638  -0.01568817  1
  V  V56  1  0.87506966  0.24932789  0.62618673  1
  V  V57  1  0.24966269  0.62735946  0.87714007  1
  V  V58  1  0.00146066  0.62524270  0.12624701  1
  V  V59  1  0.12669433  0.37585845  0.74589864  1
  V  V60  1  0.00354472  0.87036189  0.37614371  1
  V  V61  1  0.24910177  0.12210375  0.86653023  1
  V  V62  1  0.50130319  0.50247552  0.49809628  1
  V  V63  1  0.86457715  0.25319944  0.12628311  1
  V  V64  1  0.74744825  0.87123871  0.62596829  1
  V  V65  1  0.74804420  0.37445490  0.62511152  1
  V  V66  1  0.50040182  0.62729880  0.62068969  1
  V  V67  1  0.50269219  0.00085095  0.00211283  1
  V  V68  1  0.62828207  0.61983516  -0.00089369  1
  V  V69  1  0.86881017  0.12514234  0.24966727  1
  V  V70  1  0.38214409  0.49641370  0.87306279  1
  V  V71  1  0.24941387  0.25269086  0.50150251  1
  V  V72  1  0.38095643  0.63023958  0.24796837  1
  V  V73  1  0.75426632  0.74186216  -0.00894272  1
  V  V74  1  0.62864005  0.75032426  0.87000023  1
  V  V75  1  0.86846291  0.37722003  0.00545818  1
  V  V76  1  0.37756159  0.49939078  0.37224878  1
  V  V77  1  0.74252325  0.49980471  0.23905959  1
  V  V78  1  0.38351564  0.13055567  0.74966924  1
  V  V79  1  0.12780588  0.49804378  0.12575750  1
  V  V80  1  0.26193308  0.11649042  0.37198275  1
  V  V81  1  0.74593193  0.25159449  -0.00446966  1
  V  V82  1  0.24677156  0.62941883  0.37429026  1
  V  V83  1  0.00666537  0.87481248  0.87197772  1
  V  V84  1  0.62900320  0.86046956  0.24121422  1
  Zn  Zn85  1  0.24851866  0.75311094  0.00575421  1
  Zn  Zn86  1  0.25929335  0.37506883  0.12715247  1
  Zn  Zn87  1  0.75719818  -0.00928654  0.23640409  1
  Zn  Zn88  1  0.12207889  0.24969729  0.37858728  1
  Zn  Zn89  1  0.30960416  0.05234057  0.21282297  1
  Zn  Zn90  1  0.25736303  0.88038371  0.12903870  1
  Zn  Zn91  1  0.87298032  0.63149121  0.76433836  1
  Zn  Zn92  1  0.50751359  0.87744722  0.86837813  1
  Zn  Zn93  1  0.13540301  0.00604638  0.12974966  1
  Zn  Zn94  1  -0.00412948  0.37654398  0.87396676  1
  Zn  Zn95  1  -0.00210660  0.25228131  0.74984635  1
  Zn  Zn96  1  0.12936021  0.75570607  0.87330721  1
  Zn  Zn97  1  0.50291907  0.12735035  0.62638508  1
  Zn  Zn98  1  -0.00115628  0.12702776  0.12962735  1
  Zn  Zn99  1  0.00330981  0.49719104  0.49279532  1
  Zn  Zn100  1  0.12828113  0.12579281  0.49990511  1
  Zn  Zn101  1  0.86839773  0.50666888  0.88241073  1
  Zn  Zn102  1  0.37692369  0.75095408  0.12650216  1
  Zn  Zn103  1  0.74879931  0.12662127  0.37512541  1
  Zn  Zn104  1  0.74459149  0.13239285  0.86954100  1
  Zn  Zn105  1  -0.00201149  0.62381426  0.62621460  1
  Zn  Zn106  1  0.49267849  0.24396957  0.25961713  1
  Zn  Zn107  1  0.18324551  0.19233420  0.19222967  1
  Zn  Zn108  1  0.18873205  0.18584579  0.68286645  1
  Zn  Zn109  1  0.19215840  0.69109975  0.18498826  1
  Zn  Zn110  1  0.18835861  0.68640720  0.68479133  1
  Zn  Zn111  1  0.63911340  0.14776937  0.23350760  1
  Zn  Zn112  1  0.68599770  0.18433792  0.68315805  1
  Zn  Zn113  1  0.68699190  0.68453420  0.18314988  1
  Zn  Zn114  1  0.68798742  0.68634151  0.68412901  1
  Zn  Zn115  1  0.31063087  0.31213074  0.31630421  1
  Zn  Zn116  1  0.30868900  0.31110105  0.80989893  1
  Zn  Zn117  1  0.30982845  0.81236222  0.31230387  1
  Zn  Zn118  1  0.31739401  0.81055408  0.81195863  1
  Zn  Zn119  1  0.80686047  0.31637155  0.31257472  1
  Zn  Zn120  1  0.81046963  0.31892771  0.81541682  1
  Zn  Zn121  1  0.81160245  0.81329527  0.31263431  1
  Zn  Zn122  1  0.81676969  0.81430566  0.81303901  1
  Zn  Zn123  1  0.18970240  0.44027519  0.43562590  1
  Zn  Zn124  1  0.19363216  0.43721903  0.93545161  1
  Zn  Zn125  1  0.18788615  0.93885391  0.43673475  1
  Zn  Zn126  1  0.19050476  0.93902487  0.93785436  1
  Zn  Zn127  1  0.69229054  0.44189388  0.43184451  1
  Zn  Zn128  1  0.68388982  0.43199054  0.93683610  1
  Zn  Zn129  1  0.68176467  0.93601750  0.43733205  1
  Zn  Zn130  1  0.68842852  0.93329156  0.93820230  1
  Zn  Zn131  1  0.31127597  0.06024199  0.04986395  1
  Zn  Zn132  1  0.30691779  0.06432660  0.56632007  1
  Zn  Zn133  1  0.31865852  0.55702663  0.06122657  1
  Zn  Zn134  1  0.31292578  0.56630780  0.56054454  1
  Zn  Zn135  1  0.80800886  0.06575148  0.06263266  1
  Zn  Zn136  1  0.81127320  0.06142266  0.56361464  1
  Zn  Zn137  1  0.81429754  0.56478702  0.06615563  1
  Zn  Zn138  1  0.81483136  0.55893567  0.56480836  1
  Zn  Zn139  1  0.44164391  0.43156461  0.18010151  1
  Zn  Zn140  1  0.43920262  0.43756671  0.68610562  1
  Zn  Zn141  1  0.45001713  0.92851539  0.18514395  1
  Zn  Zn142  1  0.43467718  0.93838281  0.68346698  1
  Zn  Zn143  1  0.93590085  0.43949381  0.18726938  1
  Zn  Zn144  1  0.93902546  0.43729609  0.68507058  1
  Zn  Zn145  1  0.94154724  0.93763996  0.18815599  1
  Zn  Zn146  1  0.93543960  0.93679587  0.68912826  1
  Zn  Zn147  1  0.06238052  0.06894337  0.31886936  1
  Zn  Zn148  1  0.05729768  0.06473640  0.81599748  1
  Zn  Zn149  1  0.05960551  0.56113479  0.31389785  1
  Zn  Zn150  1  0.06071191  0.56819736  0.81111877  1
  Zn  Zn151  1  0.46396936  0.06370329  0.30811263  1
  Zn  Zn152  1  0.56227391  0.06301005  0.81359593  1
  Zn  Zn153  1  0.56407656  0.56369663  0.31330916  1
  Zn  Zn154  1  0.56700704  0.56404796  0.81169420  1
  Zn  Zn155  1  0.43682657  0.18637816  0.44291733  1
  Zn  Zn156  1  0.43611807  0.18194477  0.94319055  1
  Zn  Zn157  1  0.44020872  0.68924638  0.43396044  1
  Zn  Zn158  1  0.44291946  0.68509906  0.93448969  1
  Zn  Zn159  1  0.93337854  0.18683234  0.43945830  1
  Zn  Zn160  1  0.93420186  0.18915993  0.93674338  1
  Zn  Zn161  1  0.93638163  0.68613965  0.43812103  1
  Zn  Zn162  1  0.94108190  0.68549531  0.93481553  1
  Zn  Zn163  1  0.05599316  0.31497454  0.07254725  1
  Zn  Zn164  1  0.06320702  0.31254280  0.56527968  1
  Zn  Zn165  1  0.06287821  0.81162521  0.06434186  1
  Zn  Zn166  1  0.06365487  0.81377204  0.56442664  1
  Zn  Zn167  1  0.56405587  0.30798208  0.06678492  1
  Zn  Zn168  1  0.56125192  0.31239798  0.56400909  1
  Zn  Zn169  1  0.56110353  0.80761214  0.05652053  1
  Zn  Zn170  1  0.56342421  0.81319540  0.55769663  1
  O  O171  1  0.12185461  0.12668754  0.11310949  1
  O  O172  1  0.11994469  0.11423673  0.62056800  1
  O  O173  1  0.12175038  0.61887643  0.12161684  1
  O  O174  1  0.12530945  0.61607218  0.61516863  1
  O  O175  1  0.63000025  0.10672058  0.11543715  1
  O  O176  1  0.62250779  0.11214309  0.61749558  1
  O  O177  1  0.61728567  0.62900277  0.11040060  1
  O  O178  1  0.62004422  0.62182705  0.61415388  1
  O  O179  1  0.38359205  0.38203466  0.38329474  1
  O  O180  1  0.35956535  0.39392533  0.87289086  1
  O  O181  1  0.39322153  0.86590759  0.36757210  1
  O  O182  1  0.37611085  0.88505018  0.87853694  1
  O  O183  1  0.86851792  0.38196417  0.38664042  1
  O  O184  1  0.87767728  0.38257376  0.88886733  1
  O  O185  1  0.88207809  0.88014457  0.38122481  1
  O  O186  1  0.88458036  0.88077783  0.88612992  1
  O  O187  1  0.24986713  0.01727585  0.38429729  1
  O  O188  1  0.26141902  0.01252494  0.88305548  1
  O  O189  1  0.25790978  0.51080813  0.37002462  1
  O  O190  1  0.25604638  0.51150300  0.86522416  1
  O  O191  1  0.76518982  -0.00366435  0.37854777  1
  O  O192  1  0.75427322  -0.00305209  0.86558470  1
  O  O193  1  0.76459763  0.50088975  0.36300247  1
  O  O194  1  0.74739522  0.49472064  0.85804586  1
  O  O195  1  0.24599202  0.49679160  0.12999061  1
  O  O196  1  0.24208180  0.50851014  0.63555294  1
  O  O197  1  0.25145463  0.99805620  0.12661739  1
  O  O198  1  0.23836781  0.98854687  0.61822631  1
  O  O199  1  0.75496667  0.49945051  0.13975166  1
  O  O200  1  0.74556000  0.48994847  0.63061231  1
  O  O201  1  0.73790600  0.99100171  0.11554755  1
  O  O202  1  0.74462913  0.99211281  0.63222517  1
  O  O203  1  0.00638847  0.36852970  0.24529454  1
  O  O204  1  0.01231401  0.37472996  0.75346299  1
  O  O205  1  0.00435243  0.86789358  0.25737163  1
  O  O206  1  -0.00814443  0.86785504  0.76220297  1
  O  O207  1  0.51149424  0.37149910  0.25660087  1
  O  O208  1  0.51615439  0.37964255  0.74337049  1
  O  O209  1  0.52108729  0.87938734  0.26708761  1
  O  O210  1  0.49689643  0.86128960  0.74680381  1
  O  O211  1  0.52928536  0.13881542  0.26036376  1
  O  O212  1  0.48802902  0.12623538  0.75068098  1
  O  O213  1  0.49138835  0.61513934  0.23968927  1
  O  O214  1  0.49670032  0.63279070  0.74025205  1
  O  O215  1  0.98513091  0.13313059  0.25134733  1
  O  O216  1  0.99144599  0.12756341  0.74410094  1
  O  O217  1  0.99292674  0.63305327  0.24686596  1
  O  O218  1  0.99459933  0.63636089  0.74632441  1
  O  O219  1  0.35780580  0.23962495  0.01721723  1
  O  O220  1  0.36819811  0.25909530  0.50660311  1
  O  O221  1  0.37621621  0.76143251  -0.00781201  1
  O  O222  1  0.36553884  0.74189179  0.51082794  1
  O  O223  1  0.87052384  0.25724390  0.00667499  1
  O  O224  1  0.86657497  0.25638328  0.50647887  1
  O  O225  1  0.87293367  0.75488150  0.00684324  1
  O  O226  1  0.88197425  0.76150052  0.50907744  1
  O  O227  1  0.13593042  0.25302648  0.50075648  1
  O  O228  1  0.12704502  0.24560519  0.99452430  1
  O  O229  1  0.13406819  0.73826232  0.50702514  1
  O  O230  1  0.12713467  0.74131035  0.99763481  1
  O  O231  1  0.63369395  0.23864412  0.51071423  1
  O  O232  1  0.63386724  0.23890218  1.00955476  1
  O  O233  1  0.62725106  0.74296697  0.49116298  1
  O  O234  1  0.63631016  0.74217780  0.99258000  1
  O  O235  1  0.48422519  0.24162064  0.12149854  1
  O  O236  1  0.48285433  0.24473427  0.61482500  1
  O  O237  1  0.49555713  0.73247549  0.11611980  1
  O  O238  1  0.49412979  0.74835268  0.62680098  1
  O  O239  1  0.98682015  0.24671677  0.13722838  1
  O  O240  1  0.99360149  0.24231943  0.62706635  1
  O  O241  1  0.99050178  0.74532647  0.13363000  1
  O  O242  1  0.99113444  0.75372667  0.63313232  1
  O  O243  1  -0.00394003  0.24745971  0.36319941  1
  O  O244  1  0.01274500  0.25090103  0.87327610  1
  O  O245  1  -0.00832166  0.76039025  0.36552419  1
  O  O246  1  0.00182660  0.75909370  0.86748180  1
  O  O247  1  0.49284680  0.26631243  0.37997518  1
  O  O248  1  0.44745359  0.29280747  0.92237112  1
  O  O249  1  0.51179996  0.76385918  0.38359639  1
  O  O250  1  0.50759709  0.75024033  0.86262846  1
  O  O251  1  0.25240452  0.13535326  0.49103166  1
  O  O252  1  0.23824617  0.13308147  0.98991752  1
  O  O253  1  0.24342358  0.63178202  0.49292050  1
  O  O254  1  0.24833433  0.62224041  0.99092486  1
  O  O255  1  0.74468292  0.13293446  0.50255932  1
  O  O256  1  0.74301859  0.13291746  0.99538461  1
  O  O257  1  0.73847889  0.61905540  0.50222164  1
  O  O258  1  0.74340686  0.63243343  1.00467524  1
  O  O259  1  0.26336023  0.36077409  -0.00622044  1
  O  O260  1  0.26313195  0.36906016  0.49160327  1
  O  O261  1  0.26391822  0.87575793  -0.00051989  1
  O  O262  1  0.24346206  0.85999679  0.49942364  1
  O  O263  1  0.75889888  0.36885979  -0.00172394  1
  O  O264  1  0.75400092  0.36958384  0.50822948  1
  O  O265  1  0.76447961  0.86258550  -0.00448305  1
  O  O266  1  0.76199077  0.88251831  0.51013585  1
  O  O267  1  0.12897975  0.49531049  0.24582314  1
  O  O268  1  0.13102090  0.49688612  0.74341240  1
  O  O269  1  0.11137016  0.98833566  0.24838433  1
  O  O270  1  0.11995451  1.00366244  0.74118920  1
  O  O271  1  0.63939399  0.49982713  0.25347241  1
  O  O272  1  0.63534053  0.49515663  0.74291976  1
  O  O273  1  0.62990141  0.99150177  0.22940489  1
  O  O274  1  0.63331001  1.00495239  0.73945548  1
  O  O275  1  0.39350827  -0.00408968  0.25331362  1
  O  O276  1  0.37997551  0.00919228  0.75998064  1
  O  O277  1  0.37025961  0.50448620  0.25287149  1
  O  O278  1  0.36924754  0.50530396  0.75222371  1
  O  O279  1  0.87568495  0.00561126  0.25647385  1
  O  O280  1  0.86634861  0.00583217  0.75477389  1
  O  O281  1  0.86788448  0.50699948  0.25388452  1
  O  O282  1  0.86042741  0.49626808  0.74763763  1
  O  O283  1  0.12739941  0.37580460  0.36218850  1
  O  O284  1  0.12609131  0.36705963  0.86788075  1
  O  O285  1  0.11050371  0.88151675  0.36566937  1
  O  O286  1  0.11144991  0.87622989  0.88276115  1
  O  O287  1  0.61544196  0.38333100  0.36733338  1
  O  O288  1  0.62641598  0.37222865  0.85902457  1
  O  O289  1  0.62212682  0.86163844  0.37201439  1
  O  O290  1  0.62484660  0.85655751  0.87985422  1
  O  O291  1  0.36091448  0.13382294  0.12863178  1
  O  O292  1  0.37493242  0.13092657  0.63605394  1
  O  O293  1  0.38103305  0.62470429  0.13213311  1
  O  O294  1  0.37970132  0.63515228  0.62854211  1
  O  O295  1  0.87391423  0.13136179  0.13507448  1
  O  O296  1  0.87943322  0.12881310  0.63080870  1
  O  O297  1  0.88207262  0.63404108  0.13536881  1
  O  O298  1  0.87546876  0.63860415  0.62209486  1
  O  O299  1  0.24855811  0.25331593  0.11753507  1
  O  O300  1  0.26126518  0.24455891  0.61235148  1
  O  O301  1  0.25788000  0.75990506  0.12318495  1
  O  O302  1  0.25584386  0.75705609  0.61915546  1
  O  O303  1  0.76353892  0.24847168  0.11245476  1
  O  O304  1  0.75547691  0.25818241  0.61726874  1
  O  O305  1  0.76377391  0.74533301  0.11447492  1
  O  O306  1  0.75998946  0.76160869  0.63347277  1
  O  O307  1  0.25062204  0.24197497  0.38675380  1
  O  O308  1  0.24090300  0.24230036  0.88310286  1
  O  O309  1  0.25665988  0.73654189  0.38393083  1
  O  O310  1  0.25060609  0.73726922  0.87387457  1
  O  O311  1  0.75383781  0.24917105  0.39095408  1
  O  O312  1  0.75528299  0.24992354  0.89020996  1
  O  O313  1  0.73821689  0.75174351  0.37680339  1
  O  O314  1  0.74688706  0.75086839  0.88249997  1
  O  O315  1  0.00642655  0.11759169  -0.00235288  1
  O  O316  1  -0.00384822  0.11416970  0.50711326  1
  O  O317  1  0.00735785  0.61688463  0.00682889  1
  O  O318  1  0.01163483  0.62367896  0.50058381  1
  O  O319  1  0.50857617  0.11149129  -0.00482192  1
  O  O320  1  0.50655166  0.11106069  0.50071574  1
  O  O321  1  0.50669013  0.61652938  0.00479582  1
  O  O322  1  0.50674363  0.62022400  0.50332042  1
  O  O323  1  0.49412720  0.38281547  0.49454575  1
  O  O324  1  0.50363921  0.39113812  1.01207274  1
  O  O325  1  0.50438262  0.88611360  0.49049234  1
  O  O326  1  0.49382607  0.88172134  0.99225168  1
  O  O327  1  0.98548422  0.37559270  0.50680495  1
  O  O328  1  0.99302507  0.38371683  1.00083838  1
  O  O329  1  0.99212254  0.88027392  0.49378805  1
  O  O330  1  0.99224615  0.88188522  0.99477048  1
  O  O331  1  0.49561821  0.49339683  0.37977899  1
  O  O332  1  0.48956334  0.50882514  0.88235186  1
  O  O333  1  0.50176252  0.98830717  0.39075383  1
  O  O334  1  0.49257434  0.99654540  0.88078171  1
  O  O335  1  0.98207953  0.50361258  0.37510869  1
  O  O336  1  1.00432880  0.49997156  0.88998114  1
  O  O337  1  0.98889575  0.99270265  0.38322810  1
  O  O338  1  0.99382133  0.99441264  0.88528830  1
  O  O339  1  0.00093775  0.00363181  0.11213729  1
  O  O340  1  0.00501920  0.00147535  0.61990978  1
  O  O341  1  0.00634193  0.50559731  0.11717308  1
  O  O342  1  0.01256967  0.50308060  0.62200177  1
  O  O343  1  0.51820922  -0.01184627  0.10856954  1
  O  O344  1  0.50922925  -0.00429740  0.61526467  1
  O  O345  1  0.49294316  0.51294951  0.11174474  1
  O  O346  1  0.50487219  0.50809494  0.61758661  1
  O  O347  1  0.24150519  0.38205339  0.24986489  1
  O  O348  1  0.23879430  0.38885306  0.75466001  1
  O  O349  1  0.22980355  0.87272585  0.25726604  1
  O  O350  1  0.24923628  0.86981583  0.74024320  1
  O  O351  1  0.73907465  0.38786280  0.25343996  1
  O  O352  1  0.74201299  0.38190864  0.73977106  1
  O  O353  1  0.73429461  0.87749110  0.25542548  1
  O  O354  1  0.75769019  0.88669626  0.74008653  1
  O  O355  1  0.24304451  0.12875888  0.26662336  1
  O  O356  1  0.25781005  0.13015128  0.76207697  1
  O  O357  1  0.25589958  0.61995900  0.25720398  1
  O  O358  1  0.25531443  0.61858319  0.75635788  1
  O  O359  1  0.75667812  0.11782272  0.25443679  1
  O  O360  1  0.75430098  0.11394458  0.74960535  1
  O  O361  1  0.75905084  0.61572458  0.24450636  1
  O  O362  1  0.75186255  0.60853404  0.74129157  1
  O  O363  1  0.36730214  0.12666578  0.37181704  1
  O  O364  1  0.36862520  0.12039258  0.86931546  1
  O  O365  1  0.37081530  0.61901410  0.36785591  1
  O  O366  1  0.36866197  0.61674193  0.86917174  1
  O  O367  1  0.87278643  0.11571305  0.36788017  1
  O  O368  1  0.87223320  0.11825946  0.86901486  1
  O  O369  1  0.87642363  0.62143046  0.36311551  1
  O  O370  1  0.87390517  0.61910504  0.87701967  1
  O  O371  1  0.12837821  0.38145615  0.13607843  1
  O  O372  1  0.12336471  0.38583588  0.63450820  1
  O  O373  1  0.12265240  0.87944178  0.13901133  1
  O  O374  1  0.13225165  0.88371795  0.62275286  1
  O  O375  1  0.61796906  0.37755613  0.14150934  1
  O  O376  1  0.63361209  0.38096829  0.62679814  1
  O  O377  1  0.61987063  0.86921791  0.13751435  1
  O  O378  1  0.63718757  0.88308593  0.61626700  1
  O  O379  1  0.11162762  0.25998045  0.25220324  1
  O  O380  1  0.12898749  0.25883278  0.75608714  1
  O  O381  1  0.11106760  0.75927372  0.24476021  1
  O  O382  1  0.11259505  0.74575552  0.75019123  1
  O  O383  1  0.63629667  0.26564506  0.25000155  1
  O  O384  1  0.62810828  0.26223516  0.74162484  1
  O  O385  1  0.63034353  0.75574887  0.25910623  1
  O  O386  1  0.61694660  0.74081006  0.75625774  1
  O  O387  1  0.37308624  0.25820763  0.23425297  1
  O  O388  1  0.36790444  0.24420225  0.74018892  1
  O  O389  1  0.37159036  0.73324699  0.25106367  1
  O  O390  1  0.38450170  0.74457470  0.73959922  1
  O  O391  1  0.87414896  0.24590312  0.24602690  1
  O  O392  1  0.87284566  0.24630723  0.74445718  1
  O  O393  1  0.87970240  0.74576741  0.24451625  1
  O  O394  1  0.88333553  0.75086532  0.74088040  1
  O  O395  1  0.37928763  0.49501095  0.49541805  1
  O  O396  1  0.38417578  0.48670266  0.99008772  1
  O  O397  1  0.38927619  1.00277834  0.50954598  1
  O  O398  1  0.38524357  0.99445871  0.98914165  1
  O  O399  1  0.87462503  0.49156312  0.49354837  1
  O  O400  1  0.88394954  0.49316959  1.00629116  1
  O  O401  1  0.88376881  0.99139079  0.49662312  1
  O  O402  1  0.88052537  0.99390707  0.99820480  1
  O  O403  1  0.11686142  0.00998527  -0.00074815  1
  O  O404  1  0.10910642  -0.00236281  0.50399136  1
  O  O405  1  0.12117764  0.50248150  0.00530085  1
  O  O406  1  0.12719471  0.50652833  0.50750293  1
  O  O407  1  0.62178989  0.00298115  0.00267897  1
  O  O408  1  0.62243001  0.00588328  0.50970926  1
  O  O409  1  0.61749366  0.50988446  -0.01102546  1
  O  O410  1  0.62143088  0.50749782  0.50242345  1
  O  O411  1  0.37798112  0.35914148  0.10675599  1
  O  O412  1  0.37932783  0.37003903  0.61260487  1
  O  O413  1  0.38114475  0.87196692  0.11110204  1
  O  O414  1  0.36426331  0.86455730  0.62690805  1
  O  O415  1  0.87980498  0.36675661  0.11496176  1
  O  O416  1  0.86550936  0.37101796  0.61772164  1
  O  O417  1  0.88350898  0.86544200  0.11673577  1
  O  O418  1  0.86849411  0.86911420  0.61816362  1
  O  O419  1  0.13428345  0.13039813  0.38246471  1
  O  O420  1  0.12974303  0.13259935  0.88092083  1
  O  O421  1  0.13631592  0.61699070  0.38395482  1
  O  O422  1  0.13569501  0.62488244  0.88110851  1
  O  O423  1  0.63167749  0.11703555  0.39094002  1
  O  O424  1  0.62680146  0.12081444  0.88905541  1
  O  O425  1  0.61797356  0.64055639  0.38170825  1
  O  O426  1  0.62012540  0.63750256  0.88689066  1
