# generated using pymatgen
data_V85Zn86O256
_symmetry_space_group_name_H-M   'P 1'
_cell_length_a   16.97488201
_cell_length_b   16.96098318
_cell_length_c   16.98504932
_cell_angle_alpha   90.01382354
_cell_angle_beta   89.95684312
_cell_angle_gamma   89.89184174
_symmetry_Int_Tables_number   1
_chemical_formula_structural   V85Zn86O256
_chemical_formula_sum   'V85 Zn86 O256'
_cell_volume   4890.16699547
_cell_formula_units_Z   1
loop_
 _symmetry_equiv_pos_site_id
 _symmetry_equiv_pos_as_xyz
  1  'x, y, z'
loop_
 _atom_site_type_symbol
 _atom_site_label
 _atom_site_symmetry_multiplicity
 _atom_site_fract_x
 _atom_site_fract_y
 _atom_site_fract_z
 _atom_site_occupancy
  V  V0  1  0.87295126  0.87700405  0.50064203  1
  V  V1  1  0.87948115  0.62984740  0.23375457  1
  V  V2  1  0.87597401  0.00085529  0.87306141  1
  V  V3  1  0.26021704  0.00177416  0.25053637  1
  V  V4  1  0.24509903  0.48506609  0.24415349  1
  V  V5  1  0.73647109  -0.01067955  0.74972625  1
  V  V6  1  0.13224813  0.87823771  0.74894437  1
  V  V7  1  0.12989451  0.12693367  -0.00227093  1
  V  V8  1  0.74212353  0.38365226  0.62581683  1
  V  V9  1  0.24603511  0.75691099  0.49809120  1
  V  V10  1  0.13234668  -0.00158754  0.62813723  1
  V  V11  1  0.49615694  0.75360565  0.25322595  1
  V  V12  1  0.12035542  0.47818016  0.12724849  1
  V  V13  1  0.49925024  0.25098920  0.75730749  1
  V  V14  1  0.87304209  0.75671569  0.62414377  1
  V  V15  1  0.13355460  -0.00040874  0.12545936  1
  V  V16  1  0.63010969  0.37366495  0.25050900  1
  V  V17  1  0.62525137  0.11781166  0.00548823  1
  V  V18  1  0.00043182  0.75097158  0.74921306  1
  V  V19  1  0.36896131  0.12003666  0.75132119  1
  V  V20  1  0.74599245  -0.00157947  0.23986521  1
  V  V21  1  -0.00227421  0.75002324  0.23245308  1
  V  V22  1  0.50735277  0.11189621  0.62590996  1
  V  V23  1  0.61981033  0.62364144  0.51177194  1
  V  V24  1  0.36867623  0.62379945  0.25253171  1
  V  V25  1  0.62680649  0.49538550  0.12814009  1
  V  V26  1  0.88099422  0.86715631  0.00938515  1
  V  V27  1  0.50034547  -0.00838987  0.00025357  1
  V  V28  1  0.00207582  0.87558714  0.87464759  1
  V  V29  1  0.11985112  0.74612843  0.37855730  1
  V  V30  1  0.26227549  0.12236455  0.37682566  1
  V  V31  1  0.37553911  0.37495878  0.49938385  1
  V  V32  1  0.37574182  0.25693772  0.11894149  1
  V  V33  1  0.12791064  0.62871646  0.01174093  1
  V  V34  1  0.62141762  0.75163139  0.37316178  1
  V  V35  1  0.87318953  0.25208860  0.62558760  1
  V  V36  1  0.48547216  0.74817300  0.76916180  1
  V  V37  1  0.62435683  0.76366000  0.87957481  1
  V  V38  1  0.00250338  0.00216296  -0.00140122  1
  V  V39  1  0.12747263  0.87891503  0.24827914  1
  V  V40  1  0.49860426  0.48780187  -0.00382256  1
  V  V41  1  0.49915372  0.37602281  0.37830207  1
  V  V42  1  0.74998921  0.25358529  0.00728278  1
  V  V43  1  0.37485250  0.24687834  0.62581006  1
  V  V44  1  0.24648246  0.24939755  0.49485255  1
  V  V45  1  -0.00073639  0.00091106  0.49857384  1
  V  V46  1  0.74728733  0.12824664  0.87436867  1
  V  V47  1  0.75049223  0.75332053  0.49684842  1
  V  V48  1  -0.00013424  0.12728294  0.62387832  1
  V  V49  1  0.62285563  0.87582370  0.24105289  1
  V  V50  1  0.00774612  0.36619348  0.36987098  1
  V  V51  1  -0.00045964  0.13089715  0.12600074  1
  V  V52  1  0.86955829  0.62630851  0.75092498  1
  V  V53  1  0.62572697  0.62511268  0.00014779  1
  V  V54  1  0.13155339  0.74472004  0.87614267  1
  V  V55  1  0.61822202  0.38339325  0.75396868  1
  V  V56  1  0.87869868  0.49699617  0.87089105  1
  V  V57  1  0.37247602  -0.00903318  0.87125485  1
  V  V58  1  0.87644030  0.00062815  0.37336741  1
  V  V59  1  0.87574837  0.13024433  0.24730666  1
  V  V60  1  0.00260788  0.50615222  0.49621645  1
  V  V61  1  0.87583844  0.50425888  0.37230021  1
  V  V62  1  0.74730501  0.24927412  0.50148260  1
  V  V63  1  0.36442610  0.86879232  0.01051943  1
  V  V64  1  0.00075153  0.49878107  -0.00265477  1
  V  V65  1  0.12280497  0.50523325  0.61902447  1
  V  V66  1  0.11972239  0.37696605  0.75169838  1
  V  V67  1  0.25141146  0.50928096  0.75150859  1
  V  V68  1  0.75108361  0.50041409  0.24750121  1
  V  V69  1  0.49822058  0.11878823  0.12676163  1
  V  V70  1  -0.00290398  0.25437068  0.75164780  1
  V  V71  1  0.49681792  0.62462484  0.12797459  1
  V  V72  1  0.87117863  0.37613098  0.00072740  1
  V  V73  1  0.74922088  0.12461270  0.37522633  1
  V  V74  1  0.87234310  0.37729248  0.49955071  1
  V  V75  1  0.12658932  0.12674069  0.49671218  1
  V  V76  1  0.12567762  0.25173648  0.87108850  1
  V  V77  1  0.24256366  0.62297766  0.37832303  1
  V  V78  1  0.62465997  0.24587588  0.37908187  1
  V  V79  1  -0.00016300  0.62574408  0.62104036  1
  V  V80  1  0.38132896  -0.01518751  0.38711404  1
  V  V81  1  0.49527884  0.24256995  0.25125810  1
  V  V82  1  0.24795737  0.37516080  0.62279104  1
  V  V83  1  -0.00110042  0.87767687  0.37413273  1
  V  V84  1  0.37596459  0.74467285  0.61400110  1
  Zn  Zn85  1  0.24276845  0.26206873  0.00887923  1
  Zn  Zn86  1  0.68076447  0.92780826  0.59112575  1
  Zn  Zn87  1  0.75323899  0.86780281  0.12525596  1
  Zn  Zn88  1  0.24948449  0.12391387  0.87046096  1
  Zn  Zn89  1  0.25878204  0.87946861  0.62310302  1
  Zn  Zn90  1  0.74769114  0.62630906  0.37251339  1
  Zn  Zn91  1  0.36714817  0.37474195  -0.01494986  1
  Zn  Zn92  1  0.37179625  0.49915657  0.37627627  1
  Zn  Zn93  1  0.75100871  0.62749944  0.87755057  1
  Zn  Zn94  1  0.62984929  0.11083956  0.50625353  1
  Zn  Zn95  1  0.51070299  -0.01849520  0.50276391  1
  Zn  Zn96  1  0.50386762  0.50082426  0.50614506  1
  Zn  Zn97  1  0.35243023  0.74617887  0.12224095  1
  Zn  Zn98  1  0.38594227  0.49906448  0.86194341  1
  Zn  Zn99  1  0.87177482  0.12607813  0.74877984  1
  Zn  Zn100  1  0.87440366  0.26109655  0.12985046  1
  Zn  Zn101  1  0.49242180  0.61463719  0.63822583  1
  Zn  Zn102  1  0.74123261  0.50716824  0.74716140  1
  Zn  Zn103  1  0.61813286  0.25659872  0.88071162  1
  Zn  Zn104  1  0.25883245  0.62841032  0.87899975  1
  Zn  Zn105  1  0.76060192  0.74306890  0.00834608  1
  Zn  Zn106  1  0.05271741  0.28805241  0.22416143  1
  Zn  Zn107  1  0.19965254  0.18610236  0.18906624  1
  Zn  Zn108  1  0.18700006  0.18817012  0.68418250  1
  Zn  Zn109  1  0.17857298  0.68028768  0.19380531  1
  Zn  Zn110  1  0.18677111  0.68955658  0.68437547  1
  Zn  Zn111  1  0.68544616  0.18583385  0.18801537  1
  Zn  Zn112  1  0.68582705  0.19090572  0.69164229  1
  Zn  Zn113  1  0.69015857  0.68826008  0.18483612  1
  Zn  Zn114  1  0.67047499  0.73325679  0.67654698  1
  Zn  Zn115  1  0.31493811  0.30747635  0.31200567  1
  Zn  Zn116  1  0.31150778  0.31831055  0.81318692  1
  Zn  Zn117  1  0.30626248  0.81071031  0.30584113  1
  Zn  Zn118  1  0.31257380  0.81444827  0.81479364  1
  Zn  Zn119  1  0.81400022  0.31387332  0.31609654  1
  Zn  Zn120  1  0.80772590  0.31645936  0.81379864  1
  Zn  Zn121  1  0.81293940  0.81165493  0.30845629  1
  Zn  Zn122  1  0.80949131  0.81054796  0.82076694  1
  Zn  Zn123  1  0.18617956  0.43578445  0.43350763  1
  Zn  Zn124  1  0.18897172  0.43463640  0.93663623  1
  Zn  Zn125  1  0.18605570  0.93963316  0.43483980  1
  Zn  Zn126  1  0.19012816  0.94012090  0.93132912  1
  Zn  Zn127  1  0.68729053  0.43955592  0.43665562  1
  Zn  Zn128  1  0.69048753  0.44065865  0.93303746  1
  Zn  Zn129  1  0.68562035  0.93580050  0.42242801  1
  Zn  Zn130  1  0.69408576  0.93962371  0.94156435  1
  Zn  Zn131  1  0.31690007  0.06621272  0.06133593  1
  Zn  Zn132  1  0.31747030  0.06113249  0.56262428  1
  Zn  Zn133  1  0.30940514  0.55547814  0.06269797  1
  Zn  Zn134  1  0.31408533  0.56361408  0.56096431  1
  Zn  Zn135  1  0.81453290  0.06247493  0.06071427  1
  Zn  Zn136  1  0.81208056  0.06353702  0.56620823  1
  Zn  Zn137  1  0.81104828  0.55788544  0.06153941  1
  Zn  Zn138  1  0.81038976  0.56814641  0.56164019  1
  Zn  Zn139  1  0.43808247  0.43598290  0.18943489  1
  Zn  Zn140  1  0.43654836  0.43705624  0.68306724  1
  Zn  Zn141  1  0.43604558  0.93617847  0.18539329  1
  Zn  Zn142  1  0.44379801  0.92398537  0.69115296  1
  Zn  Zn143  1  0.93701011  0.44049381  0.18428431  1
  Zn  Zn144  1  0.93470775  0.43871825  0.68452975  1
  Zn  Zn145  1  0.94412008  0.94424097  0.18851784  1
  Zn  Zn146  1  0.93940075  0.93974879  0.68838633  1
  Zn  Zn147  1  0.08480782  0.10357169  0.29439689  1
  Zn  Zn148  1  0.06147429  0.06551319  0.80929975  1
  Zn  Zn149  1  0.05944205  0.56233526  0.30540033  1
  Zn  Zn150  1  0.06074875  0.56493663  0.81228277  1
  Zn  Zn151  1  0.56190312  0.05885194  0.31433665  1
  Zn  Zn152  1  0.55831203  0.06119030  0.81839479  1
  Zn  Zn153  1  0.56003250  0.56572880  0.31872273  1
  Zn  Zn154  1  0.56161222  0.56929513  0.81432029  1
  Zn  Zn155  1  0.43988364  0.18307414  0.44244102  1
  Zn  Zn156  1  0.43615457  0.18095567  0.93883656  1
  Zn  Zn157  1  0.43801637  0.80800903  0.43639915  1
  Zn  Zn158  1  0.43469363  0.68033914  0.93971972  1
  Zn  Zn159  1  0.93453079  0.18744023  0.43797788  1
  Zn  Zn160  1  0.93690168  0.19003495  0.93609188  1
  Zn  Zn161  1  0.93616973  0.68873675  0.43176583  1
  Zn  Zn162  1  0.94733548  0.68431089  0.93835638  1
  Zn  Zn163  1  0.05459222  0.31404571  0.04925086  1
  Zn  Zn164  1  0.06030533  0.31589261  0.55967597  1
  Zn  Zn165  1  0.18288201  0.81198966  0.06372097  1
  Zn  Zn166  1  0.06165383  0.81459744  0.56197108  1
  Zn  Zn167  1  0.56558725  0.30698277  0.06592734  1
  Zn  Zn168  1  0.56191601  0.30772604  0.56804124  1
  Zn  Zn169  1  0.55886386  0.81067121  0.06435797  1
  Zn  Zn170  1  0.55701951  0.80696709  0.57108785  1
  O  O171  1  0.11843308  0.12062872  0.11475855  1
  O  O172  1  0.12142545  0.11766653  0.61657742  1
  O  O173  1  0.12390050  0.61490489  0.11303095  1
  O  O174  1  0.11593377  0.61307569  0.62854112  1
  O  O175  1  0.61509448  0.12950842  0.11370099  1
  O  O176  1  0.61019172  0.12677728  0.62916831  1
  O  O177  1  0.61610690  0.61444108  0.12291767  1
  O  O178  1  0.63144467  0.64046155  0.61198323  1
  O  O179  1  0.38538495  0.37291565  0.37951326  1
  O  O180  1  0.37708451  0.38596085  0.87196147  1
  O  O181  1  0.37171018  0.88026957  0.37301002  1
  O  O182  1  0.37036257  0.88681080  0.88596376  1
  O  O183  1  0.88004540  0.38760742  0.37903238  1
  O  O184  1  0.86867083  0.38737120  0.88341384  1
  O  O185  1  0.87933326  0.88094481  0.37988315  1
  O  O186  1  0.88185789  0.88450665  0.88124830  1
  O  O187  1  0.26253199  0.00231678  0.37194022  1
  O  O188  1  0.26700067  0.00640451  0.87918644  1
  O  O189  1  0.24368673  0.50606087  0.36230774  1
  O  O190  1  0.23686481  0.49980228  0.85391575  1
  O  O191  1  0.75813027  0.00569447  0.36391933  1
  O  O192  1  0.75750522  0.00921028  0.86931041  1
  O  O193  1  0.75950127  0.50063656  0.36455189  1
  O  O194  1  0.76228413  0.50768644  0.86884441  1
  O  O195  1  0.23648840  0.49630010  0.13602926  1
  O  O196  1  0.23886129  0.49653871  0.62894231  1
  O  O197  1  0.24175091  1.01507757  0.13530939  1
  O  O198  1  0.23682864  0.99740925  0.61725413  1
  O  O199  1  0.73791988  0.50158488  0.13633303  1
  O  O200  1  0.75740885  0.48812818  0.62732192  1
  O  O201  1  0.75436685  0.99862652  0.13687707  1
  O  O202  1  0.75252681  1.00188725  0.64333849  1
  O  O203  1  -0.00767727  0.37499510  0.26270567  1
  O  O204  1  0.00788971  0.36536529  0.74003803  1
  O  O205  1  0.00857824  0.87222553  0.25464188  1
  O  O206  1  0.00823426  0.87024253  0.75586741  1
  O  O207  1  0.50873200  0.36672060  0.26078539  1
  O  O208  1  0.51116570  0.36580235  0.74194922  1
  O  O209  1  0.50532438  0.86172021  0.24036383  1
  O  O210  1  0.50415459  0.84570846  0.74741851  1
  O  O211  1  0.51114479  0.13414182  0.24132606  1
  O  O212  1  0.49136564  0.12869168  0.74231983  1
  O  O213  1  0.48955981  0.62764935  0.24553353  1
  O  O214  1  0.51038545  0.64320896  0.74791822  1
  O  O215  1  0.98600753  0.11712016  0.23779281  1
  O  O216  1  0.99872191  0.13768992  0.74182726  1
  O  O217  1  0.99080961  0.63614275  0.25261341  1
  O  O218  1  0.99120977  0.63190818  0.74237819  1
  O  O219  1  0.38006846  0.25244188  0.01052490  1
  O  O220  1  0.36672519  0.25317013  0.50575488  1
  O  O221  1  0.38059106  0.76597669  0.00151191  1
  O  O222  1  0.36482563  0.75091000  0.50907999  1
  O  O223  1  0.86917808  0.25930499  -0.00090745  1
  O  O224  1  0.86723809  0.25707512  0.50536545  1
  O  O225  1  0.88290741  0.76474770  -0.00674756  1
  O  O226  1  0.87022337  0.75593952  0.50320833  1
  O  O227  1  0.13525163  0.23994940  0.50761930  1
  O  O228  1  0.12140970  0.24379444  0.98816015  1
  O  O229  1  0.12813710  0.75305669  0.48663942  1
  O  O230  1  0.12481748  0.73505646  0.99371565  1
  O  O231  1  0.63066969  0.24613704  0.49526644  1
  O  O232  1  0.63252357  0.24134909  0.99805244  1
  O  O233  1  0.63419751  0.74267211  0.48947758  1
  O  O234  1  0.61703807  0.73793044  0.99507786  1
  O  O235  1  0.49566918  0.24142523  0.13293786  1
  O  O236  1  0.49316547  0.23841751  0.63524762  1
  O  O237  1  0.49950161  0.73471584  0.13495060  1
  O  O238  1  0.48079515  0.73955000  0.63108635  1
  O  O239  1  0.99903211  0.24250700  0.12491845  1
  O  O240  1  0.99453496  0.24753438  0.63011263  1
  O  O241  1  1.00882090  0.75496930  0.13774564  1
  O  O242  1  0.99303099  0.74524681  0.62718018  1
  O  O243  1  -0.00749476  0.26698022  0.38105735  1
  O  O244  1  0.01100332  0.24359572  0.86194840  1
  O  O245  1  0.00680710  0.75854745  0.37332862  1
  O  O246  1  0.01154930  0.75535637  0.86883382  1
  O  O247  1  0.50330558  0.25286663  0.36962302  1
  O  O248  1  0.49901674  0.23993134  0.86130835  1
  O  O249  1  0.50539438  0.74745713  0.36111652  1
  O  O250  1  0.50884892  0.74514294  0.87521177  1
  O  O251  1  0.24619629  0.13147519  0.49797264  1
  O  O252  1  0.23729486  0.13319504  1.00064249  1
  O  O253  1  0.25283118  0.63254152  0.48336360  1
  O  O254  1  0.23039925  0.60826616  0.99626819  1
  O  O255  1  0.75019510  0.13069538  0.49426462  1
  O  O256  1  0.74380415  0.12846901  0.99375587  1
  O  O257  1  0.74710030  0.63778451  0.49436701  1
  O  O258  1  0.73700816  0.62243742  1.00344823  1
  O  O259  1  0.25320521  0.37360835  0.00242841  1
  O  O260  1  0.25260127  0.36636240  0.50126079  1
  O  O261  1  0.25825714  0.87581105  -0.00017309  1
  O  O262  1  0.24370764  0.86117224  0.49920970  1
  O  O263  1  0.75526672  0.36439995  -0.00598439  1
  O  O264  1  0.75200544  0.37088086  0.50616010  1
  O  O265  1  0.77238032  0.88078574  0.00257556  1
  O  O266  1  0.75512525  0.86594464  0.49661131  1
  O  O267  1  0.13090096  0.50049096  0.23586555  1
  O  O268  1  0.12457473  0.49320706  0.73875867  1
  O  O269  1  0.13215090  0.99860664  0.24340261  1
  O  O270  1  0.11741345  0.99201426  0.73945092  1
  O  O271  1  0.63095441  0.49495192  0.24827750  1
  O  O272  1  0.62127901  0.48750967  0.75358643  1
  O  O273  1  0.63405015  0.98784702  0.25879940  1
  O  O274  1  0.63747502  1.00093454  0.76068214  1
  O  O275  1  0.36490095  -0.00946013  0.25976939  1
  O  O276  1  0.38539542  0.00167448  0.76531997  1
  O  O277  1  0.36040673  0.50367826  0.24713445  1
  O  O278  1  0.35326850  0.49436624  0.74289177  1
  O  O279  1  0.86734558  0.00874411  0.25329170  1
  O  O280  1  0.87175659  0.00300190  0.76181642  1
  O  O281  1  0.86944929  0.50607634  0.25358434  1
  O  O282  1  0.87853019  0.50923154  0.75573516  1
  O  O283  1  0.10711172  0.37642496  0.37652295  1
  O  O284  1  0.12505057  0.36664187  0.85995483  1
  O  O285  1  0.11875562  0.87015411  0.36641355  1
  O  O286  1  0.12107649  0.86952670  0.86915674  1
  O  O287  1  0.61774935  0.36837098  0.36978193  1
  O  O288  1  0.63090857  0.37263480  0.85862558  1
  O  O289  1  0.62687875  0.85969223  0.35934894  1
  O  O290  1  0.62607473  0.86217866  0.89163069  1
  O  O291  1  0.39102551  0.13630063  0.11859680  1
  O  O292  1  0.38447978  0.12601375  0.63246783  1
  O  O293  1  0.37966390  0.62315958  0.13361501  1
  O  O294  1  0.36633748  0.64016442  0.62724857  1
  O  O295  1  0.88548291  0.12609013  0.12833559  1
  O  O296  1  0.88176739  0.13404998  0.62667260  1
  O  O297  1  0.87555610  0.61652831  0.13499550  1
  O  O298  1  0.88208573  0.63378253  0.63083918  1
  O  O299  1  0.27226284  0.24281312  0.12714133  1
  O  O300  1  0.25438890  0.25417300  0.61484128  1
  O  O301  1  0.24161498  0.74969991  0.13430789  1
  O  O302  1  0.25244694  0.74889794  0.61242648  1
  O  O303  1  0.75333959  0.24172192  0.11105166  1
  O  O304  1  0.75415104  0.25816670  0.62123889  1
  O  O305  1  0.75021632  0.75405079  0.11936516  1
  O  O306  1  0.76846195  0.74496660  0.61240525  1
  O  O307  1  0.25975930  0.23876794  0.38689848  1
  O  O308  1  0.23384517  0.24620017  0.86967929  1
  O  O309  1  0.23979089  0.74348845  0.37785167  1
  O  O310  1  0.23530519  0.74780108  0.86993990  1
  O  O311  1  0.74461651  0.24493925  0.38114475  1
  O  O312  1  0.75102636  0.23929496  0.88405227  1
  O  O313  1  0.74369041  0.74966447  0.38152280  1
  O  O314  1  0.73946196  0.74691114  0.88945393  1
  O  O315  1  0.00845313  0.12290127  0.00588459  1
  O  O316  1  0.00839864  0.12274821  0.50301830  1
  O  O317  1  0.01486807  0.60978215  -0.00418752  1
  O  O318  1  -0.00726299  0.61261171  0.50200049  1
  O  O319  1  0.50801512  0.11653466  0.00695913  1
  O  O320  1  0.50222596  0.11809329  0.51694656  1
  O  O321  1  0.50714205  0.61401274  0.01357881  1
  O  O322  1  0.51903946  0.62752116  0.50399654  1
  O  O323  1  0.49581321  0.36968376  0.49144562  1
  O  O324  1  0.50908024  0.38695398  1.00538352  1
  O  O325  1  0.50114467  0.87022280  0.50226372  1
  O  O326  1  0.48786136  0.88549438  1.01003941  1
  O  O327  1  0.99278990  0.38617621  0.49121503  1
  O  O328  1  0.98837312  0.38839139  0.99480982  1
  O  O329  1  0.99381744  0.88150928  0.49386911  1
  O  O330  1  0.99015168  0.88651484  0.99008429  1
  O  O331  1  0.49841606  0.48674305  0.37819586  1
  O  O332  1  0.50518649  0.50460143  0.89484146  1
  O  O333  1  0.48314506  1.00259170  0.37613275  1
  O  O334  1  0.48521292  1.00610464  0.88981110  1
  O  O335  1  0.99389208  0.49406954  0.37850867  1
  O  O336  1  0.98902196  0.50357517  0.88119807  1
  O  O337  1  0.99308320  0.99561113  0.38176075  1
  O  O338  1  0.99388849  0.99853847  0.87756248  1
  O  O339  1  0.01269502  0.01207436  0.11921101  1
  O  O340  1  0.00691215  0.00714411  0.61827240  1
  O  O341  1  0.01413042  0.49595001  0.11721529  1
  O  O342  1  0.00373340  0.50369772  0.61439258  1
  O  O343  1  0.49320920  0.00952695  0.11669952  1
  O  O344  1  0.49593048  0.00917634  0.63034972  1
  O  O345  1  0.50982299  0.50657440  0.12543128  1
  O  O346  1  0.49537426  0.50469591  0.61875524  1
  O  O347  1  0.25088173  0.38635140  0.25723349  1
  O  O348  1  0.23603607  0.38156904  0.74021611  1
  O  O349  1  0.23482285  0.88659193  0.25579865  1
  O  O350  1  0.23450329  0.87153229  0.74911477  1
  O  O351  1  0.73917817  0.38411132  0.25754534  1
  O  O352  1  0.73752185  0.37625992  0.74183276  1
  O  O353  1  0.74398353  0.88245292  0.24767079  1
  O  O354  1  0.75328946  0.89100146  0.76134786  1
  O  O355  1  0.24984653  0.11177109  0.26637689  1
  O  O356  1  0.26504974  0.12704904  0.74503985  1
  O  O357  1  0.25201493  0.61447603  0.25655602  1
  O  O358  1  0.24075869  0.61107512  0.74873572  1
  O  O359  1  0.75449673  0.11728891  0.25361174  1
  O  O360  1  0.75039927  0.11924858  0.76106432  1
  O  O361  1  0.75842525  0.61556147  0.25136899  1
  O  O362  1  0.76575180  0.62739308  0.74793015  1
  O  O363  1  0.36705654  0.11040718  0.38503257  1
  O  O364  1  0.37235812  0.11592485  0.86726091  1
  O  O365  1  0.36093620  0.61940975  0.35849745  1
  O  O366  1  0.36859324  0.60783258  0.88869818  1
  O  O367  1  0.87010350  0.12112865  0.36615417  1
  O  O368  1  0.86664944  0.11735850  0.87606645  1
  O  O369  1  0.87471813  0.61307337  0.36648948  1
  O  O370  1  0.87697756  0.62048127  0.86656624  1
  O  O371  1  0.11777637  0.37686096  0.12806362  1
  O  O372  1  0.12705741  0.38421272  0.62974267  1
  O  O373  1  0.12465462  0.89107706  0.13320477  1
  O  O374  1  0.12394726  0.88251771  0.63275454  1
  O  O375  1  0.61746954  0.38322545  0.14047367  1
  O  O376  1  0.63356696  0.36944393  0.63619847  1
  O  O377  1  0.62647539  0.87059438  0.13764231  1
  O  O378  1  0.63867398  0.83793919  0.63755544  1
  O  O379  1  0.11965541  0.21097918  0.26071214  1
  O  O380  1  0.11731730  0.25654950  0.75071512  1
  O  O381  1  0.11634045  0.75955527  0.26006483  1
  O  O382  1  0.11893741  0.75700482  0.75440767  1
  O  O383  1  0.61926982  0.25697974  0.25601609  1
  O  O384  1  0.61529796  0.25811908  0.75456855  1
  O  O385  1  0.61614967  0.75257160  0.25454164  1
  O  O386  1  0.62655734  0.74463018  0.77947048  1
  O  O387  1  0.38920024  0.25246111  0.24087815  1
  O  O388  1  0.37999267  0.24172069  0.74547345  1
  O  O389  1  0.37945892  0.74160955  0.24690249  1
  O  O390  1  0.38262344  0.74288292  0.76082625  1
  O  O391  1  0.86534827  0.23611538  0.24713964  1
  O  O392  1  0.88258696  0.25282322  0.74655671  1
  O  O393  1  0.88425188  0.74123110  0.25380755  1
  O  O394  1  0.87931238  0.74715647  0.74400469  1
  O  O395  1  0.37292274  0.48875181  0.49498024  1
  O  O396  1  0.39489316  0.49286706  1.01493875  1
  O  O397  1  0.37530085  0.99231672  0.48971802  1
  O  O398  1  0.37945999  0.99113072  0.99482994  1
  O  O399  1  0.88066557  0.49786600  0.49054877  1
  O  O400  1  0.88014034  0.49653025  0.99204631  1
  O  O401  1  0.87849060  0.99675285  0.49515910  1
  O  O402  1  0.88181235  0.99764719  0.98889316  1
  O  O403  1  0.12383973  0.00802125  0.00461467  1
  O  O404  1  0.11911604  0.00587718  0.50862689  1
  O  O405  1  0.11841513  0.49834466  0.01066050  1
  O  O406  1  0.11504788  0.49377465  0.50849282  1
  O  O407  1  0.61647130  0.00867077  -0.00545172  1
  O  O408  1  0.63033781  -0.00749589  0.50580195  1
  O  O409  1  0.61958119  0.50343677  0.01050232  1
  O  O410  1  0.63021287  0.51940054  0.49354231  1
  O  O411  1  0.38688533  0.35850354  0.12302036  1
  O  O412  1  0.36698338  0.36621157  0.61858947  1
  O  O413  1  0.36903514  0.87396657  0.11355012  1
  O  O414  1  0.36829209  0.85109116  0.64134775  1
  O  O415  1  0.87639506  0.37809994  0.10825871  1
  O  O416  1  0.86602040  0.37069172  0.61920301  1
  O  O417  1  0.88437458  0.88268525  0.11047904  1
  O  O418  1  0.88392961  0.86502464  0.61797303  1
  O  O419  1  0.14188909  0.11123614  0.39345646  1
  O  O420  1  0.12619419  0.12981706  0.88164532  1
  O  O421  1  0.13035913  0.63566406  0.36462628  1
  O  O422  1  0.12483966  0.63274153  0.88114425  1
  O  O423  1  0.63118720  0.12855322  0.37878818  1
  O  O424  1  0.63314839  0.12703365  0.88628867  1
  O  O425  1  0.62694088  0.63809888  0.37808148  1
  O  O426  1  0.62751359  0.62641906  0.89122021  1
