# generated using pymatgen
data_V85Zn86O256
_symmetry_space_group_name_H-M   'P 1'
_cell_length_a   16.96216483
_cell_length_b   16.95542041
_cell_length_c   16.96331715
_cell_angle_alpha   90.14068819
_cell_angle_beta   89.94274579
_cell_angle_gamma   90.00202477
_symmetry_Int_Tables_number   1
_chemical_formula_structural   V85Zn86O256
_chemical_formula_sum   'V85 Zn86 O256'
_cell_volume   4878.64365354
_cell_formula_units_Z   1
loop_
 _symmetry_equiv_pos_site_id
 _symmetry_equiv_pos_as_xyz
  1  'x, y, z'
loop_
 _atom_site_type_symbol
 _atom_site_label
 _atom_site_symmetry_multiplicity
 _atom_site_fract_x
 _atom_site_fract_y
 _atom_site_fract_z
 _atom_site_occupancy
  V  V0  1  0.50194731  0.12565517  0.12303304  1
  V  V1  1  -0.00123343  0.12087361  0.61943356  1
  V  V2  1  0.87666646  0.87084849  -0.00140158  1
  V  V3  1  0.87550077  0.25162419  0.12738927  1
  V  V4  1  0.13264593  0.37467436  0.74684473  1
  V  V5  1  0.13569785  0.63411919  0.50509238  1
  V  V6  1  0.62322199  0.36872456  0.75453289  1
  V  V7  1  0.25804822  0.12366440  0.86690475  1
  V  V8  1  0.37242090  0.50845691  0.87887288  1
  V  V9  1  0.75024260  0.37795171  0.12633938  1
  V  V10  1  0.89173456  0.62896576  0.25039148  1
  V  V11  1  0.62841693  0.87332316  0.74788571  1
  V  V12  1  0.38017482  -0.00836696  0.37213379  1
  V  V13  1  0.00164861  0.37499515  0.87473854  1
  V  V14  1  0.49297162  0.63002372  0.12717182  1
  V  V15  1  0.00089948  0.24970909  0.74767011  1
  V  V16  1  0.50058483  -0.00291912  0.49775749  1
  V  V17  1  0.50299939  0.62374017  0.61398926  1
  V  V18  1  0.89606144  0.74523032  0.12643081  1
  V  V19  1  0.62431953  0.87888183  0.25477061  1
  V  V20  1  0.24736480  0.86936537  0.62490650  1
  V  V21  1  0.25325821  0.86941900  0.12217652  1
  V  V22  1  0.87379958  0.24860783  0.62284704  1
  V  V23  1  0.62578267  -0.00180004  0.62444068  1
  V  V24  1  0.62745435  0.25008484  0.37713797  1
  V  V25  1  0.12343473  0.24910538  0.37254225  1
  V  V26  1  0.74730814  0.85773129  0.12297149  1
  V  V27  1  0.48901020  0.48323843  0.48982859  1
  V  V28  1  0.12476089  0.75757876  0.87543002  1
  V  V29  1  0.62741369  0.12931850  -0.00239854  1
  V  V30  1  0.11968732  0.77521240  0.34686031  1
  V  V31  1  0.86805171  0.11261043  0.24870695  1
  V  V32  1  0.75016685  0.50714623  0.25408816  1
  V  V33  1  0.12452748  -0.00438230  0.12410537  1
  V  V34  1  0.63633056  -0.00100661  0.12621141  1
  V  V35  1  0.12887299  0.49555417  0.62689393  1
  V  V36  1  0.36866282  0.62943380  0.25342931  1
  V  V37  1  0.49999335  0.74613359  0.75092542  1
  V  V38  1  0.62320758  0.74466950  0.37853064  1
  V  V39  1  0.25099223  0.11970379  0.37303921  1
  V  V40  1  0.12623047  0.24930782  0.87479467  1
  V  V41  1  0.87501108  0.12502865  0.74823253  1
  V  V42  1  0.88197861  -0.00497844  0.87491825  1
  V  V43  1  0.24816679  0.50808905  0.25707606  1
  V  V44  1  0.13109817  0.62422810  -0.00760257  1
  V  V45  1  0.74709887  0.13103993  0.87432230  1
  V  V46  1  0.63782626  0.74068984  0.87707664  1
  V  V47  1  0.37499816  0.25426597  0.12865378  1
  V  V48  1  0.75031158  0.50334422  0.75223431  1
  V  V49  1  0.37317456  0.86970106  0.49814556  1
  V  V50  1  0.37051889  0.74381832  0.61989778  1
  V  V51  1  0.00219533  0.75785523  0.75546732  1
  V  V52  1  0.87487939  0.37539117  0.50044713  1
  V  V53  1  0.87002235  0.75975644  0.62514254  1
  V  V54  1  0.74967423  0.37276798  0.62468556  1
  V  V55  1  0.74998797  -0.00265907  0.74586997  1
  V  V56  1  0.37790768  0.87253867  -0.00118424  1
  V  V57  1  0.62230289  0.37523952  0.25672774  1
  V  V58  1  0.87591184  0.37705967  0.00038301  1
  V  V59  1  0.50059997  0.24715408  0.25597031  1
  V  V60  1  0.50483098  0.37271153  0.87759590  1
  V  V61  1  0.50156984  -0.00005121  -0.00322032  1
  V  V62  1  0.48492458  0.12475529  0.62884524  1
  V  V63  1  0.62029452  0.50238720  0.13049144  1
  V  V64  1  0.25710780  0.74571669  -0.00606331  1
  V  V65  1  0.87276336  0.87486834  0.48248116  1
  V  V66  1  0.75113238  0.10856485  0.37186117  1
  V  V67  1  0.24732375  -0.00849574  0.24763605  1
  V  V68  1  0.12278361  -0.00370320  0.62315428  1
  V  V69  1  0.12406610  0.12581299  0.00011034  1
  V  V70  1  0.25520602  0.25824037  0.50419980  1
  V  V71  1  -0.00217238  0.62494145  0.62835469  1
  V  V72  1  0.12159499  0.50853406  0.12538219  1
  V  V73  1  0.74576222  0.25477758  -0.00382520  1
  V  V74  1  0.24963371  0.50814027  0.75857342  1
  V  V75  1  0.12424263  0.37602522  0.24806021  1
  V  V76  1  0.87473107  0.50773296  0.87333965  1
  V  V77  1  0.48724899  0.24977574  0.74938487  1
  V  V78  1  -0.00149531  0.37458061  0.37607346  1
  V  V79  1  0.49963832  0.50216527  0.00591588  1
  V  V80  1  0.62433103  0.50268556  0.61838727  1
  V  V81  1  0.87597693  0.50272382  0.37749361  1
  V  V82  1  0.00049134  0.50682916  0.00311606  1
  V  V83  1  0.49288040  0.75721974  0.25034014  1
  V  V84  1  0.12134450  0.12037126  0.49582555  1
  Zn  Zn85  1  0.73767247  0.74851587  0.51256514  1
  Zn  Zn86  1  0.24993809  0.37504398  0.12591674  1
  Zn  Zn87  1  0.00327947  -0.00625034  -0.00548621  1
  Zn  Zn88  1  0.26323813  0.00505483  0.74110878  1
  Zn  Zn89  1  0.37018675  0.62957149  0.75536217  1
  Zn  Zn90  1  0.37706937  0.12027364  0.24681647  1
  Zn  Zn91  1  0.25271388  0.25106024  0.00209778  1
  Zn  Zn92  1  -0.00233033  0.24830219  0.24914538  1
  Zn  Zn93  1  0.50212341  0.87400879  0.87411324  1
  Zn  Zn94  1  0.38154296  0.29276188  0.60749606  1
  Zn  Zn95  1  0.00148289  0.50100389  0.50249544  1
  Zn  Zn96  1  -0.00485344  -0.01015803  0.47747346  1
  Zn  Zn97  1  -0.00266807  0.12128057  0.12395824  1
  Zn  Zn98  1  0.37352527  0.37649984  0.00349173  1
  Zn  Zn99  1  0.87039445  0.62976200  0.75351264  1
  Zn  Zn100  1  0.75033823  0.24664862  0.49877974  1
  Zn  Zn101  1  0.25375696  0.63303848  0.39151727  1
  Zn  Zn102  1  0.38180288  0.00299686  0.86609181  1
  Zn  Zn103  1  0.63986851  0.63984189  0.01094838  1
  Zn  Zn104  1  0.12527574  0.88199387  0.75869664  1
  Zn  Zn105  1  0.62620896  0.12420256  0.50141444  1
  Zn  Zn106  1  0.75220213  0.62817006  0.38838233  1
  Zn  Zn107  1  0.18903364  0.18443734  0.18754420  1
  Zn  Zn108  1  0.18847788  0.18715540  0.68331549  1
  Zn  Zn109  1  0.18074307  0.69219387  0.18404413  1
  Zn  Zn110  1  0.18567798  0.68607735  0.68943762  1
  Zn  Zn111  1  0.68909356  0.18748207  0.18605426  1
  Zn  Zn112  1  0.68251108  0.18595490  0.68703232  1
  Zn  Zn113  1  0.68335616  0.68822800  0.19615434  1
  Zn  Zn114  1  0.68648901  0.68318392  0.68931106  1
  Zn  Zn115  1  0.31048493  0.31118097  0.32502691  1
  Zn  Zn116  1  0.31547510  0.31694569  0.81579071  1
  Zn  Zn117  1  0.30399351  0.80647761  0.31528439  1
  Zn  Zn118  1  0.31306118  0.81636915  0.81178191  1
  Zn  Zn119  1  0.80962777  0.31135518  0.31416622  1
  Zn  Zn120  1  0.81405470  0.31701040  0.81196041  1
  Zn  Zn121  1  0.80631347  0.81055183  0.30439132  1
  Zn  Zn122  1  0.81382401  0.81295029  0.81126411  1
  Zn  Zn123  1  0.18709362  0.44163677  0.43712770  1
  Zn  Zn124  1  0.19068358  0.43357025  0.93983773  1
  Zn  Zn125  1  0.18923399  0.93304228  0.44041220  1
  Zn  Zn126  1  0.19200497  0.93995212  0.93868740  1
  Zn  Zn127  1  0.68732385  0.43818157  0.43895465  1
  Zn  Zn128  1  0.70429234  0.47412442  0.95533765  1
  Zn  Zn129  1  0.69203024  0.92664793  0.44226598  1
  Zn  Zn130  1  0.69266067  0.93409919  0.93615144  1
  Zn  Zn131  1  0.31408126  0.06401506  0.05845850  1
  Zn  Zn132  1  0.30866190  0.05905928  0.55707214  1
  Zn  Zn133  1  0.31172264  0.56283544  0.07049630  1
  Zn  Zn134  1  0.31731686  0.53926509  0.56994037  1
  Zn  Zn135  1  0.81354589  0.06173442  0.05865244  1
  Zn  Zn136  1  0.81343787  0.05716423  0.55668687  1
  Zn  Zn137  1  0.81268087  0.57229894  0.06582846  1
  Zn  Zn138  1  0.81050285  0.56702665  0.56260088  1
  Zn  Zn139  1  0.41480845  0.41885131  0.24162136  1
  Zn  Zn140  1  0.43593207  0.44070005  0.68978911  1
  Zn  Zn141  1  0.43880175  0.93771614  0.18227588  1
  Zn  Zn142  1  0.43824068  0.93395601  0.68620137  1
  Zn  Zn143  1  0.93840133  0.44092267  0.18936790  1
  Zn  Zn144  1  0.93915041  0.43620078  0.68818087  1
  Zn  Zn145  1  0.93793864  0.93341032  0.19180169  1
  Zn  Zn146  1  0.93949948  0.93738266  0.68677392  1
  Zn  Zn147  1  0.06225351  0.06463982  0.30237803  1
  Zn  Zn148  1  0.06628772  0.06407982  0.80854703  1
  Zn  Zn149  1  0.06548397  0.56374947  0.32106166  1
  Zn  Zn150  1  0.06179049  0.56597660  0.81382451  1
  Zn  Zn151  1  0.56514119  0.06232592  0.31150239  1
  Zn  Zn152  1  0.56202585  0.06734498  0.80985769  1
  Zn  Zn153  1  0.55625826  0.56654736  0.31448944  1
  Zn  Zn154  1  0.56083568  0.56067209  0.81080660  1
  Zn  Zn155  1  0.43751638  0.18298228  0.43899220  1
  Zn  Zn156  1  0.43911687  0.19198636  0.93989259  1
  Zn  Zn157  1  0.44135526  0.68519988  0.43325985  1
  Zn  Zn158  1  0.44535133  0.68825928  0.93980771  1
  Zn  Zn159  1  0.93529786  0.18527378  0.43471865  1
  Zn  Zn160  1  0.93678446  0.18618208  0.93720923  1
  Zn  Zn161  1  0.94609617  0.69110854  0.43732915  1
  Zn  Zn162  1  0.93941944  0.69021785  0.94050660  1
  Zn  Zn163  1  0.06159010  0.31409622  0.06236653  1
  Zn  Zn164  1  0.06420208  0.31007255  0.55987994  1
  Zn  Zn165  1  0.06577159  0.81431879  0.05877188  1
  Zn  Zn166  1  0.05501972  0.81251156  0.55814683  1
  Zn  Zn167  1  0.56207368  0.31570062  0.06549295  1
  Zn  Zn168  1  0.56276778  0.31170686  0.56459731  1
  Zn  Zn169  1  0.56288245  0.81221745  0.06314559  1
  Zn  Zn170  1  0.55742150  0.81496585  0.56374297  1
  O  O171  1  0.12514012  0.11636875  0.11647460  1
  O  O172  1  0.11969040  0.11596552  0.61644698  1
  O  O173  1  0.12583437  0.61508102  0.11237702  1
  O  O174  1  0.11830859  0.61575790  0.62292917  1
  O  O175  1  0.62326169  0.11727542  0.11881386  1
  O  O176  1  0.61535606  0.11280510  0.62342034  1
  O  O177  1  0.61571088  0.61786529  0.13070683  1
  O  O178  1  0.61519681  0.61372792  0.63232795  1
  O  O179  1  0.38601263  0.38452491  0.34493122  1
  O  O180  1  0.38710340  0.38839715  0.87745858  1
  O  O181  1  0.36580026  0.88301682  0.38326086  1
  O  O182  1  0.37858486  0.87874662  0.88706661  1
  O  O183  1  0.87865082  0.38048830  0.37926833  1
  O  O184  1  0.88337084  0.38283284  0.88068332  1
  O  O185  1  0.87111323  0.85974197  0.38413132  1
  O  O186  1  0.86593828  0.88388593  0.88522904  1
  O  O187  1  0.25707181  0.00237673  0.36698409  1
  O  O188  1  0.24965093  0.01539970  0.87265211  1
  O  O189  1  0.23695133  0.51156014  0.36013778  1
  O  O190  1  0.26051020  0.49506123  0.87121721  1
  O  O191  1  0.74388992  0.01038898  0.37463237  1
  O  O192  1  0.75862893  0.00874716  0.86550506  1
  O  O193  1  0.75556295  0.50147001  0.36750945  1
  O  O194  1  0.76477362  0.48590714  0.86069364  1
  O  O195  1  0.23673328  0.49783202  0.13416427  1
  O  O196  1  0.23502892  0.50248355  0.64144748  1
  O  O197  1  0.24609309  0.99415369  0.12893237  1
  O  O198  1  0.23985475  0.99168386  0.62193215  1
  O  O199  1  0.74356304  0.49666760  0.13909210  1
  O  O200  1  0.74399835  0.49288038  0.63279969  1
  O  O201  1  0.73892468  0.99449274  0.11923069  1
  O  O202  1  0.73976727  1.00933256  0.63651558  1
  O  O203  1  0.00900219  0.37538868  0.25591594  1
  O  O204  1  0.00921730  0.36887424  0.75563215  1
  O  O205  1  -0.01045978  0.91827174  0.29936122  1
  O  O206  1  0.00626199  0.86227885  0.74513890  1
  O  O207  1  0.51631209  0.36142296  0.24543174  1
  O  O208  1  0.50578790  0.37153751  0.75647423  1
  O  O209  1  0.50898383  0.86664290  0.23851442  1
  O  O210  1  0.51084937  0.86317406  0.74878848  1
  O  O211  1  0.50280308  0.13208547  0.24154076  1
  O  O212  1  0.50537938  0.13893724  0.74211735  1
  O  O213  1  0.48904618  0.63259531  0.24561203  1
  O  O214  1  0.49800717  0.63432563  0.74024268  1
  O  O215  1  0.98224543  0.12861725  0.24605615  1
  O  O216  1  0.99470341  0.13054696  0.74169397  1
  O  O217  1  0.99045081  0.61815301  0.25176420  1
  O  O218  1  1.00152345  0.63533328  0.74244163  1
  O  O219  1  0.37762529  0.25374716  0.01597551  1
  O  O220  1  0.36018447  0.24541744  0.49657451  1
  O  O221  1  0.36921938  0.75847080  -0.00611821  1
  O  O222  1  0.38444576  0.75782389  0.50834901  1
  O  O223  1  0.86889093  0.25632687  0.00731230  1
  O  O224  1  0.87388378  0.25567365  0.50579786  1
  O  O225  1  0.87937713  0.75365639  0.01600586  1
  O  O226  1  0.88152257  0.75651528  0.51614942  1
  O  O227  1  0.13260685  0.24036843  0.49219010  1
  O  O228  1  0.12476764  0.24185222  0.99489171  1
  O  O229  1  0.12951018  0.73361622  0.51756467  1
  O  O230  1  0.13173584  0.74293159  0.99329111  1
  O  O231  1  0.62549051  0.24625373  0.48989430  1
  O  O232  1  0.63327812  0.24321012  1.00842719  1
  O  O233  1  0.61983815  0.76535827  0.48235589  1
  O  O234  1  0.62085825  0.75193121  0.98230912  1
  O  O235  1  0.49665314  0.24456480  0.13508575  1
  O  O236  1  0.49199694  0.24261507  0.62795571  1
  O  O237  1  0.50910888  0.73931019  0.13544293  1
  O  O238  1  0.49395690  0.74332914  0.63109239  1
  O  O239  1  0.98614774  0.24863814  0.12420221  1
  O  O240  1  0.99518413  0.24108594  0.62732977  1
  O  O241  1  0.99430488  0.75324094  0.12811595  1
  O  O242  1  0.99215868  0.74317990  0.63529870  1
  O  O243  1  0.00585772  0.25573565  0.37239384  1
  O  O244  1  0.00489816  0.25375237  0.86816150  1
  O  O245  1  0.02879823  0.74652929  0.38368843  1
  O  O246  1  0.01021269  0.74425314  0.86664038  1
  O  O247  1  0.51345954  0.23426544  0.36507686  1
  O  O248  1  0.49221103  0.26254007  0.86590997  1
  O  O249  1  0.50940077  0.74947100  0.36232493  1
  O  O250  1  0.50719172  0.75158340  0.86247081  1
  O  O251  1  0.24254649  0.12595977  0.48682216  1
  O  O252  1  0.23871578  0.12682634  0.99105919  1
  O  O253  1  0.23904595  0.61384459  0.50994565  1
  O  O254  1  0.24371752  0.63510596  1.00707662  1
  O  O255  1  0.75048878  0.12465261  0.48429200  1
  O  O256  1  0.74764741  0.13213798  0.99158703  1
  O  O257  1  0.74856310  0.63565677  0.50102727  1
  O  O258  1  0.73329668  0.58269594  0.99160592  1
  O  O259  1  0.25556360  0.36962433  0.00749429  1
  O  O260  1  0.24328065  0.35636801  0.48871619  1
  O  O261  1  0.25984951  0.86872064  0.00326274  1
  O  O262  1  0.26297775  0.87794589  0.51208446  1
  O  O263  1  0.75641052  0.37626667  0.00677660  1
  O  O264  1  0.75686818  0.37270825  0.50764538  1
  O  O265  1  0.76407751  0.87918766  0.01143606  1
  O  O266  1  0.76508265  0.86318736  0.50240836  1
  O  O267  1  0.12592816  0.49815810  0.24229351  1
  O  O268  1  0.12973325  0.49331929  0.74969010  1
  O  O269  1  0.13875120  1.00495114  0.23721245  1
  O  O270  1  0.12945548  0.99921484  0.73568826  1
  O  O271  1  0.62981394  0.49441277  0.25029538  1
  O  O272  1  0.63044651  0.49069053  0.74319676  1
  O  O273  1  0.61484833  0.99086392  0.23583870  1
  O  O274  1  0.63000419  0.99358570  0.74456261  1
  O  O275  1  0.36955935  -0.00104991  0.25620419  1
  O  O276  1  0.37566007  -0.00479733  0.75386244  1
  O  O277  1  0.35844262  0.51746581  0.24149614  1
  O  O278  1  0.36676161  0.50512919  0.76222043  1
  O  O279  1  0.86673333  0.01514605  0.23636581  1
  O  O280  1  0.86743145  0.00344046  0.75345620  1
  O  O281  1  0.86797575  0.50816855  0.25477074  1
  O  O282  1  0.86932982  0.49895492  0.75700111  1
  O  O283  1  0.11839066  0.37081718  0.36669434  1
  O  O284  1  0.12030139  0.36935259  0.86799164  1
  O  O285  1  0.12873673  0.87456245  0.36753794  1
  O  O286  1  0.12814753  0.86362467  0.87841986  1
  O  O287  1  0.63350743  0.36348554  0.36580486  1
  O  O288  1  0.61165933  0.38456093  0.86476714  1
  O  O289  1  0.62840377  0.87230640  0.36012700  1
  O  O290  1  0.62512726  0.86591185  0.86417880  1
  O  O291  1  0.38338408  0.13195140  0.12511341  1
  O  O292  1  0.38540145  0.11614481  0.62098404  1
  O  O293  1  0.38562225  0.62760396  0.13335747  1
  O  O294  1  0.38268172  0.63189689  0.62722787  1
  O  O295  1  0.86980040  0.13395223  0.13310865  1
  O  O296  1  0.87878193  0.12716066  0.62831746  1
  O  O297  1  0.87649717  0.63780336  0.13175668  1
  O  O298  1  0.88581280  0.63213713  0.62916876  1
  O  O299  1  0.26217282  0.24933811  0.12813340  1
  O  O300  1  0.24971132  0.24455918  0.60617598  1
  O  O301  1  0.24294314  0.76205093  0.11043306  1
  O  O302  1  0.26168633  0.75437540  0.63151739  1
  O  O303  1  0.75770120  0.25760869  0.11877820  1
  O  O304  1  0.75521178  0.25346684  0.62413610  1
  O  O305  1  0.74500456  0.75517824  0.12257956  1
  O  O306  1  0.76717484  0.74368061  0.63351484  1
  O  O307  1  0.24382415  0.23639184  0.37909752  1
  O  O308  1  0.24556364  0.24053108  0.87638024  1
  O  O309  1  0.22350924  0.74434612  0.36754113  1
  O  O310  1  0.24304086  0.75372189  0.88566469  1
  O  O311  1  0.73979899  0.24138029  0.37561798  1
  O  O312  1  0.75928530  0.23980572  0.87968097  1
  O  O313  1  0.73070223  0.74935304  0.36868757  1
  O  O314  1  0.73705331  0.74794137  0.86572703  1
  O  O315  1  0.01110650  0.12086280  0.00098582  1
  O  O316  1  0.00228627  0.11376703  0.49862036  1
  O  O317  1  0.01108455  0.61292699  -0.00429074  1
  O  O318  1  0.01075789  0.62294671  0.51573388  1
  O  O319  1  0.50763568  0.11913797  0.00233128  1
  O  O320  1  0.50206727  0.11223351  0.50869180  1
  O  O321  1  0.50602978  0.61868413  0.01076524  1
  O  O322  1  0.49986784  0.62136173  0.51122543  1
  O  O323  1  0.49663778  0.38354394  0.50554816  1
  O  O324  1  0.49675479  0.38195016  0.99509963  1
  O  O325  1  0.48635678  0.88849174  0.50762637  1
  O  O326  1  0.49445344  0.88298022  1.00080309  1
  O  O327  1  0.99370508  0.37562636  0.49419512  1
  O  O328  1  0.99672951  0.38473280  0.99389012  1
  O  O329  1  0.98182577  0.87575343  0.50168028  1
  O  O330  1  0.98341449  0.87638477  1.00522165  1
  O  O331  1  0.51493641  0.49942013  0.39310885  1
  O  O332  1  0.49468183  0.49545571  0.88559402  1
  O  O333  1  0.49033108  1.00685493  0.38357802  1
  O  O334  1  0.50546332  0.99968635  0.88664741  1
  O  O335  1  0.99312501  0.49222750  0.37894415  1
  O  O336  1  0.99497257  0.49487289  0.88189090  1
  O  O337  1  0.99016852  0.98428171  0.34686322  1
  O  O338  1  0.98586672  1.00436249  0.86959933  1
  O  O339  1  0.01306225  -0.00274602  0.12642010  1
  O  O340  1  0.00983353  0.00474240  0.62524144  1
  O  O341  1  0.00840361  0.49457151  0.11317327  1
  O  O342  1  0.00945402  0.50836869  0.63023901  1
  O  O343  1  0.50824439  0.00530614  0.11244108  1
  O  O344  1  0.50723698  0.00538762  0.61906408  1
  O  O345  1  0.50399603  0.51145657  0.12190010  1
  O  O346  1  0.50670744  0.50722958  0.61832130  1
  O  O347  1  0.23392826  0.38597695  0.25203938  1
  O  O348  1  0.23672736  0.38318134  0.75752899  1
  O  O349  1  0.25977041  0.88385727  0.23646998  1
  O  O350  1  0.24636778  0.87663644  0.73574857  1
  O  O351  1  0.74278446  0.38481117  0.24721734  1
  O  O352  1  0.74214112  0.37930098  0.74438001  1
  O  O353  1  0.73612352  0.87222150  0.23537609  1
  O  O354  1  0.74134601  0.88767995  0.75362806  1
  O  O355  1  0.25238801  0.11300110  0.25906033  1
  O  O356  1  0.24570796  0.12670778  0.76339574  1
  O  O357  1  0.25463158  0.62351597  0.24220844  1
  O  O358  1  0.24889018  0.61303547  0.75382305  1
  O  O359  1  0.75759318  0.12833484  0.25925568  1
  O  O360  1  0.75362672  0.11891156  0.75610795  1
  O  O361  1  0.75593489  0.61479073  0.25354144  1
  O  O362  1  0.75147062  0.60717550  0.74729474  1
  O  O363  1  0.36553696  0.11087921  0.37469103  1
  O  O364  1  0.36021948  0.12690086  0.88313793  1
  O  O365  1  0.36763613  0.63497464  0.36042328  1
  O  O366  1  0.38339235  0.61279298  0.87688132  1
  O  O367  1  0.86275491  0.12754410  0.36083425  1
  O  O368  1  0.86698112  0.11704543  0.86884133  1
  O  O369  1  0.87657096  0.62269496  0.36780201  1
  O  O370  1  0.88216953  0.61143876  0.87410716  1
  O  O371  1  0.12289363  0.38429110  0.13416224  1
  O  O372  1  0.11637784  0.38243507  0.63661001  1
  O  O373  1  0.13957332  0.88686953  0.11181816  1
  O  O374  1  0.13261484  0.88079150  0.61922399  1
  O  O375  1  0.63073656  0.38188917  0.13705196  1
  O  O376  1  0.62932203  0.38237340  0.63469860  1
  O  O377  1  0.63195575  0.88075149  0.12720414  1
  O  O378  1  0.61994383  0.88593751  0.63543827  1
  O  O379  1  0.12355340  0.25838183  0.25294371  1
  O  O380  1  0.12107974  0.25652728  0.75219906  1
  O  O381  1  0.11588719  0.76078549  0.24618064  1
  O  O382  1  0.12046614  0.75125159  0.76000527  1
  O  O383  1  0.62144726  0.25536751  0.25587158  1
  O  O384  1  0.61355493  0.26322136  0.74283015  1
  O  O385  1  0.61440180  0.75927191  0.25808050  1
  O  O386  1  0.62027743  0.75568608  0.75396853  1
  O  O387  1  0.38660033  0.24191192  0.24643106  1
  O  O388  1  0.38550679  0.26236601  0.74079935  1
  O  O389  1  0.38352728  0.74764267  0.25190055  1
  O  O390  1  0.38362511  0.75070019  0.74156884  1
  O  O391  1  0.87250816  0.24705467  0.23848261  1
  O  O392  1  0.88097285  0.24535612  0.74345513  1
  O  O393  1  0.87208202  0.74227491  0.23551789  1
  O  O394  1  0.88374855  0.74883333  0.74470978  1
  O  O395  1  0.39061317  0.50644478  0.49260797  1
  O  O396  1  0.38457503  0.50078896  0.99922973  1
  O  O397  1  0.38081926  0.99157408  0.49141380  1
  O  O398  1  0.38668038  0.99468461  0.99576463  1
  O  O399  1  0.87666136  0.49367943  0.49565253  1
  O  O400  1  0.88416557  0.49693166  0.99505783  1
  O  O401  1  0.87368301  0.98164387  0.49728303  1
  O  O402  1  0.87825037  0.99354179  0.99157548  1
  O  O403  1  0.12425253  0.00796865  0.00579789  1
  O  O404  1  0.12016880  0.00226453  0.50543302  1
  O  O405  1  0.12096446  0.50537524  0.00431127  1
  O  O406  1  0.12333145  0.50219782  0.51463523  1
  O  O407  1  0.62030315  0.00465044  0.00586075  1
  O  O408  1  0.61759550  -0.00563552  0.50752213  1
  O  O409  1  0.60698607  0.49057604  0.01405394  1
  O  O410  1  0.61890833  0.49229912  0.51493337  1
  O  O411  1  0.37548959  0.36209925  0.13848676  1
  O  O412  1  0.35904697  0.39964285  0.62321700  1
  O  O413  1  0.36587853  0.88177428  0.10979047  1
  O  O414  1  0.36831206  0.86429699  0.61771896  1
  O  O415  1  0.87062313  0.37091447  0.12137792  1
  O  O416  1  0.87080091  0.36855077  0.62132622  1
  O  O417  1  0.86947059  0.86052126  0.12566559  1
  O  O418  1  0.87533384  0.86103064  0.62890807  1
  O  O419  1  0.13119202  0.12600951  0.37479388  1
  O  O420  1  0.13204198  0.12966352  0.88132060  1
  O  O421  1  0.12460771  0.62021848  0.40078126  1
  O  O422  1  0.12601199  0.63315141  0.88660456  1
  O  O423  1  0.63827917  0.12947226  0.37305224  1
  O  O424  1  0.64002777  0.11939497  0.87997907  1
  O  O425  1  0.62476654  0.64176812  0.36991347  1
  O  O426  1  0.62006668  0.63941116  0.87062303  1
