# generated using pymatgen
data_V85Zn86O256
_symmetry_space_group_name_H-M   'P 1'
_cell_length_a   16.95160655
_cell_length_b   16.96208605
_cell_length_c   16.95786264
_cell_angle_alpha   90.00097445
_cell_angle_beta   90.17266329
_cell_angle_gamma   89.93413779
_symmetry_Int_Tables_number   1
_chemical_formula_structural   V85Zn86O256
_chemical_formula_sum   'V85 Zn86 O256'
_cell_volume   4875.94703728
_cell_formula_units_Z   1
loop_
 _symmetry_equiv_pos_site_id
 _symmetry_equiv_pos_as_xyz
  1  'x, y, z'
loop_
 _atom_site_type_symbol
 _atom_site_label
 _atom_site_symmetry_multiplicity
 _atom_site_fract_x
 _atom_site_fract_y
 _atom_site_fract_z
 _atom_site_occupancy
  V  V0  1  0.11669257  0.37110089  0.74900692  1
  V  V1  1  0.49448898  0.87737352  0.37544565  1
  V  V2  1  0.63430794  0.24386258  0.37553312  1
  V  V3  1  0.74476551  0.63390566  0.87300963  1
  V  V4  1  0.24139504  0.13083727  0.37305466  1
  V  V5  1  0.01490396  0.87287741  0.36980348  1
  V  V6  1  0.37644247  0.74774147  0.62606585  1
  V  V7  1  0.24867757  0.62491891  0.37092926  1
  V  V8  1  0.37642068  0.37228931  0.50028220  1
  V  V9  1  0.62406912  0.75077011  0.37582449  1
  V  V10  1  0.50146191  0.75847181  0.75951839  1
  V  V11  1  0.12165660  0.61812171  0.00816842  1
  V  V12  1  0.12734062  0.62653477  0.49698934  1
  V  V13  1  0.74841162  0.37400405  0.62696870  1
  V  V14  1  0.12010650  0.24905688  0.87042923  1
  V  V15  1  0.01323885  0.87413938  0.87082893  1
  V  V16  1  0.25255885  -0.00387213  0.75652756  1
  V  V17  1  0.49572141  0.74962128  0.24929257  1
  V  V18  1  0.62300306  0.37588449  0.75534903  1
  V  V19  1  0.38718360  0.88161073  -0.01167335  1
  V  V20  1  0.50074597  0.25065714  0.75585731  1
  V  V21  1  0.87241250  0.37231573  0.50174468  1
  V  V22  1  0.63161529  0.87879528  0.25098604  1
  V  V23  1  0.87448949  0.63162215  0.74961683  1
  V  V24  1  0.62399287  0.49930432  0.12348428  1
  V  V25  1  0.12882967  -0.01492074  0.12411218  1
  V  V26  1  0.00036284  0.50354217  0.01218816  1
  V  V27  1  0.24563845  -0.01011813  0.24863364  1
  V  V28  1  0.24700921  0.74979849  0.49326192  1
  V  V29  1  0.75132895  0.75188176  0.50248508  1
  V  V30  1  0.36982150  0.49646459  0.87142187  1
  V  V31  1  0.37482763  0.87801408  0.49837163  1
  V  V32  1  0.25171327  0.37693066  0.63234189  1
  V  V33  1  0.62170956  0.11859924  0.00032763  1
  V  V34  1  0.24683893  0.12241583  0.87917281  1
  V  V35  1  0.50234507  0.50122785  0.50177242  1
  V  V36  1  -0.00052201  0.62904342  0.62410404  1
  V  V37  1  0.49972769  0.49575626  -0.00757824  1
  V  V38  1  0.87551949  0.87881282  -0.00640229  1
  V  V39  1  0.24395213  0.75538772  -0.00353449  1
  V  V40  1  0.74530575  0.00233514  0.75377906  1
  V  V41  1  0.37700914  0.24729258  0.62810318  1
  V  V42  1  0.62599427  0.24880759  0.87792767  1
  V  V43  1  0.75035857  0.62586938  0.37403799  1
  V  V44  1  0.24508451  0.87401305  0.63084033  1
  V  V45  1  0.86617222  0.00307302  0.36849007  1
  V  V46  1  0.87144120  0.49922823  0.37383817  1
  V  V47  1  0.50100364  0.24818460  0.25007351  1
  V  V48  1  0.63245555  -0.00080904  0.13095276  1
  V  V49  1  0.23892023  0.37840039  0.12527864  1
  V  V50  1  0.24192117  0.62309320  0.87202721  1
  V  V51  1  0.63245296  0.12006686  0.50613284  1
  V  V52  1  0.49905439  0.11738989  0.12250310  1
  V  V53  1  0.12487063  -0.00088418  0.63207383  1
  V  V54  1  0.37443722  0.12532104  0.25105698  1
  V  V55  1  0.00070958  0.49995801  0.50117387  1
  V  V56  1  0.87564348  0.50193354  0.87482182  1
  V  V57  1  0.74887865  0.75626749  0.00462481  1
  V  V58  1  0.62563906  0.37512021  0.24870448  1
  V  V59  1  0.50024243  0.37268851  0.37443532  1
  V  V60  1  0.24656171  0.24864906  0.49743242  1
  V  V61  1  0.01124386  0.36900599  0.37083496  1
  V  V62  1  0.24491019  0.24729214  -0.00054471  1
  V  V63  1  0.75043965  0.37495558  0.12454256  1
  V  V64  1  0.62244887  0.62928202  -0.00352426  1
  V  V65  1  0.87500126  0.37585273  -0.00001806  1
  V  V66  1  0.00023304  0.00261885  -0.00262026  1
  V  V67  1  0.00058598  0.13340675  0.62950581  1
  V  V68  1  0.73788396  0.88533651  0.62828219  1
  V  V69  1  0.37037002  0.61910107  0.74963332  1
  V  V70  1  0.37785158  0.37340360  -0.00353835  1
  V  V71  1  0.86874397  0.12228569  0.25172494  1
  V  V72  1  0.49870417  0.62477455  0.12289881  1
  V  V73  1  0.37617693  0.12026942  0.75594587  1
  V  V74  1  0.37076318  0.75641063  0.12351101  1
  V  V75  1  0.01116722  0.12513016  0.12450973  1
  V  V76  1  0.87684917  0.87732569  0.50245024  1
  V  V77  1  0.23912943  0.49470307  0.24536599  1
  V  V78  1  0.01389533  0.75520210  0.75303736  1
  V  V79  1  0.88130179  0.12540174  0.76009297  1
  V  V80  1  0.37502637  0.62255084  0.24628073  1
  V  V81  1  0.00326504  0.00289364  0.50033859  1
  V  V82  1  0.87922453  0.24955158  0.12902517  1
  V  V83  1  0.37535616  0.49776513  0.37183763  1
  V  V84  1  0.13066236  0.50111315  0.63230520  1
  Zn  Zn85  1  0.62379296  0.62616095  0.50437091  1
  Zn  Zn86  1  0.02023400  0.24670449  0.25643585  1
  Zn  Zn87  1  0.89112361  0.74671030  0.12423808  1
  Zn  Zn88  1  0.75098910  0.50462229  0.24580199  1
  Zn  Zn89  1  0.75153554  0.24664448  0.00057142  1
  Zn  Zn90  1  0.88125751  0.25424093  0.63315150  1
  Zn  Zn91  1  -0.00484780  0.37045465  0.87104152  1
  Zn  Zn92  1  0.37462979  0.00198075  0.37618095  1
  Zn  Zn93  1  0.61624002  0.77777625  0.87426551  1
  Zn  Zn94  1  0.88856755  0.62809885  0.23833406  1
  Zn  Zn95  1  0.75809617  0.11857599  0.88228664  1
  Zn  Zn96  1  0.50614439  -0.00029446  0.50848505  1
  Zn  Zn97  1  0.87500382  0.75576634  0.62771844  1
  Zn  Zn98  1  0.01681647  0.74258949  0.23965524  1
  Zn  Zn99  1  0.50876061  0.11477013  0.63103925  1
  Zn  Zn100  1  0.76291015  0.87942158  0.13616888  1
  Zn  Zn101  1  0.12352177  0.13073050  0.49886904  1
  Zn  Zn102  1  0.62487094  0.50246775  0.62769388  1
  Zn  Zn103  1  0.74621684  0.50368641  0.74978387  1
  Zn  Zn104  1  0.50364974  0.62473746  0.62690272  1
  Zn  Zn105  1  0.37615938  0.25001032  0.12245096  1
  Zn  Zn106  1  0.75355525  0.24428917  0.49818043  1
  Zn  Zn107  1  0.18770297  0.19118973  0.18805227  1
  Zn  Zn108  1  0.18859480  0.18684957  0.68839974  1
  Zn  Zn109  1  0.18886228  0.68423562  0.18120715  1
  Zn  Zn110  1  0.18990985  0.68703453  0.68580724  1
  Zn  Zn111  1  0.68901504  0.18790083  0.18730861  1
  Zn  Zn112  1  0.69347500  0.18767829  0.68838237  1
  Zn  Zn113  1  0.68714416  0.68963247  0.18764515  1
  Zn  Zn114  1  0.68307189  0.69456317  0.68623688  1
  Zn  Zn115  1  0.30907857  0.31085032  0.31023628  1
  Zn  Zn116  1  0.31034570  0.31020909  0.81348582  1
  Zn  Zn117  1  0.18606417  0.81464696  0.31099153  1
  Zn  Zn118  1  0.31399474  0.80915976  0.81524450  1
  Zn  Zn119  1  0.81537510  0.31209509  0.30864768  1
  Zn  Zn120  1  0.80974770  0.30821515  0.81231468  1
  Zn  Zn121  1  0.82204513  0.80874816  0.31431678  1
  Zn  Zn122  1  0.81548091  0.81819631  0.81476662  1
  Zn  Zn123  1  0.19124121  0.43981525  0.44097280  1
  Zn  Zn124  1  0.18704179  0.43672478  0.93577790  1
  Zn  Zn125  1  0.19246753  0.94750634  0.44296297  1
  Zn  Zn126  1  0.18611719  0.93856504  0.94049099  1
  Zn  Zn127  1  0.68609500  0.43479681  0.43683405  1
  Zn  Zn128  1  0.68983132  0.43867167  0.93676795  1
  Zn  Zn129  1  0.68717468  0.93794160  0.43650056  1
  Zn  Zn130  1  0.69119898  0.94607816  0.94225132  1
  Zn  Zn131  1  0.31227046  0.06013300  0.06338651  1
  Zn  Zn132  1  0.31366290  0.06383224  0.56640439  1
  Zn  Zn133  1  0.30991365  0.56206253  0.05986567  1
  Zn  Zn134  1  0.31430658  0.56017500  0.56083844  1
  Zn  Zn135  1  0.81459506  0.06280481  0.06623319  1
  Zn  Zn136  1  0.81595468  0.06492292  0.56481547  1
  Zn  Zn137  1  0.81182050  0.56532078  0.06132342  1
  Zn  Zn138  1  0.81109278  0.56184575  0.56274753  1
  Zn  Zn139  1  0.43498473  0.43553890  0.18307382  1
  Zn  Zn140  1  0.44041381  0.43470965  0.68823541  1
  Zn  Zn141  1  0.43548416  0.93631162  0.18551218  1
  Zn  Zn142  1  0.43720638  0.93913703  0.68822573  1
  Zn  Zn143  1  0.93831346  0.43730495  0.19151551  1
  Zn  Zn144  1  0.93701686  0.44313667  0.68711563  1
  Zn  Zn145  1  0.94206537  0.93148921  0.18620856  1
  Zn  Zn146  1  0.93396406  0.94310683  0.69162473  1
  Zn  Zn147  1  0.06094024  0.06168723  0.30832581  1
  Zn  Zn148  1  0.06469961  0.06132082  0.81437052  1
  Zn  Zn149  1  0.06278251  0.55592302  0.31049971  1
  Zn  Zn150  1  0.05951107  0.56264507  0.81250483  1
  Zn  Zn151  1  0.56480553  0.06179206  0.31675556  1
  Zn  Zn152  1  0.56690127  0.05425815  0.81283418  1
  Zn  Zn153  1  0.56407746  0.56260087  0.31369499  1
  Zn  Zn154  1  0.55726202  0.56606300  0.81006387  1
  Zn  Zn155  1  0.44195513  0.18486893  0.43908428  1
  Zn  Zn156  1  0.43702367  0.18526849  0.93684981  1
  Zn  Zn157  1  0.43438746  0.68723862  0.43530414  1
  Zn  Zn158  1  0.43111936  0.68758984  0.93730480  1
  Zn  Zn159  1  0.93656018  0.18737375  0.43823405  1
  Zn  Zn160  1  0.94035207  0.18711111  0.94262328  1
  Zn  Zn161  1  0.95934731  0.67289441  0.40352684  1
  Zn  Zn162  1  0.93885175  0.69253616  0.93891297  1
  Zn  Zn163  1  0.05980010  0.31359509  0.05799944  1
  Zn  Zn164  1  0.06397927  0.31554354  0.55903684  1
  Zn  Zn165  1  0.06446772  0.81048413  0.05861865  1
  Zn  Zn166  1  0.06152561  0.81197371  0.56274659  1
  Zn  Zn167  1  0.56151957  0.30912079  0.06275936  1
  Zn  Zn168  1  0.56413484  0.30630199  0.56542758  1
  Zn  Zn169  1  0.56160046  0.81500346  0.06323117  1
  Zn  Zn170  1  0.56118112  0.81402282  0.56572774  1
  O  O171  1  0.11419197  0.12027985  0.12774842  1
  O  O172  1  0.11886992  0.11617052  0.62611945  1
  O  O173  1  0.13056663  0.61618741  0.10616327  1
  O  O174  1  0.12272390  0.61774502  0.61871077  1
  O  O175  1  0.61938625  0.11878540  0.12215064  1
  O  O176  1  0.62609177  0.13507783  0.61037421  1
  O  O177  1  0.61929115  0.62107681  0.11677655  1
  O  O178  1  0.62199066  0.62149639  0.62222397  1
  O  O179  1  0.38040305  0.37773051  0.37953257  1
  O  O180  1  0.36605869  0.38304716  0.88503011  1
  O  O181  1  0.38435667  0.87412260  0.38695667  1
  O  O182  1  0.37053215  0.87287441  0.88895317  1
  O  O183  1  0.87551578  0.38346490  0.38423765  1
  O  O184  1  0.87187133  0.38465164  0.87810279  1
  O  O185  1  0.88635850  0.88804501  0.38408456  1
  O  O186  1  0.88416083  0.87646243  0.88798806  1
  O  O187  1  0.25246571  0.01017961  0.36336938  1
  O  O188  1  0.23883918  0.00834136  0.86620573  1
  O  O189  1  0.25668287  0.50184648  0.36644293  1
  O  O190  1  0.26161181  0.50723239  0.87887434  1
  O  O191  1  0.76800124  -0.00475373  0.37654770  1
  O  O192  1  0.75048349  0.00101027  0.85940367  1
  O  O193  1  0.75482723  0.50746200  0.37614078  1
  O  O194  1  0.76013982  0.51315815  0.87530954  1
  O  O195  1  0.25526900  0.48620807  0.12893827  1
  O  O196  1  0.24244907  0.48894336  0.61815943  1
  O  O197  1  0.23730445  1.00671977  0.13612079  1
  O  O198  1  0.24425233  0.99324432  0.63357900  1
  O  O199  1  0.74141686  0.49384359  0.12326240  1
  O  O200  1  0.74780341  0.48844487  0.62837069  1
  O  O201  1  0.73788441  0.99634340  0.12563433  1
  O  O202  1  0.75506508  0.98892076  0.62798284  1
  O  O203  1  -0.00324932  0.37596107  0.26796841  1
  O  O204  1  0.01144891  0.37770112  0.74964824  1
  O  O205  1  0.00431879  0.87653406  0.26860134  1
  O  O206  1  -0.00690599  0.87207925  0.76309365  1
  O  O207  1  0.50474867  0.36896669  0.25286529  1
  O  O208  1  0.51010324  0.36221247  0.74736959  1
  O  O209  1  0.50385815  0.86991992  0.25889721  1
  O  O210  1  0.48402859  0.85587367  0.74844789  1
  O  O211  1  0.49218023  0.12744578  0.24560791  1
  O  O212  1  0.49182816  0.12758157  0.75564949  1
  O  O213  1  0.49542891  0.62863725  0.24431282  1
  O  O214  1  0.48573726  0.63429387  0.74736261  1
  O  O215  1  0.99185953  0.12648359  0.24117843  1
  O  O216  1  0.99006930  0.11660313  0.74324752  1
  O  O217  1  0.99078298  0.63804232  0.29358456  1
  O  O218  1  0.99316139  0.63492437  0.74654230  1
  O  O219  1  0.36610681  0.25835665  -0.00432981  1
  O  O220  1  0.36987388  0.25353975  0.50759260  1
  O  O221  1  0.36594166  0.75605178  0.00493056  1
  O  O222  1  0.36696369  0.75533548  0.50754524  1
  O  O223  1  0.87534971  0.25570751  0.01080879  1
  O  O224  1  0.87308733  0.26208120  0.50264698  1
  O  O225  1  0.86357357  0.75887381  -0.00131883  1
  O  O226  1  0.86221538  0.76379695  0.49871333  1
  O  O227  1  0.14209277  0.24884086  0.50651265  1
  O  O228  1  0.13867391  0.25783287  0.98880674  1
  O  O229  1  0.13579611  0.73757329  0.51139382  1
  O  O230  1  0.13817261  0.73638358  0.99995330  1
  O  O231  1  0.62770253  0.24313992  0.49120671  1
  O  O232  1  0.62549210  0.24115269  0.99347806  1
  O  O233  1  0.63619482  0.75430019  0.49532559  1
  O  O234  1  0.62944748  0.74982465  0.99146258  1
  O  O235  1  0.49993860  0.23749219  0.13223470  1
  O  O236  1  0.49520724  0.24370123  0.63974973  1
  O  O237  1  0.49263518  0.74297690  0.12836365  1
  O  O238  1  0.48781338  0.74871219  0.63094835  1
  O  O239  1  0.99349227  0.24322543  0.12286813  1
  O  O240  1  1.00438606  0.23730829  0.61992319  1
  O  O241  1  1.00552100  0.74825877  0.12567951  1
  O  O242  1  0.99556259  0.74734474  0.63340930  1
  O  O243  1  -0.00485785  0.26547916  0.37836347  1
  O  O244  1  0.01594310  0.25127097  0.88423219  1
  O  O245  1  0.00295078  0.77578674  0.39275915  1
  O  O246  1  -0.00253831  0.76456933  0.86809435  1
  O  O247  1  0.50805005  0.25501394  0.36880208  1
  O  O248  1  0.51110311  0.24425507  0.86588624  1
  O  O249  1  0.50290453  0.75739319  0.37064903  1
  O  O250  1  0.49785468  0.74506814  0.86359918  1
  O  O251  1  0.25260867  0.13155486  0.49196927  1
  O  O252  1  0.25866596  0.13468738  0.99039383  1
  O  O253  1  0.24701300  0.63082066  0.49499223  1
  O  O254  1  0.23957319  0.62509152  0.99066619  1
  O  O255  1  0.73975203  0.12725830  0.50385674  1
  O  O256  1  0.73998363  0.12534650  1.00093990  1
  O  O257  1  0.74866779  0.63617737  0.49542963  1
  O  O258  1  0.74353176  0.63713794  0.99006218  1
  O  O259  1  0.25707874  0.37009034  0.00766477  1
  O  O260  1  0.25661451  0.36775580  0.50869224  1
  O  O261  1  0.24881135  0.85717234  -0.00478245  1
  O  O262  1  0.25566672  0.86809966  0.50737873  1
  O  O263  1  0.75725808  0.37310060  0.00668851  1
  O  O264  1  0.75775820  0.37616777  0.50863715  1
  O  O265  1  0.75782352  0.87127046  -0.00205215  1
  O  O266  1  0.75620559  0.87356027  0.50896037  1
  O  O267  1  0.13960233  0.49994315  0.25119760  1
  O  O268  1  0.12145746  0.49307332  0.73799875  1
  O  O269  1  0.13676085  1.00291280  0.24049908  1
  O  O270  1  0.13566494  1.00238932  0.73990661  1
  O  O271  1  0.62496734  0.49378282  0.24195512  1
  O  O272  1  0.62284967  0.48854095  0.75226689  1
  O  O273  1  0.62117191  0.99021434  0.24548810  1
  O  O274  1  0.64726132  1.01486149  0.73934868  1
  O  O275  1  0.36301858  0.00892761  0.24613112  1
  O  O276  1  0.36224445  0.00774580  0.74876539  1
  O  O277  1  0.37048646  0.50357081  0.25346617  1
  O  O278  1  0.38380689  0.50701146  0.75934350  1
  O  O279  1  0.88322771  0.00340723  0.26252467  1
  O  O280  1  0.86537810  0.01693603  0.74446230  1
  O  O281  1  0.87227508  0.50389174  0.26322244  1
  O  O282  1  0.87465070  0.51454794  0.75760627  1
  O  O283  1  0.10919830  0.38234668  0.38629590  1
  O  O284  1  0.12668761  0.36863909  0.86346268  1
  O  O285  1  0.12022213  0.88169343  0.38167780  1
  O  O286  1  0.11239777  0.87388348  0.87681438  1
  O  O287  1  0.61903482  0.36722913  0.36866530  1
  O  O288  1  0.63326126  0.36352927  0.86630325  1
  O  O289  1  0.61573055  0.87126044  0.37020265  1
  O  O290  1  0.61216297  0.90075602  0.86729747  1
  O  O291  1  0.38210839  0.12544383  0.13259610  1
  O  O292  1  0.37072796  0.13149469  0.64149046  1
  O  O293  1  0.38057480  0.62893396  0.12552097  1
  O  O294  1  0.37145878  0.63251158  0.63149061  1
  O  O295  1  0.88516418  0.13098678  0.13189943  1
  O  O296  1  0.88672714  0.12890832  0.63081572  1
  O  O297  1  0.86331138  0.63415375  0.12887911  1
  O  O298  1  0.87978783  0.62676759  0.63394344  1
  O  O299  1  0.25369507  0.25897677  0.11473143  1
  O  O300  1  0.25687792  0.25697158  0.61928704  1
  O  O301  1  0.26033500  0.73837815  0.10668555  1
  O  O302  1  0.25748879  0.75595317  0.61821147  1
  O  O303  1  0.76262052  0.25562817  0.12469920  1
  O  O304  1  0.75423803  0.26511617  0.62383680  1
  O  O305  1  0.74040122  0.75846705  0.10990601  1
  O  O306  1  0.75315267  0.76473461  0.61984847  1
  O  O307  1  0.25836390  0.24237218  0.38661850  1
  O  O308  1  0.24244288  0.24272644  0.88040531  1
  O  O309  1  0.24961388  0.74499783  0.38879860  1
  O  O310  1  0.25783068  0.73581124  0.88812340  1
  O  O311  1  0.73880603  0.25710734  0.37570574  1
  O  O312  1  0.73795987  0.24096625  0.87728678  1
  O  O313  1  0.74617390  0.74554229  0.38414209  1
  O  O314  1  0.74268474  0.74873360  0.87984488  1
  O  O315  1  -0.00500892  0.11272788  0.01157344  1
  O  O316  1  0.00123312  0.11672346  0.50796587  1
  O  O317  1  0.01443803  0.62005635  -0.01034687  1
  O  O318  1  0.00934980  0.62128580  0.50202358  1
  O  O319  1  0.50769163  0.12997574  0.01114445  1
  O  O320  1  0.51286522  0.12335229  0.50402768  1
  O  O321  1  0.50271692  0.61730451  0.00276371  1
  O  O322  1  0.49808128  0.61389549  0.49983499  1
  O  O323  1  0.49521269  0.37950598  0.49623830  1
  O  O324  1  0.49128862  0.38411856  1.00430893  1
  O  O325  1  0.49158788  0.87321761  0.49350344  1
  O  O326  1  0.48705586  0.87144780  0.99939650  1
  O  O327  1  0.99028711  0.37997719  0.49546762  1
  O  O328  1  0.99308217  0.38598887  0.99433934  1
  O  O329  1  0.99538768  0.88756610  0.49984564  1
  O  O330  1  0.99680612  0.88039679  0.98899349  1
  O  O331  1  0.49526835  0.49327550  0.38150549  1
  O  O332  1  0.48875455  0.50598263  0.88603779  1
  O  O333  1  0.49652939  0.98775451  0.37894639  1
  O  O334  1  0.54543369  0.94846767  0.86396290  1
  O  O335  1  0.98945441  0.48896564  0.38262522  1
  O  O336  1  0.98517347  0.50098364  0.87920127  1
  O  O337  1  1.00125275  0.99288826  0.38623848  1
  O  O338  1  1.00865039  0.99042422  0.88647257  1
  O  O339  1  0.01299831  0.00377361  0.12215751  1
  O  O340  1  0.00738091  0.00651366  0.61957993  1
  O  O341  1  -0.00667199  0.49870481  0.11170313  1
  O  O342  1  0.00868046  0.50845897  0.62026931  1
  O  O343  1  0.50922169  0.01197226  0.13263977  1
  O  O344  1  0.49635657  0.00246180  0.62174376  1
  O  O345  1  0.50385145  0.50486912  0.11352638  1
  O  O346  1  0.49881110  0.50042412  0.61321516  1
  O  O347  1  0.25882258  0.37981787  0.23323251  1
  O  O348  1  0.24262406  0.37070697  0.73720424  1
  O  O349  1  0.25382632  0.89191703  0.25651573  1
  O  O350  1  0.25825560  0.88078214  0.73986011  1
  O  O351  1  0.74420208  0.37856554  0.24200696  1
  O  O352  1  0.74162287  0.37712216  0.74423458  1
  O  O353  1  0.73530443  0.86522076  0.25335564  1
  O  O354  1  0.75975237  0.88737822  0.73737170  1
  O  O355  1  0.25909042  0.12219033  0.25596314  1
  O  O356  1  0.25658700  0.11751925  0.75829489  1
  O  O357  1  0.25670780  0.61258932  0.25168752  1
  O  O358  1  0.26140520  0.63052702  0.75666448  1
  O  O359  1  0.76870916  0.12764074  0.24476755  1
  O  O360  1  0.76309161  0.11715023  0.74933834  1
  O  O361  1  0.74795738  0.62693642  0.26619436  1
  O  O362  1  0.75666495  0.62976375  0.75672179  1
  O  O363  1  0.36932938  0.12293188  0.36520404  1
  O  O364  1  0.36326424  0.12926689  0.86498330  1
  O  O365  1  0.36795072  0.61864159  0.36735959  1
  O  O366  1  0.36576548  0.61572016  0.86849510  1
  O  O367  1  0.88420013  0.11067282  0.36878003  1
  O  O368  1  0.87875152  0.12746815  0.86468319  1
  O  O369  1  0.86172791  0.61174781  0.38697308  1
  O  O370  1  0.86573519  0.62339483  0.86911935  1
  O  O371  1  0.14047145  0.37377885  0.11695896  1
  O  O372  1  0.13134368  0.38163113  0.63008392  1
  O  O373  1  0.12610183  0.88661631  0.12657453  1
  O  O374  1  0.13653386  0.88402694  0.61849779  1
  O  O375  1  0.62931622  0.37860666  0.12853394  1
  O  O376  1  0.63159724  0.37392377  0.63631701  1
  O  O377  1  0.62084241  0.88451953  0.13576839  1
  O  O378  1  0.63902426  0.87667679  0.62249941  1
  O  O379  1  0.13041910  0.25470121  0.25494435  1
  O  O380  1  0.13025975  0.25911394  0.75767271  1
  O  O381  1  0.13021351  0.73687319  0.25742974  1
  O  O382  1  0.11318614  0.74846390  0.74444291  1
  O  O383  1  0.62104421  0.25375044  0.25601448  1
  O  O384  1  0.61989117  0.25302893  0.75817275  1
  O  O385  1  0.61557783  0.75763492  0.25515097  1
  O  O386  1  0.60682343  0.75054212  0.75343492  1
  O  O387  1  0.38066177  0.23936623  0.24800020  1
  O  O388  1  0.38295979  0.24357292  0.74989995  1
  O  O389  1  0.37985139  0.73811439  0.23660603  1
  O  O390  1  0.37884543  0.74000193  0.74282820  1
  O  O391  1  0.88293913  0.24371659  0.24121249  1
  O  O392  1  0.87082386  0.23309152  0.74878118  1
  O  O393  1  0.88862345  0.75021257  0.24769111  1
  O  O394  1  0.88152852  0.74183383  0.75122096  1
  O  O395  1  0.38180292  0.49286887  0.49287113  1
  O  O396  1  0.38098268  0.49350927  0.99202583  1
  O  O397  1  0.36932551  0.98633596  0.49961176  1
  O  O398  1  0.36489383  0.97865127  1.00853927  1
  O  O399  1  0.87899598  0.49113945  0.49522044  1
  O  O400  1  0.88036843  0.49791221  0.99180091  1
  O  O401  1  0.88424345  0.99706021  0.49082261  1
  O  O402  1  0.88901350  0.99184663  1.00960984  1
  O  O403  1  0.11813511  -0.00331760  0.01526351  1
  O  O404  1  0.11961991  0.00550296  0.51338781  1
  O  O405  1  0.11513026  0.50914398  -0.00888710  1
  O  O406  1  0.12243260  0.50687784  0.51289839  1
  O  O407  1  0.62574425  0.01126434  0.01269274  1
  O  O408  1  0.62685148  0.01614039  0.49276223  1
  O  O409  1  0.61683571  0.50523320  0.00179017  1
  O  O410  1  0.61210927  0.49865589  0.50011686  1
  O  O411  1  0.36886748  0.37155274  0.11048515  1
  O  O412  1  0.36848897  0.36913530  0.62253282  1
  O  O413  1  0.37761296  0.86059837  0.11851155  1
  O  O414  1  0.36504861  0.86533871  0.61719553  1
  O  O415  1  0.87247040  0.36766832  0.12194445  1
  O  O416  1  0.86985224  0.37660774  0.61894060  1
  O  O417  1  0.87708810  0.87130449  0.11224212  1
  O  O418  1  0.87256125  0.87855411  0.61260608  1
  O  O419  1  0.13765606  0.11969083  0.37723314  1
  O  O420  1  0.13715151  0.13508506  0.86742331  1
  O  O421  1  0.13330517  0.61176815  0.39233883  1
  O  O422  1  0.13731303  0.61857453  0.87579568  1
  O  O423  1  0.62105040  0.13631645  0.38415964  1
  O  O424  1  0.62335471  0.12876596  0.88625636  1
  O  O425  1  0.63278546  0.63161306  0.38028388  1
  O  O426  1  0.63571801  0.62242016  0.87784404  1
