# generated using pymatgen
data_V85Zn86O256
_symmetry_space_group_name_H-M   'P 1'
_cell_length_a   16.94332191
_cell_length_b   16.95662377
_cell_length_c   16.93840368
_cell_angle_alpha   89.88373849
_cell_angle_beta   89.98676518
_cell_angle_gamma   89.95518282
_symmetry_Int_Tables_number   1
_chemical_formula_structural   V85Zn86O256
_chemical_formula_sum   'V85 Zn86 O256'
_cell_volume   4866.41774043
_cell_formula_units_Z   1
loop_
 _symmetry_equiv_pos_site_id
 _symmetry_equiv_pos_as_xyz
  1  'x, y, z'
loop_
 _atom_site_type_symbol
 _atom_site_label
 _atom_site_symmetry_multiplicity
 _atom_site_fract_x
 _atom_site_fract_y
 _atom_site_fract_z
 _atom_site_occupancy
  V  V0  1  0.25522348  0.62474299  0.35696592  1
  V  V1  1  0.25033393  0.87329928  0.62716558  1
  V  V2  1  0.87029192  0.37650959  0.00162830  1
  V  V3  1  0.12630014  0.62604697  0.49962578  1
  V  V4  1  0.73976512  0.00965311  0.24257059  1
  V  V5  1  0.24826657  0.87282746  0.12363944  1
  V  V6  1  0.00276466  0.25727756  0.25024827  1
  V  V7  1  0.75067190  0.74671676  0.00292887  1
  V  V8  1  0.87399145  0.75022882  0.63126829  1
  V  V9  1  0.12725849  0.25194899  0.37543528  1
  V  V10  1  0.13085676  0.49962344  0.62490254  1
  V  V11  1  0.62581764  0.86816253  0.75489952  1
  V  V12  1  0.62659264  0.12132996  0.00132424  1
  V  V13  1  0.49892475  0.49408275  0.49365093  1
  V  V14  1  0.48945696  0.75912497  0.24710880  1
  V  V15  1  0.75314505  0.87987067  0.62362308  1
  V  V16  1  0.62755173  0.62661661  0.48907886  1
  V  V17  1  0.63245714  0.48930342  0.12146985  1
  V  V18  1  0.24952219  0.12681951  0.37547764  1
  V  V19  1  0.62426966  0.12927664  0.50254862  1
  V  V20  1  0.00444325  0.12081213  0.12691558  1
  V  V21  1  0.24483075  0.00112252  0.24543831  1
  V  V22  1  0.12564215  0.74738342  0.87024824  1
  V  V23  1  0.75281332  0.37747832  0.62534332  1
  V  V24  1  0.50006989  -0.00232341  0.00038164  1
  V  V25  1  0.88106009  0.25144312  0.62588569  1
  V  V26  1  0.37632369  0.13500192  0.74649642  1
  V  V27  1  0.12142101  0.75173718  0.36902230  1
  V  V28  1  0.00438763  0.38090535  0.37167501  1
  V  V29  1  0.00192807  -0.00345789  0.00433604  1
  V  V30  1  0.25315776  0.75024590  0.49850444  1
  V  V31  1  0.62372889  0.62876700  -0.00508869  1
  V  V32  1  0.86795718  -0.00129923  0.87100338  1
  V  V33  1  0.87274658  0.86737960  0.00964097  1
  V  V34  1  0.12466529  0.11939743  0.00347292  1
  V  V35  1  0.75268077  0.49635245  0.25059617  1
  V  V36  1  0.37880382  -0.00564167  0.37611325  1
  V  V37  1  0.13087167  0.37546023  0.74859323  1
  V  V38  1  0.75274681  0.75205655  0.50042643  1
  V  V39  1  -0.00614558  0.88015908  0.37860152  1
  V  V40  1  0.49922442  0.37180659  0.86548602  1
  V  V41  1  0.12333569  -0.00739950  0.62720384  1
  V  V42  1  0.24254949  0.37703526  0.13658955  1
  V  V43  1  0.86964253  0.51063820  0.37335225  1
  V  V44  1  0.37762368  0.75032176  0.62567028  1
  V  V45  1  0.87928226  0.37646232  0.49935303  1
  V  V46  1  0.75156928  0.62873887  0.86793476  1
  V  V47  1  0.00781760  0.50011196  0.00670056  1
  V  V48  1  0.24961547  0.12117641  0.87640992  1
  V  V49  1  0.37547571  -0.00379909  0.87471443  1
  V  V50  1  0.24706480  -0.00752156  0.75094547  1
  V  V51  1  -0.00006423  0.50193281  0.49933098  1
  V  V52  1  0.50253742  0.25647127  0.25636212  1
  V  V53  1  0.87544054  0.50276718  0.86860005  1
  V  V54  1  0.49270180  0.62584559  0.13197410  1
  V  V55  1  0.62283737  0.76568709  0.36615537  1
  V  V56  1  0.12299537  0.24653149  0.87672315  1
  V  V57  1  0.87636221  0.12243413  0.25631225  1
  V  V58  1  0.49989094  -0.00329409  0.49918738  1
  V  V59  1  0.24984767  0.24695368  0.00111023  1
  V  V60  1  0.36932012  0.50270589  0.87442721  1
  V  V61  1  0.36976095  0.62385233  0.75342731  1
  V  V62  1  0.50067878  0.62762324  0.62407471  1
  V  V63  1  -0.01492717  -0.00308663  0.49865717  1
  V  V64  1  0.75289090  0.25193260  0.50034072  1
  V  V65  1  0.62660517  0.00312756  0.63383185  1
  V  V66  1  0.25184225  0.74000797  -0.00078989  1
  V  V67  1  0.12708788  0.12089363  0.49897218  1
  V  V68  1  -0.00493632  0.62743901  0.63360803  1
  V  V69  1  0.74881900  0.25148140  -0.00033896  1
  V  V70  1  -0.00089344  0.37306052  0.87504380  1
  V  V71  1  0.12040366  0.87724553  0.24537771  1
  V  V72  1  0.49548297  0.13910701  0.62905437  1
  V  V73  1  0.37516346  0.37300766  -0.00075623  1
  V  V74  1  0.37644705  0.50106625  0.36063666  1
  V  V75  1  0.50084117  0.12521930  0.12495814  1
  V  V76  1  0.00035842  0.12206622  0.62583048  1
  V  V77  1  0.87135439  0.25461185  0.12512722  1
  V  V78  1  0.37591286  0.12450716  0.25070545  1
  V  V79  1  0.61999532  0.25006984  0.86841745  1
  V  V80  1  0.62673572  0.50104385  0.62634969  1
  V  V81  1  0.35997810  0.37926563  0.50703835  1
  V  V82  1  0.75332567  0.12498165  0.37906491  1
  V  V83  1  -0.00031715  0.24580464  0.75091342  1
  V  V84  1  0.37582808  0.87138592  0.00485445  1
  Zn  Zn85  1  0.61922072  -0.02523693  0.13406859  1
  Zn  Zn86  1  0.13850582  0.50382803  0.16701823  1
  Zn  Zn87  1  -0.09256903  0.71894858  0.18369359  1
  Zn  Zn88  1  0.74406397  0.11951230  0.86523328  1
  Zn  Zn89  1  0.27232874  0.23994511  0.52952473  1
  Zn  Zn90  1  0.50052797  0.50098069  0.00014170  1
  Zn  Zn91  1  0.62715898  0.37513547  0.25852351  1
  Zn  Zn92  1  0.24996193  0.49935048  0.74940537  1
  Zn  Zn93  1  0.00181873  0.75406354  0.75114377  1
  Zn  Zn94  1  0.00941313  0.62566721  0.13528850  1
  Zn  Zn95  1  0.37416249  0.25199168  0.12827421  1
  Zn  Zn96  1  0.00406027  0.87681286  0.86473641  1
  Zn  Zn97  1  0.50716265  0.86757367  0.88011755  1
  Zn  Zn98  1  0.75155130  0.83765811  0.16136748  1
  Zn  Zn99  1  0.50256935  0.74648315  0.76236679  1
  Zn  Zn100  1  0.38319898  0.87068307  0.49567641  1
  Zn  Zn101  1  0.86974151  0.11925503  0.74860502  1
  Zn  Zn102  1  0.62297068  0.25991768  0.38116490  1
  Zn  Zn103  1  0.13413316  0.61682544  0.00205465  1
  Zn  Zn104  1  0.80285858  0.67258743  0.31313909  1
  Zn  Zn105  1  0.62316319  0.37056346  0.74526058  1
  Zn  Zn106  1  0.75579157  0.50165812  0.74748184  1
  Zn  Zn107  1  0.18735018  0.19180797  0.18886095  1
  Zn  Zn108  1  0.18916482  0.18084063  0.69151233  1
  Zn  Zn109  1  0.17973580  0.69055288  0.18031241  1
  Zn  Zn110  1  0.18735452  0.68513073  0.68671555  1
  Zn  Zn111  1  0.68659187  0.18876543  0.18653481  1
  Zn  Zn112  1  0.69208387  0.18639507  0.68691158  1
  Zn  Zn113  1  0.67896738  0.67644951  0.18544134  1
  Zn  Zn114  1  0.68792153  0.68870768  0.68554090  1
  Zn  Zn115  1  0.31837211  0.31428523  0.31957818  1
  Zn  Zn116  1  0.31020072  0.31254349  0.81475015  1
  Zn  Zn117  1  0.31112600  0.81334235  0.30923480  1
  Zn  Zn118  1  0.31464874  0.80784716  0.81644629  1
  Zn  Zn119  1  0.81260448  0.31725197  0.31303826  1
  Zn  Zn120  1  0.80917446  0.31208438  0.81125451  1
  Zn  Zn121  1  0.80232263  0.83592602  0.33029355  1
  Zn  Zn122  1  0.81156440  0.81780518  0.81344394  1
  Zn  Zn123  1  0.18542643  0.44488456  0.42365397  1
  Zn  Zn124  1  0.19058886  0.43189345  0.93667699  1
  Zn  Zn125  1  0.18686914  0.93742560  0.43620212  1
  Zn  Zn126  1  0.18469549  0.93236989  0.93724740  1
  Zn  Zn127  1  0.68781038  0.43565861  0.43576836  1
  Zn  Zn128  1  0.68778492  0.43840897  0.93519413  1
  Zn  Zn129  1  0.68711267  0.94268334  0.44038506  1
  Zn  Zn130  1  0.68843207  0.93421692  0.94361851  1
  Zn  Zn131  1  0.31424811  0.05961151  0.06441534  1
  Zn  Zn132  1  0.31446538  0.06071677  0.56355924  1
  Zn  Zn133  1  0.31458477  0.55551028  0.06768912  1
  Zn  Zn134  1  0.31477118  0.56344183  0.55911151  1
  Zn  Zn135  1  0.81659112  0.06431723  0.06081905  1
  Zn  Zn136  1  0.81128652  0.06501948  0.56674329  1
  Zn  Zn137  1  0.81533604  0.57068414  0.06601706  1
  Zn  Zn138  1  0.81281134  0.56684287  0.55934276  1
  Zn  Zn139  1  0.43849728  0.43841992  0.18086001  1
  Zn  Zn140  1  0.43607279  0.43738672  0.68450038  1
  Zn  Zn141  1  0.43538419  0.93742755  0.18744708  1
  Zn  Zn142  1  0.44019971  0.94072638  0.68686634  1
  Zn  Zn143  1  0.93397666  0.44591462  0.18677280  1
  Zn  Zn144  1  0.94503940  0.43679417  0.68715932  1
  Zn  Zn145  1  0.93242106  0.93560225  0.18950360  1
  Zn  Zn146  1  0.93837006  0.92983158  0.68864390  1
  Zn  Zn147  1  0.06139749  0.06211469  0.31338905  1
  Zn  Zn148  1  0.05934767  0.05794001  0.81478828  1
  Zn  Zn149  1  0.05013391  0.57381840  0.30177765  1
  Zn  Zn150  1  0.06630721  0.56542243  0.81843180  1
  Zn  Zn151  1  0.56294063  0.07046840  0.31898315  1
  Zn  Zn152  1  0.55812223  0.06169610  0.81311599  1
  Zn  Zn153  1  0.56445162  0.56074632  0.30741747  1
  Zn  Zn154  1  0.55915609  0.56030259  0.81397232  1
  Zn  Zn155  1  0.43622939  0.18750659  0.43985473  1
  Zn  Zn156  1  0.43664564  0.18591949  0.93487876  1
  Zn  Zn157  1  0.44130212  0.68594936  0.43093040  1
  Zn  Zn158  1  0.43913198  0.68862292  0.93964214  1
  Zn  Zn159  1  0.94185171  0.18797153  0.43947203  1
  Zn  Zn160  1  0.93639146  0.18359778  0.93802220  1
  Zn  Zn161  1  0.94016250  0.69244744  0.44362508  1
  Zn  Zn162  1  0.94063474  0.68622218  0.94079456  1
  Zn  Zn163  1  0.06229869  0.31287400  0.06355933  1
  Zn  Zn164  1  0.09939629  0.29535397  0.57926568  1
  Zn  Zn165  1  0.06352900  0.80846588  0.06270186  1
  Zn  Zn166  1  0.06212761  0.81204958  0.56000699  1
  Zn  Zn167  1  0.55865182  0.30886753  0.05895949  1
  Zn  Zn168  1  0.56157367  0.31713441  0.55848848  1
  Zn  Zn169  1  0.56862426  0.80914833  0.06739538  1
  Zn  Zn170  1  0.56830829  0.81370938  0.56307736  1
  O  O171  1  0.11154435  0.13124864  0.12187868  1
  O  O172  1  0.11903510  0.10926650  0.62024767  1
  O  O173  1  0.12571183  0.61142946  0.11974388  1
  O  O174  1  0.11686119  0.62046801  0.61925153  1
  O  O175  1  0.61520016  0.13003968  0.11250175  1
  O  O176  1  0.61806839  0.12017394  0.62236651  1
  O  O177  1  0.61669664  0.61231538  0.11216370  1
  O  O178  1  0.61766314  0.62022686  0.61673973  1
  O  O179  1  0.36956437  0.39682880  0.38273159  1
  O  O180  1  0.38065587  0.37940495  0.87934949  1
  O  O181  1  0.36878119  0.89018076  0.37608442  1
  O  O182  1  0.37273151  0.88100265  0.88803181  1
  O  O183  1  0.88515148  0.38246294  0.38101394  1
  O  O184  1  0.87856356  0.37999659  0.88359978  1
  O  O185  1  0.89539693  0.87465165  0.37743397  1
  O  O186  1  0.87822920  0.88455414  0.88555885  1
  O  O187  1  0.25683130  0.00623186  0.36681123  1
  O  O188  1  0.25222926  0.00143136  0.86841580  1
  O  O189  1  0.26024266  0.51785609  0.37457348  1
  O  O190  1  0.26483160  0.49429903  0.87348421  1
  O  O191  1  0.74406483  0.01893934  0.36949986  1
  O  O192  1  0.76488373  -0.00055030  0.88414177  1
  O  O193  1  0.76189555  0.49683002  0.37018311  1
  O  O194  1  0.75890932  0.50687638  0.87320649  1
  O  O195  1  0.24707143  0.48232903  0.12077697  1
  O  O196  1  0.23404051  0.50877501  0.62442995  1
  O  O197  1  0.25333261  0.99211377  0.13739101  1
  O  O198  1  0.24409941  0.99189352  0.63085058  1
  O  O199  1  0.73715084  0.50216938  0.12839871  1
  O  O200  1  0.74298204  0.49793038  0.62378914  1
  O  O201  1  0.74550833  1.01740303  0.13952578  1
  O  O202  1  0.73744306  0.99224073  0.61534334  1
  O  O203  1  -0.01027646  0.36519383  0.25807122  1
  O  O204  1  0.00931754  0.36729992  0.75727748  1
  O  O205  1  0.00889175  0.88647023  0.26328066  1
  O  O206  1  0.00576921  0.86746036  0.75046818  1
  O  O207  1  0.49688034  0.35759589  0.24187832  1
  O  O208  1  0.50068511  0.37752512  0.76053600  1
  O  O209  1  0.50301948  0.85867290  0.23551221  1
  O  O210  1  0.51402844  0.87452851  0.74778786  1
  O  O211  1  0.49666205  0.13128375  0.24111799  1
  O  O212  1  0.48774625  0.11851014  0.74153916  1
  O  O213  1  0.50832730  0.63333601  0.23670300  1
  O  O214  1  0.49387391  0.62414966  0.73813245  1
  O  O215  1  0.99404914  0.13280895  0.24644413  1
  O  O216  1  0.99748796  0.12798717  0.74419830  1
  O  O217  1  0.99541446  0.65389881  0.25191236  1
  O  O218  1  1.00761048  0.63119193  0.73668183  1
  O  O219  1  0.36898361  0.25708846  -0.00141507  1
  O  O220  1  0.37321692  0.27155681  0.48783171  1
  O  O221  1  0.36196550  0.76029665  -0.00406062  1
  O  O222  1  0.36959890  0.75007982  0.50359884  1
  O  O223  1  0.86927490  0.25543041  0.00487145  1
  O  O224  1  0.87439988  0.25631795  0.50663828  1
  O  O225  1  0.86976670  0.76213967  -0.00545888  1
  O  O226  1  0.86062637  0.74812629  0.50840723  1
  O  O227  1  0.11474202  0.23720429  0.48206511  1
  O  O228  1  0.12855662  0.24075393  0.99544836  1
  O  O229  1  0.13569459  0.74735550  0.49142240  1
  O  O230  1  0.14075261  0.74571547  0.99766809  1
  O  O231  1  0.63455664  0.24561291  0.50375565  1
  O  O232  1  0.63144929  0.24283562  0.99373882  1
  O  O233  1  0.62736405  0.74482999  0.48886748  1
  O  O234  1  0.63381933  0.73634155  0.99788988  1
  O  O235  1  0.49638519  0.23954327  0.13145274  1
  O  O236  1  0.50459955  0.23837346  0.62110457  1
  O  O237  1  0.50670104  0.73641802  0.13508355  1
  O  O238  1  0.49663550  0.73924383  0.62116784  1
  O  O239  1  0.99296175  0.24374057  0.13228591  1
  O  O240  1  1.00155085  0.24163901  0.63049584  1
  O  O241  1  0.98982410  0.74035695  0.10814529  1
  O  O242  1  0.99116735  0.74427011  0.62014408  1
  O  O243  1  0.00391125  0.25905209  0.36733177  1
  O  O244  1  0.00365433  0.25228242  0.87250627  1
  O  O245  1  0.01336092  0.76544071  0.38690158  1
  O  O246  1  0.01209466  0.74839540  0.87546468  1
  O  O247  1  0.50157989  0.24075863  0.35896606  1
  O  O248  1  0.50920349  0.25886907  0.88223558  1
  O  O249  1  0.51285339  0.74600159  0.36094114  1
  O  O250  1  0.49976072  0.75537208  0.87495738  1
  O  O251  1  0.24613933  0.12632479  0.49434537  1
  O  O252  1  0.24540041  0.12544892  0.99687691  1
  O  O253  1  0.24636711  0.63821252  0.49783883  1
  O  O254  1  0.25842838  0.63841641  1.00802011  1
  O  O255  1  0.74660257  0.13178620  0.49633598  1
  O  O256  1  0.74150706  0.13265919  0.99687771  1
  O  O257  1  0.73714643  0.63907735  0.50842224  1
  O  O258  1  0.74424274  0.62762892  0.98977352  1
  O  O259  1  0.25888264  0.36587763  0.00346469  1
  O  O260  1  0.25862902  0.38253589  0.49416576  1
  O  O261  1  0.25620151  0.87265325  0.00870143  1
  O  O262  1  0.25244109  0.86413936  0.50614541  1
  O  O263  1  0.76007616  0.36510247  -0.00452018  1
  O  O264  1  0.75971702  0.37162246  0.50602848  1
  O  O265  1  0.76270639  0.86153151  -0.00761848  1
  O  O266  1  0.73811598  0.86420463  0.51087433  1
  O  O267  1  0.11754698  0.49218963  0.27465567  1
  O  O268  1  0.12540542  0.49379785  0.74526022  1
  O  O269  1  0.13631195  0.99223361  0.25657364  1
  O  O270  1  0.13582860  1.00418742  0.74031791  1
  O  O271  1  0.62767463  0.49458422  0.23591314  1
  O  O272  1  0.62363074  0.50059320  0.73360559  1
  O  O273  1  0.63523412  1.01721923  0.24687721  1
  O  O274  1  0.61986138  0.99396024  0.73853524  1
  O  O275  1  0.36809079  0.00430485  0.25735813  1
  O  O276  1  0.36440560  0.00419196  0.75480819  1
  O  O277  1  0.38298310  0.49901638  0.26185097  1
  O  O278  1  0.37388785  0.50582842  0.75580701  1
  O  O279  1  0.86626586  0.01882105  0.24399367  1
  O  O280  1  0.88136792  -0.00368884  0.76818831  1
  O  O281  1  0.86707783  0.49681792  0.26224923  1
  O  O282  1  0.87859329  0.49451907  0.76385734  1
  O  O283  1  0.11305058  0.36549652  0.38149646  1
  O  O284  1  0.11915528  0.36676290  0.86880424  1
  O  O285  1  0.12330249  0.86881001  0.36583854  1
  O  O286  1  0.11985356  0.85555208  0.88661806  1
  O  O287  1  0.62057024  0.37291400  0.37385950  1
  O  O288  1  0.61613622  0.36824427  0.87517911  1
  O  O289  1  0.62717317  0.86453377  0.37629923  1
  O  O290  1  0.62933522  0.88295368  0.85782297  1
  O  O291  1  0.38565485  0.12459338  0.13024167  1
  O  O292  1  0.38169827  0.12182368  0.63283714  1
  O  O293  1  0.39405933  0.61586601  0.12268949  1
  O  O294  1  0.38382543  0.62818281  0.63022731  1
  O  O295  1  0.88518604  0.13705727  0.13088374  1
  O  O296  1  0.88381556  0.13266238  0.62544772  1
  O  O297  1  0.89011759  0.61126649  0.13491834  1
  O  O298  1  0.88504869  0.63411823  0.61936957  1
  O  O299  1  0.25377826  0.25685551  0.11899391  1
  O  O300  1  0.20614985  0.25844670  0.61472585  1
  O  O301  1  0.24629563  0.76274713  0.11341944  1
  O  O302  1  0.25492161  0.75573913  0.61794757  1
  O  O303  1  0.76082811  0.24256021  0.11366879  1
  O  O304  1  0.75953318  0.25757751  0.61911765  1
  O  O305  1  0.74915391  0.73206782  0.10631443  1
  O  O306  1  0.75427071  0.75765952  0.61905896  1
  O  O307  1  0.23853431  0.24436697  0.37007777  1
  O  O308  1  0.24287481  0.24060526  0.88155341  1
  O  O309  1  0.24636777  0.74372609  0.38067994  1
  O  O310  1  0.24209036  0.75397268  0.89028830  1
  O  O311  1  0.75241800  0.24242271  0.38242774  1
  O  O312  1  0.74146660  0.24868169  0.88637133  1
  O  O313  1  0.73924001  0.75169922  0.38489003  1
  O  O314  1  0.75699519  0.73399951  0.88122690  1
  O  O315  1  0.00308166  0.11776300  0.00936478  1
  O  O316  1  0.00636691  0.11427412  0.50427672  1
  O  O317  1  -0.00265296  0.60264629  -0.00091767  1
  O  O318  1  0.00804919  0.62106034  0.50687823  1
  O  O319  1  0.50528785  0.11964131  0.00661816  1
  O  O320  1  0.50288080  0.11951953  0.50902809  1
  O  O321  1  0.50775009  0.62438002  0.00923441  1
  O  O322  1  0.50604038  0.61848374  0.50713076  1
  O  O323  1  0.49129109  0.38993617  0.50155308  1
  O  O324  1  0.48806140  0.37480536  0.99182079  1
  O  O325  1  0.50131616  0.89174797  0.50808262  1
  O  O326  1  0.49189708  0.87885215  1.00657330  1
  O  O327  1  0.99569183  0.38438033  0.48778822  1
  O  O328  1  0.99113289  0.37868838  0.99412258  1
  O  O329  1  1.00960736  0.88499815  0.48818297  1
  O  O330  1  0.98676422  0.88251938  1.00523178  1
  O  O331  1  0.48553002  0.51532719  0.38278976  1
  O  O332  1  0.49151092  0.48902101  0.87844322  1
  O  O333  1  0.49053145  1.01043623  0.38578368  1
  O  O334  1  0.49345098  0.99339501  0.88334270  1
  O  O335  1  0.98895186  0.49709128  0.38020736  1
  O  O336  1  0.99268262  0.49335112  0.88257445  1
  O  O337  1  1.00771570  0.98974140  0.38509835  1
  O  O338  1  0.99109400  0.99812933  0.88880931  1
  O  O339  1  -0.00962909  0.01144724  0.11835983  1
  O  O340  1  0.00650047  -0.00026890  0.61824620  1
  O  O341  1  0.00952436  0.48705812  0.11067666  1
  O  O342  1  0.00578653  0.51077476  0.61952007  1
  O  O343  1  0.50370997  0.00901598  0.12150663  1
  O  O344  1  0.50775658  0.01050315  0.61733798  1
  O  O345  1  0.51160496  0.50904199  0.12356951  1
  O  O346  1  0.50706716  0.50884627  0.61537690  1
  O  O347  1  0.25904062  0.36710849  0.23456587  1
  O  O348  1  0.23435836  0.37561220  0.75486941  1
  O  O349  1  0.24381461  0.88166487  0.24263446  1
  O  O350  1  0.25687140  0.88254383  0.74103392  1
  O  O351  1  0.74803879  0.38784387  0.24915763  1
  O  O352  1  0.74580598  0.37960399  0.74072682  1
  O  O353  1  0.75343822  0.90818216  0.25687279  1
  O  O354  1  0.73714635  0.87193151  0.73823541  1
  O  O355  1  0.25411023  0.11823314  0.25280647  1
  O  O356  1  0.25592369  0.11241806  0.75545579  1
  O  O357  1  0.24958449  0.63523509  0.25928805  1
  O  O358  1  0.26639126  0.62224432  0.74406643  1
  O  O359  1  0.75695207  0.12648636  0.25903675  1
  O  O360  1  0.75666381  0.12510551  0.75292990  1
  O  O361  1  0.73736001  0.60320187  0.25222970  1
  O  O362  1  0.74369650  0.62326557  0.76383954  1
  O  O363  1  0.36818052  0.11690046  0.37057872  1
  O  O364  1  0.36950320  0.11621019  0.86876229  1
  O  O365  1  0.36203931  0.62022950  0.37663644  1
  O  O366  1  0.38580372  0.61354163  0.86496407  1
  O  O367  1  0.86863773  0.13327733  0.36670823  1
  O  O368  1  0.87406480  0.10931200  0.87821769  1
  O  O369  1  0.87613726  0.61726759  0.38212705  1
  O  O370  1  0.86219240  0.61442058  0.88335653  1
  O  O371  1  0.13978425  0.37047994  0.12441713  1
  O  O372  1  0.11028791  0.39176436  0.63773950  1
  O  O373  1  0.13229266  0.87294968  0.13567058  1
  O  O374  1  0.13804453  0.88150308  0.61898834  1
  O  O375  1  0.61923343  0.38813327  0.11821889  1
  O  O376  1  0.63114420  0.38614092  0.62193632  1
  O  O377  1  0.64963830  0.86975785  0.11563435  1
  O  O378  1  0.63130943  0.88418872  0.63277760  1
  O  O379  1  0.11161894  0.24427072  0.26091363  1
  O  O380  1  0.11824266  0.25413563  0.75833768  1
  O  O381  1  0.13277673  0.76378287  0.25992095  1
  O  O382  1  0.13336718  0.74534428  0.76704059  1
  O  O383  1  0.61195366  0.25140367  0.24708920  1
  O  O384  1  0.62971000  0.24989668  0.76515251  1
  O  O385  1  0.62893150  0.74833323  0.26376828  1
  O  O386  1  0.62188795  0.76423168  0.74274656  1
  O  O387  1  0.38598424  0.24252295  0.25144653  1
  O  O388  1  0.36537910  0.23419942  0.75429285  1
  O  O389  1  0.39021006  0.75115577  0.25633712  1
  O  O390  1  0.37735084  0.74132446  0.74338656  1
  O  O391  1  0.88148901  0.24430491  0.24311851  1
  O  O392  1  0.88460742  0.25258812  0.74357052  1
  O  O393  1  0.82418266  0.76331654  0.24291651  1
  O  O394  1  0.87210083  0.75271355  0.73472801  1
  O  O395  1  0.38101586  0.49608087  0.49292893  1
  O  O396  1  0.37603990  0.48931469  0.99148337  1
  O  O397  1  0.38234588  0.99932598  0.49277918  1
  O  O398  1  0.37959262  0.99222321  0.99525258  1
  O  O399  1  0.87943736  0.49686018  0.49331106  1
  O  O400  1  0.88263281  0.48913115  0.99394837  1
  O  O401  1  0.88585666  1.00192989  0.50446215  1
  O  O402  1  0.88100470  0.99053013  0.99522849  1
  O  O403  1  0.11173520  0.00373275  -0.00358910  1
  O  O404  1  0.12314690  0.00323062  0.51023888  1
  O  O405  1  0.11110750  0.49520102  -0.01057828  1
  O  O406  1  0.12002621  0.50591898  0.50478954  1
  O  O407  1  0.62033408  0.00894930  0.00141556  1
  O  O408  1  0.61716513  0.00962584  0.50739940  1
  O  O409  1  0.62536288  0.50565904  0.00860333  1
  O  O410  1  0.61944552  0.50768751  0.50649881  1
  O  O411  1  0.36752737  0.37428430  0.11270887  1
  O  O412  1  0.37095781  0.38550712  0.60765854  1
  O  O413  1  0.36369859  0.88018117  0.11449261  1
  O  O414  1  0.36540374  0.87063911  0.62192049  1
  O  O415  1  0.88178305  0.36368766  0.11510467  1
  O  O416  1  0.87487631  0.37194001  0.61884820  1
  O  O417  1  0.86298740  0.87929604  0.11353501  1
  O  O418  1  0.86118556  0.86900332  0.62576744  1
  O  O419  1  0.13003182  0.13020256  0.37841110  1
  O  O420  1  0.13005703  0.12649064  0.88182427  1
  O  O421  1  0.13881111  0.63630159  0.37985056  1
  O  O422  1  0.12409757  0.63830430  0.88592063  1
  O  O423  1  0.63430177  0.13513204  0.38512461  1
  O  O424  1  0.62079124  0.13116849  0.88593885  1
  O  O425  1  0.62112317  0.62824515  0.38636518  1
  O  O426  1  0.63836622  0.61134711  0.88409317  1
