# generated using pymatgen
data_V85Zn86O256
_symmetry_space_group_name_H-M   'P 1'
_cell_length_a   16.96506838
_cell_length_b   16.97372689
_cell_length_c   16.96647318
_cell_angle_alpha   89.93866563
_cell_angle_beta   89.97465478
_cell_angle_gamma   89.95584356
_symmetry_Int_Tables_number   1
_chemical_formula_structural   V85Zn86O256
_chemical_formula_sum   'V85 Zn86 O256'
_cell_volume   4885.66831105
_cell_formula_units_Z   1
loop_
 _symmetry_equiv_pos_site_id
 _symmetry_equiv_pos_as_xyz
  1  'x, y, z'
loop_
 _atom_site_type_symbol
 _atom_site_label
 _atom_site_symmetry_multiplicity
 _atom_site_fract_x
 _atom_site_fract_y
 _atom_site_fract_z
 _atom_site_occupancy
  V  V0  1  0.74928690  0.62061222  0.86739561  1
  V  V1  1  -0.01659474  0.62665120  0.12716949  1
  V  V2  1  0.12615436  0.62785190  0.00255914  1
  V  V3  1  0.62358159  0.49619171  0.12275344  1
  V  V4  1  0.00112375  0.12623596  0.62502291  1
  V  V5  1  0.50049134  0.74547429  0.24866684  1
  V  V6  1  0.49903629  0.87571994  0.37677698  1
  V  V7  1  0.62437003  0.36935104  0.26242527  1
  V  V8  1  0.00078430  0.50157893  -0.00042837  1
  V  V9  1  0.25194022  0.49783020  0.24926249  1
  V  V10  1  0.25411294  0.86938633  0.62798444  1
  V  V11  1  0.12537459  0.50971222  0.61917506  1
  V  V12  1  0.74097670  0.13030649  0.38216197  1
  V  V13  1  0.63632061  0.49795845  0.63104525  1
  V  V14  1  0.75602834  0.75065144  0.50367808  1
  V  V15  1  0.62605521  0.12366989  0.00699194  1
  V  V16  1  0.00591974  0.37589440  0.87491190  1
  V  V17  1  0.12974120  0.49732444  0.12579301  1
  V  V18  1  0.36998378  0.75876739  0.12311281  1
  V  V19  1  0.00364679  0.50563702  0.49823980  1
  V  V20  1  0.75042897  -0.00018052  0.75044892  1
  V  V21  1  0.36934885  0.12485084  0.75428080  1
  V  V22  1  0.50041393  0.12761399  0.62894634  1
  V  V23  1  0.62131071  0.62285579  -0.00234190  1
  V  V24  1  0.62295256  0.87896213  0.24618174  1
  V  V25  1  0.24968385  0.62632288  0.87782747  1
  V  V26  1  0.37055399  0.00263588  0.87851218  1
  V  V27  1  0.74707558  0.87593461  0.12457136  1
  V  V28  1  0.75372735  0.37382296  0.12210549  1
  V  V29  1  0.75717215  0.87149958  0.62560996  1
  V  V30  1  0.25081377  0.24934649  0.49905632  1
  V  V31  1  0.62552669  0.00559537  0.62099043  1
  V  V32  1  0.19470279  0.04384053  0.18951145  1
  V  V33  1  0.87399995  0.12520591  0.74949330  1
  V  V34  1  0.36576715  -0.00072109  0.37270551  1
  V  V35  1  0.37514006  0.86529129  0.50526734  1
  V  V36  1  0.38046944  0.49729675  0.37350241  1
  V  V37  1  0.25212838  0.24105772  0.00695521  1
  V  V38  1  0.50246014  0.49747676  0.49505566  1
  V  V39  1  0.50430883  -0.00043761  0.00676754  1
  V  V40  1  0.87485716  0.87133385  0.00475156  1
  V  V41  1  0.50096767  0.00493452  0.50064738  1
  V  V42  1  0.86968703  0.37396251  0.50093401  1
  V  V43  1  0.37775600  0.12487804  0.24384948  1
  V  V44  1  0.00248423  0.24934510  0.75121265  1
  V  V45  1  0.62369773  0.87517118  0.74998067  1
  V  V46  1  0.12861723  0.74233382  0.38012303  1
  V  V47  1  0.36923879  0.37162916  0.01119743  1
  V  V48  1  0.87052146  0.25581346  0.62445288  1
  V  V49  1  -0.00334475  0.75221115  0.74561935  1
  V  V50  1  0.61745701  0.24980427  0.86701565  1
  V  V51  1  0.63039907  0.74972479  0.37683084  1
  V  V52  1  0.37348262  0.49844267  0.87467003  1
  V  V53  1  0.75303749  0.74820272  0.00163429  1
  V  V54  1  0.74790382  0.12518042  0.87205241  1
  V  V55  1  0.12141731  0.25124005  0.37678494  1
  V  V56  1  0.12704640  0.12579306  0.49949749  1
  V  V57  1  0.87475430  0.00172674  0.37586621  1
  V  V58  1  0.74822939  -0.00040681  0.24979271  1
  V  V59  1  0.13382232  0.23311886  0.87696319  1
  V  V60  1  0.49519264  0.87643818  0.87993894  1
  V  V61  1  0.25197583  0.76172073  0.00618427  1
  V  V62  1  0.87433254  0.49872064  0.86779853  1
  V  V63  1  0.86624596  0.50946234  0.37085274  1
  V  V64  1  0.37406995  0.62777043  0.74987748  1
  V  V65  1  0.38246731  0.37281592  0.49571117  1
  V  V66  1  -0.00583293  0.24757026  0.23490426  1
  V  V67  1  0.49816425  0.25110841  0.24846712  1
  V  V68  1  0.37936988  0.25034938  0.63169386  1
  V  V69  1  0.49527619  0.62846257  0.62580792  1
  V  V70  1  0.64110406  0.38041482  0.75024089  1
  V  V71  1  0.12997123  -0.00083735  0.62692434  1
  V  V72  1  0.87549468  0.62920369  0.74262960  1
  V  V73  1  0.00393639  0.01212242  0.01782650  1
  V  V74  1  0.49619072  0.37221527  0.86472348  1
  V  V75  1  0.24897937  0.50167641  0.74865951  1
  V  V76  1  0.12776619  0.37632371  0.24880665  1
  V  V77  1  0.14021429  0.86933970  0.24129795  1
  V  V78  1  0.25048781  0.37670744  0.62491603  1
  V  V79  1  0.49393617  0.75234534  0.74650546  1
  V  V80  1  0.75546569  0.25234133  -0.00223084  1
  V  V81  1  -0.01350612  0.74782218  0.24572446  1
  V  V82  1  0.62956449  0.62626881  0.50094783  1
  V  V83  1  0.00050724  0.87621209  0.87844467  1
  V  V84  1  0.00015073  -0.00174663  0.49834103  1
  Zn  Zn85  1  0.24696834  0.12074849  0.37045356  1
  Zn  Zn86  1  0.76709601  0.52258447  0.23938868  1
  Zn  Zn87  1  -0.00015678  0.63409981  0.61832415  1
  Zn  Zn88  1  0.37292273  0.62260337  0.24837365  1
  Zn  Zn89  1  0.12667675  0.75410878  0.87826871  1
  Zn  Zn90  1  0.24632503  0.61830546  0.38404159  1
  Zn  Zn91  1  -0.00362333  0.37668273  0.37356591  1
  Zn  Zn92  1  0.12681426  0.37594449  0.74832909  1
  Zn  Zn93  1  0.62290557  0.74960738  0.87458193  1
  Zn  Zn94  1  0.24503408  0.00169397  0.76309003  1
  Zn  Zn95  1  0.87938143  0.86884542  0.50206113  1
  Zn  Zn96  1  0.87995003  0.37145158  0.00433056  1
  Zn  Zn97  1  0.87465843  0.00195034  0.87754426  1
  Zn  Zn98  1  0.49723446  0.62341191  0.12078173  1
  Zn  Zn99  1  0.24691665  0.74067309  0.50964433  1
  Zn  Zn100  1  0.89147235  0.11312451  0.22854233  1
  Zn  Zn101  1  0.74282597  0.24934000  0.50878420  1
  Zn  Zn102  1  0.00181131  0.87316442  0.37120774  1
  Zn  Zn103  1  0.61081079  0.24845986  0.39044099  1
  Zn  Zn104  1  0.49704211  0.49524320  -0.00079536  1
  Zn  Zn105  1  0.50338185  0.12551581  0.12596175  1
  Zn  Zn106  1  0.12690811  0.87359816  0.75310638  1
  Zn  Zn107  1  0.18806851  0.20360303  0.18587084  1
  Zn  Zn108  1  0.19013353  0.18814373  0.68812812  1
  Zn  Zn109  1  0.18552066  0.68407791  0.19180518  1
  Zn  Zn110  1  0.18252830  0.68947427  0.69225038  1
  Zn  Zn111  1  0.72511350  0.17173135  0.17129416  1
  Zn  Zn112  1  0.68494772  0.18953948  0.68889610  1
  Zn  Zn113  1  0.69350697  0.68906046  0.18230212  1
  Zn  Zn114  1  0.68360362  0.68845958  0.68696285  1
  Zn  Zn115  1  0.31370560  0.31072600  0.31135784  1
  Zn  Zn116  1  0.31092872  0.31312362  0.81370694  1
  Zn  Zn117  1  0.31419156  0.80987783  0.31527723  1
  Zn  Zn118  1  0.31092019  0.81543157  0.81582552  1
  Zn  Zn119  1  0.81224479  0.31888106  0.31122061  1
  Zn  Zn120  1  0.81535544  0.31070618  0.81490558  1
  Zn  Zn121  1  0.81200480  0.81530655  0.31725088  1
  Zn  Zn122  1  0.81312652  0.81079418  0.81614325  1
  Zn  Zn123  1  0.18989144  0.43596015  0.43735440  1
  Zn  Zn124  1  0.18972366  0.43651873  0.93875869  1
  Zn  Zn125  1  0.18627022  0.92608212  0.43720771  1
  Zn  Zn126  1  0.18228443  0.94540452  0.94711272  1
  Zn  Zn127  1  0.69058221  0.43906907  0.44339301  1
  Zn  Zn128  1  0.68682805  0.43636731  0.93445604  1
  Zn  Zn129  1  0.68756953  0.93609370  0.43849652  1
  Zn  Zn130  1  0.68467189  0.93790990  0.93555266  1
  Zn  Zn131  1  0.31782281  0.05893730  0.05690830  1
  Zn  Zn132  1  0.31427423  0.06105853  0.56084331  1
  Zn  Zn133  1  0.31536025  0.56545704  0.06485676  1
  Zn  Zn134  1  0.31373874  0.56303664  0.56146192  1
  Zn  Zn135  1  0.81964431  0.06057377  0.06088012  1
  Zn  Zn136  1  0.81416448  0.06336579  0.56384379  1
  Zn  Zn137  1  0.80894683  0.55595834  0.05290557  1
  Zn  Zn138  1  0.81556560  0.56171522  0.55819673  1
  Zn  Zn139  1  0.44416654  0.43498167  0.18814803  1
  Zn  Zn140  1  0.44083694  0.44088145  0.68472226  1
  Zn  Zn141  1  0.43344198  0.93843372  0.18832847  1
  Zn  Zn142  1  0.43481058  0.94064575  0.69039867  1
  Zn  Zn143  1  0.94109507  0.43620884  0.18766840  1
  Zn  Zn144  1  0.94029681  0.43854769  0.68617386  1
  Zn  Zn145  1  0.93571762  0.92763373  0.18840488  1
  Zn  Zn146  1  0.93866872  0.93869419  0.68914785  1
  Zn  Zn147  1  0.06107518  0.06372489  0.31138558  1
  Zn  Zn148  1  0.05768176  0.05822622  0.81580180  1
  Zn  Zn149  1  0.05561790  0.56454631  0.31225977  1
  Zn  Zn150  1  0.06282760  0.56479315  0.80959640  1
  Zn  Zn151  1  0.56104467  0.06516424  0.31490262  1
  Zn  Zn152  1  0.55928640  0.06221430  0.81196298  1
  Zn  Zn153  1  0.60500712  0.57876893  0.29523058  1
  Zn  Zn154  1  0.56002750  0.55907694  0.81288247  1
  Zn  Zn155  1  0.43562445  0.18516911  0.43349461  1
  Zn  Zn156  1  0.43745376  0.18696068  0.93990042  1
  Zn  Zn157  1  0.44027906  0.68197063  0.43383433  1
  Zn  Zn158  1  0.43483436  0.69101847  0.93663572  1
  Zn  Zn159  1  0.93387275  0.18536549  0.43406864  1
  Zn  Zn160  1  0.93925882  0.18686325  0.93602767  1
  Zn  Zn161  1  0.93922939  0.68573769  0.43055873  1
  Zn  Zn162  1  0.93723917  0.68730069  0.93409575  1
  Zn  Zn163  1  0.06923550  0.31136732  0.05791666  1
  Zn  Zn164  1  0.05959395  0.31908285  0.56243279  1
  Zn  Zn165  1  0.06080294  0.81309650  0.06666450  1
  Zn  Zn166  1  0.06465561  0.81494992  0.56369324  1
  Zn  Zn167  1  0.56055791  0.30921102  0.06020351  1
  Zn  Zn168  1  0.56642154  0.31444118  0.56922902  1
  Zn  Zn169  1  0.56202814  0.81040571  0.06225375  1
  Zn  Zn170  1  0.56425837  0.81569483  0.56434190  1
  O  O171  1  0.13761550  0.10816741  0.13998495  1
  O  O172  1  0.12153303  0.11860965  0.61978790  1
  O  O173  1  0.11818308  0.61665449  0.11736435  1
  O  O174  1  0.12383641  0.61348718  0.62666284  1
  O  O175  1  0.63193530  0.12918139  0.10890796  1
  O  O176  1  0.61599850  0.11473942  0.63159724  1
  O  O177  1  0.62468861  0.61578369  0.11086640  1
  O  O178  1  0.61514177  0.61897676  0.62004973  1
  O  O179  1  0.37294730  0.38247049  0.38627119  1
  O  O180  1  0.38091702  0.38006321  0.87659574  1
  O  O181  1  0.38001131  0.88102611  0.38279646  1
  O  O182  1  0.38787796  0.88553886  0.86995749  1
  O  O183  1  0.87793757  0.38109686  0.38485115  1
  O  O184  1  0.88860824  0.38172406  0.87372719  1
  O  O185  1  0.87755929  0.88905575  0.38018362  1
  O  O186  1  0.88146115  0.87640440  0.88616148  1
  O  O187  1  0.26204543  -0.00161486  0.38469719  1
  O  O188  1  0.26474180  -0.00667304  0.88247646  1
  O  O189  1  0.26126672  0.49738106  0.36780572  1
  O  O190  1  0.25360208  0.50669886  0.86907439  1
  O  O191  1  0.75594116  0.00359048  0.37165065  1
  O  O192  1  0.75009493  0.00629489  0.86707877  1
  O  O193  1  0.76423987  0.49655013  0.37575438  1
  O  O194  1  0.76100960  0.51052562  0.88049254  1
  O  O195  1  0.23903175  0.50621875  0.13475436  1
  O  O196  1  0.24453387  0.49638253  0.62842288  1
  O  O197  1  0.25147882  0.99405541  0.12405493  1
  O  O198  1  0.24013903  0.99225659  0.62113097  1
  O  O199  1  0.74051370  0.49388555  0.12362927  1
  O  O200  1  0.73483623  0.50585196  0.61955965  1
  O  O201  1  0.75045748  0.98479677  0.13681035  1
  O  O202  1  0.74238477  0.99479365  0.62834783  1
  O  O203  1  0.01271472  0.36693429  0.25183117  1
  O  O204  1  0.00286303  0.36812293  0.75905687  1
  O  O205  1  0.00682744  0.85943536  0.24906385  1
  O  O206  1  -0.00255912  0.86976040  0.76058142  1
  O  O207  1  0.51369179  0.36615678  0.24689651  1
  O  O208  1  0.50276115  0.37785111  0.76153452  1
  O  O209  1  0.50593011  0.86751617  0.25472771  1
  O  O210  1  0.50311392  0.86947842  0.75431917  1
  O  O211  1  0.49466513  0.12839625  0.24691700  1
  O  O212  1  0.48853076  0.11881457  0.73596889  1
  O  O213  1  0.51123860  0.64011095  0.24904383  1
  O  O214  1  0.49577102  0.63274971  0.74522148  1
  O  O215  1  1.00080143  0.14143284  0.25202667  1
  O  O216  1  0.99472996  0.12971319  0.74538024  1
  O  O217  1  1.00335340  0.63763006  0.23990231  1
  O  O218  1  0.99227204  0.63572256  0.75073101  1
  O  O219  1  0.36424636  0.26153727  -0.00813058  1
  O  O220  1  0.37233229  0.25622268  0.50619446  1
  O  O221  1  0.36839354  0.74591471  0.01463264  1
  O  O222  1  0.38157198  0.76374992  0.49374448  1
  O  O223  1  0.85967389  0.25288903  -0.01149287  1
  O  O224  1  0.87723651  0.25642209  0.50796638  1
  O  O225  1  0.86258358  0.75702848  -0.00676411  1
  O  O226  1  0.86029326  0.74896300  0.49068071  1
  O  O227  1  0.12872763  0.24753610  0.49451497  1
  O  O228  1  0.13726551  0.25353888  0.98547542  1
  O  O229  1  0.12096440  0.75561704  0.48306174  1
  O  O230  1  0.13174080  0.74005361  1.00466969  1
  O  O231  1  0.63182973  0.26044525  0.49924455  1
  O  O232  1  0.63103177  0.24291970  0.98654073  1
  O  O233  1  0.62995483  0.74602269  0.49550101  1
  O  O234  1  0.63280503  0.73992078  0.99740582  1
  O  O235  1  0.50738944  0.24563959  0.14089134  1
  O  O236  1  0.48870566  0.24001724  0.61888299  1
  O  O237  1  0.49033065  0.74920647  0.13151046  1
  O  O238  1  0.50609204  0.74092534  0.63416058  1
  O  O239  1  1.00797567  0.25482704  0.13582777  1
  O  O240  1  0.99537500  0.24495057  0.63064160  1
  O  O241  1  0.99963835  0.74121722  0.13674398  1
  O  O242  1  1.00495080  0.75206176  0.63870036  1
  O  O243  1  0.01252858  0.25082136  0.37209312  1
  O  O244  1  0.01228880  0.25620688  0.87314582  1
  O  O245  1  0.00896808  0.74829350  0.36222342  1
  O  O246  1  0.00120165  0.76077732  0.87028052  1
  O  O247  1  0.50095306  0.24128370  0.35943606  1
  O  O248  1  0.50971589  0.25742708  0.87856883  1
  O  O249  1  0.50792284  0.75600614  0.36813720  1
  O  O250  1  0.49996640  0.75958473  0.86736608  1
  O  O251  1  0.24451766  0.13250800  0.49958024  1
  O  O252  1  0.26168401  0.14190323  1.00051641  1
  O  O253  1  0.25815773  0.63073302  0.49588641  1
  O  O254  1  0.24190550  0.63075778  0.99737464  1
  O  O255  1  0.75718811  0.12554495  0.48578140  1
  O  O256  1  0.74292378  0.13148618  0.99010441  1
  O  O257  1  0.73685975  0.63564707  0.50996631  1
  O  O258  1  0.74324923  0.63114549  0.99056067  1
  O  O259  1  0.26405856  0.36872045  -0.00670634  1
  O  O260  1  0.26214426  0.36987785  0.50549643  1
  O  O261  1  0.24076479  0.85969367  0.00038706  1
  O  O262  1  0.25862208  0.86784067  0.50912648  1
  O  O263  1  0.75210570  0.36884560  0.00184904  1
  O  O264  1  0.76578022  0.37203251  0.49935481  1
  O  O265  1  0.75224970  0.86919282  0.00444950  1
  O  O266  1  0.75032304  0.86791887  0.50925516  1
  O  O267  1  0.13006759  0.49439329  0.24609789  1
  O  O268  1  0.13126867  0.50009270  0.73986434  1
  O  O269  1  0.12936686  0.98668492  0.25380030  1
  O  O270  1  0.12515960  1.00056245  0.73874246  1
  O  O271  1  0.61939156  0.48153429  0.23599977  1
  O  O272  1  0.62129176  0.49375749  0.74271644  1
  O  O273  1  0.63142600  0.98550910  0.26063555  1
  O  O274  1  0.62938338  0.99514113  0.74064215  1
  O  O275  1  0.38258886  0.00702214  0.26422062  1
  O  O276  1  0.37256525  0.00785188  0.76030831  1
  O  O277  1  0.36971308  0.49248067  0.25699069  1
  O  O278  1  0.36916205  0.50742955  0.75424340  1
  O  O279  1  0.86576056  -0.00431408  0.25798534  1
  O  O280  1  0.86834684  0.00795524  0.75030076  1
  O  O281  1  0.87627997  0.49246913  0.26491469  1
  O  O282  1  0.88436992  0.50959838  0.76165656  1
  O  O283  1  0.12338963  0.36772943  0.36722774  1
  O  O284  1  0.11499678  0.37371475  0.87300127  1
  O  O285  1  0.12155793  0.86378952  0.36382334  1
  O  O286  1  0.11235511  0.87690572  0.87651692  1
  O  O287  1  0.63269456  0.37800987  0.36283002  1
  O  O288  1  0.61633982  0.37060480  0.86862219  1
  O  O289  1  0.61871254  0.86748139  0.37005727  1
  O  O290  1  0.61482131  0.87505559  0.86592663  1
  O  O291  1  0.37793638  0.11527044  0.14090785  1
  O  O292  1  0.38056510  0.13124576  0.63090098  1
  O  O293  1  0.38116978  0.63239042  0.13140805  1
  O  O294  1  0.38890220  0.61836816  0.63268076  1
  O  O295  1  0.83231215  0.13658590  0.13856994  1
  O  O296  1  0.88295151  0.13265101  0.62968921  1
  O  O297  1  0.88433904  0.61487641  0.11925405  1
  O  O298  1  0.87591890  0.61802374  0.63950829  1
  O  O299  1  0.24179903  0.25840618  0.10581585  1
  O  O300  1  0.25943264  0.25560605  0.61887254  1
  O  O301  1  0.26291265  0.74081951  0.12234496  1
  O  O302  1  0.24100464  0.76481502  0.62738185  1
  O  O303  1  0.73712089  0.26572494  0.10767460  1
  O  O304  1  0.76673482  0.24235982  0.62686307  1
  O  O305  1  0.74557238  0.75953787  0.11200619  1
  O  O306  1  0.74131723  0.76142210  0.61675055  1
  O  O307  1  0.23740882  0.24922055  0.37926574  1
  O  O308  1  0.23721561  0.25094765  0.87762851  1
  O  O309  1  0.23700970  0.74664577  0.37507329  1
  O  O310  1  0.25033042  0.74412344  0.88662200  1
  O  O311  1  0.75381614  0.23311158  0.36994532  1
  O  O312  1  0.73937175  0.24611648  0.87936280  1
  O  O313  1  0.73626377  0.75876762  0.38551967  1
  O  O314  1  0.74568340  0.74070297  0.88419251  1
  O  O315  1  -0.01187093  0.11063363  0.00150607  1
  O  O316  1  0.00605099  0.11650773  0.50407553  1
  O  O317  1  0.00719772  0.62305721  0.00648983  1
  O  O318  1  -0.00836852  0.61131870  0.50292291  1
  O  O319  1  0.50898117  0.11985760  0.00333100  1
  O  O320  1  0.49061681  0.11251403  0.51143003  1
  O  O321  1  0.51169325  0.62415249  -0.00502708  1
  O  O322  1  0.50713670  0.61956673  0.50928508  1
  O  O323  1  0.49016581  0.38457912  0.50997401  1
  O  O324  1  0.48647599  0.37185381  0.98843190  1
  O  O325  1  0.49433400  0.88399342  0.49869166  1
  O  O326  1  0.51096044  0.88315935  0.98815449  1
  O  O327  1  0.99030541  0.38660011  0.49795402  1
  O  O328  1  1.00084082  0.38094184  0.99163218  1
  O  O329  1  0.99873613  0.88727053  0.49886309  1
  O  O330  1  0.99017427  0.87526907  0.99746415  1
  O  O331  1  0.49551301  0.50255952  0.39090153  1
  O  O332  1  0.49180547  0.49050655  0.87778372  1
  O  O333  1  0.49352774  0.99598592  0.38486734  1
  O  O334  1  0.49404668  0.99303387  0.88008980  1
  O  O335  1  0.99182849  0.49855259  0.38200593  1
  O  O336  1  0.99648883  0.49424613  0.87879282  1
  O  O337  1  0.99326411  1.00108815  0.38250138  1
  O  O338  1  0.99524793  0.98974914  0.88502077  1
  O  O339  1  -0.01274334  -0.00037119  0.11750496  1
  O  O340  1  0.00879202  0.00439767  0.61789147  1
  O  O341  1  0.00898304  0.50775964  0.12097701  1
  O  O342  1  0.00961254  0.50185120  0.61711698  1
  O  O343  1  0.49672414  -0.00280762  0.11047866  1
  O  O344  1  0.50631717  0.00570695  0.61959567  1
  O  O345  1  0.51033593  0.50214365  0.11880880  1
  O  O346  1  0.50791942  0.50978791  0.61622879  1
  O  O347  1  0.23892487  0.38367213  0.25385738  1
  O  O348  1  0.25052041  0.38378555  0.74263511  1
  O  O349  1  0.23980163  0.86893454  0.25097402  1
  O  O350  1  0.24852284  0.88111416  0.74305431  1
  O  O351  1  0.73637105  0.37243817  0.23775799  1
  O  O352  1  0.74044449  0.37876497  0.75997963  1
  O  O353  1  0.74284894  0.87830680  0.24503727  1
  O  O354  1  0.74530542  0.87805071  0.74443542  1
  O  O355  1  0.25395106  0.11639062  0.24662717  1
  O  O356  1  0.26380624  0.11911230  0.74361400  1
  O  O357  1  0.24980264  0.60832245  0.25686388  1
  O  O358  1  0.25471835  0.62266877  0.75671581  1
  O  O359  1  0.74108586  0.10697029  0.26584691  1
  O  O360  1  0.75359071  0.11945830  0.75329567  1
  O  O361  1  0.71088943  0.61585124  0.26104671  1
  O  O362  1  0.75735619  0.63563060  0.76075690  1
  O  O363  1  0.36836446  0.11593762  0.36643227  1
  O  O364  1  0.38504187  0.11721324  0.86356580  1
  O  O365  1  0.37850540  0.60831937  0.36863435  1
  O  O366  1  0.36929762  0.61902223  0.87090244  1
  O  O367  1  0.86723031  0.11250061  0.36810443  1
  O  O368  1  0.86634926  0.12608156  0.86580258  1
  O  O369  1  0.87451416  0.60865096  0.37681230  1
  O  O370  1  0.86845020  0.61791869  0.86754162  1
  O  O371  1  0.11984580  0.38888098  0.13337015  1
  O  O372  1  0.13320007  0.38407362  0.62623763  1
  O  O373  1  0.12543479  0.86847695  0.14193019  1
  O  O374  1  0.13339288  0.88575818  0.62631442  1
  O  O375  1  0.63222483  0.38422707  0.11940289  1
  O  O376  1  0.61900560  0.38570160  0.64026700  1
  O  O377  1  0.63242870  0.86840372  0.13634775  1
  O  O378  1  0.63256186  0.88575183  0.63096477  1
  O  O379  1  0.11864814  0.25859320  0.25733173  1
  O  O380  1  0.12268268  0.25119828  0.76168475  1
  O  O381  1  0.12096923  0.75691521  0.25766477  1
  O  O382  1  0.11281515  0.75294794  0.75904441  1
  O  O383  1  0.62056310  0.26363977  0.25595750  1
  O  O384  1  0.62894262  0.26099357  0.75985184  1
  O  O385  1  0.61943778  0.76126623  0.25825405  1
  O  O386  1  0.61199282  0.75607440  0.75223575  1
  O  O387  1  0.38142057  0.23754013  0.25608799  1
  O  O388  1  0.36906912  0.24332506  0.73824114  1
  O  O389  1  0.38408366  0.74636150  0.24424959  1
  O  O390  1  0.38642216  0.74502096  0.75573151  1
  O  O391  1  0.89479856  0.25971082  0.25278436  1
  O  O392  1  0.88207251  0.24575441  0.74383456  1
  O  O393  1  0.88765797  0.75318117  0.25725630  1
  O  O394  1  0.88467301  0.74116438  0.75730086  1
  O  O395  1  0.38291167  0.49156327  0.49416682  1
  O  O396  1  0.37203808  0.48849793  0.99385222  1
  O  O397  1  0.38368472  0.99086281  0.49379868  1
  O  O398  1  0.39121680  1.00781567  0.98744028  1
  O  O399  1  0.88108113  0.49312747  0.49219598  1
  O  O400  1  0.88371389  0.49847992  0.98460399  1
  O  O401  1  0.88631739  1.00157279  0.49431434  1
  O  O402  1  0.87998558  0.98720659  0.99788186  1
  O  O403  1  0.10337408  -0.00318778  0.00659397  1
  O  O404  1  0.11791354  0.00362899  0.50580867  1
  O  O405  1  0.12262624  0.50721219  0.00777272  1
  O  O406  1  0.11653945  0.49299434  0.50666883  1
  O  O407  1  0.61618417  0.01286667  -0.01039820  1
  O  O408  1  0.61412775  -0.00666103  0.51060309  1
  O  O409  1  0.62469478  0.50706324  0.00400599  1
  O  O410  1  0.61992554  0.50677509  0.50682802  1
  O  O411  1  0.37918928  0.37789988  0.10945442  1
  O  O412  1  0.37227116  0.36840299  0.61833937  1
  O  O413  1  0.37512964  0.85761411  0.13199440  1
  O  O414  1  0.36566713  0.88356276  0.61725016  1
  O  O415  1  0.85961705  0.38599921  0.12173642  1
  O  O416  1  0.88344806  0.36461184  0.61806125  1
  O  O417  1  0.86161859  0.87231854  0.11418047  1
  O  O418  1  0.86108465  0.88183353  0.62304106  1
  O  O419  1  0.12749568  0.13318731  0.38032021  1
  O  O420  1  0.12379402  0.13464133  0.87287229  1
  O  O421  1  0.12371292  0.63876269  0.36924695  1
  O  O422  1  0.12899102  0.62410914  0.88909648  1
  O  O423  1  0.63745112  0.12411416  0.37886477  1
  O  O424  1  0.62752397  0.13378002  0.87523899  1
  O  O425  1  0.61435629  0.63787063  0.39356042  1
  O  O426  1  0.63320366  0.62193468  0.88047632  1
