# generated using pymatgen
data_V85Zn86O256
_symmetry_space_group_name_H-M   'P 1'
_cell_length_a   17.01566940
_cell_length_b   17.00231251
_cell_length_c   16.98830047
_cell_angle_alpha   90.00476966
_cell_angle_beta   90.09981875
_cell_angle_gamma   89.99012703
_symmetry_Int_Tables_number   1
_chemical_formula_structural   V85Zn86O256
_chemical_formula_sum   'V85 Zn86 O256'
_cell_volume   4914.80509549
_cell_formula_units_Z   1
loop_
 _symmetry_equiv_pos_site_id
 _symmetry_equiv_pos_as_xyz
  1  'x, y, z'
loop_
 _atom_site_type_symbol
 _atom_site_label
 _atom_site_symmetry_multiplicity
 _atom_site_fract_x
 _atom_site_fract_y
 _atom_site_fract_z
 _atom_site_occupancy
  V  V0  1  0.86683748  0.36923329  0.00070156  1
  V  V1  1  0.50132129  0.00348091  0.50547164  1
  V  V2  1  0.38871668  0.49550816  0.37924713  1
  V  V3  1  0.62566324  0.74821209  0.37410972  1
  V  V4  1  0.75028245  0.38825134  0.63427217  1
  V  V5  1  0.38012736  0.37678662  0.00092075  1
  V  V6  1  0.75268058  0.24632358  0.49771696  1
  V  V7  1  -0.00289967  0.12543144  0.14528557  1
  V  V8  1  0.37459364  0.00011798  0.37773439  1
  V  V9  1  0.50366186  0.51226986  0.52254501  1
  V  V10  1  0.62552809  0.87314452  0.75527395  1
  V  V11  1  0.00129924  -0.00268591  0.50301307  1
  V  V12  1  0.12457658  0.62185845  0.50337238  1
  V  V13  1  0.39069689  0.13936904  0.74524804  1
  V  V14  1  0.50071273  0.87353492  0.37525690  1
  V  V15  1  0.87260175  0.74564914  0.11446745  1
  V  V16  1  0.51590249  0.86025542  0.89307220  1
  V  V17  1  0.37435683  0.12495389  0.25445810  1
  V  V18  1  0.37346815  0.74904037  0.12702684  1
  V  V19  1  0.12631139  0.49769072  0.12851143  1
  V  V20  1  0.49991879  0.74937844  0.25105722  1
  V  V21  1  0.49924657  0.26173262  0.25664509  1
  V  V22  1  0.12354292  0.12080013  0.50341169  1
  V  V23  1  0.12621707  0.62484665  0.00042967  1
  V  V24  1  0.37569695  -0.00299742  0.86703488  1
  V  V25  1  0.12419965  0.25209275  0.87464709  1
  V  V26  1  0.49757188  0.00479457  0.00378230  1
  V  V27  1  0.50146547  0.12560908  0.12940982  1
  V  V28  1  0.11340727  0.11629492  0.00004447  1
  V  V29  1  0.87425897  0.37756189  0.50114383  1
  V  V30  1  -0.00060719  0.37245396  0.37028586  1
  V  V31  1  0.87478733  0.24933024  0.62849550  1
  V  V32  1  -0.00277284  0.62287044  0.13107560  1
  V  V33  1  0.00151958  0.50028369  0.50338519  1
  V  V34  1  0.24551184  0.25025620  0.50560275  1
  V  V35  1  0.75085617  0.75049236  0.49829787  1
  V  V36  1  0.87556191  0.87361566  0.50113398  1
  V  V37  1  0.24895689  0.37388754  0.61954059  1
  V  V38  1  0.25125199  0.11748301  0.86780526  1
  V  V39  1  0.37897490  0.74218496  0.62567528  1
  V  V40  1  0.00487054  0.49399937  -0.00015683  1
  V  V41  1  0.24536448  0.87851166  0.63891531  1
  V  V42  1  0.24898323  0.12434259  0.37791827  1
  V  V43  1  0.62270153  0.00735689  0.62508606  1
  V  V44  1  0.75308208  0.00676830  0.24872420  1
  V  V45  1  0.25011690  0.74873651  0.50105233  1
  V  V46  1  0.49972562  0.74592666  0.74989718  1
  V  V47  1  0.87073261  0.50379872  0.87308622  1
  V  V48  1  -0.00101693  0.87257246  0.37617428  1
  V  V49  1  0.37485651  0.49679447  0.87795374  1
  V  V50  1  0.87378010  0.00609789  0.37159031  1
  V  V51  1  0.00243299  0.62129231  0.62855040  1
  V  V52  1  0.63128711  0.49541349  0.11719664  1
  V  V53  1  0.11784847  0.24807793  0.36841051  1
  V  V54  1  0.24649443  0.87709586  0.12644129  1
  V  V55  1  0.00083857  0.88648896  0.87954499  1
  V  V56  1  0.36777488  0.88006520  0.00311241  1
  V  V57  1  0.74953612  0.87004872  0.12250591  1
  V  V58  1  0.37421215  0.87396571  0.50186633  1
  V  V59  1  0.24835520  0.24720411  0.00151838  1
  V  V60  1  0.00248753  0.75176411  0.75328748  1
  V  V61  1  0.12488932  0.37687143  0.74498984  1
  V  V62  1  0.62656668  0.62543640  0.51405590  1
  V  V63  1  0.64310427  0.38339529  0.25481896  1
  V  V64  1  0.40811012  0.34972270  0.50415715  1
  V  V65  1  0.87547893  0.25020585  0.13951128  1
  V  V66  1  0.12532265  0.75254571  0.87303251  1
  V  V67  1  0.24635667  0.50136893  0.74558243  1
  V  V68  1  0.87578153  0.89057168  -0.00253053  1
  V  V69  1  0.24712220  0.75050234  0.00170398  1
  V  V70  1  0.75361879  0.62199900  0.36316214  1
  V  V71  1  0.87246578  0.50468721  0.36266955  1
  V  V72  1  0.50072601  0.61744936  0.12103908  1
  V  V73  1  0.75184646  0.12156290  0.88295877  1
  V  V74  1  0.75168175  0.87666608  0.62554376  1
  V  V75  1  0.37335562  0.24907540  0.12853204  1
  V  V76  1  0.00007634  0.12387852  0.62664774  1
  V  V77  1  0.37348834  0.62245841  0.25239336  1
  V  V78  1  0.24752863  0.37379590  0.13145019  1
  V  V79  1  0.60912657  0.37514519  0.74439455  1
  V  V80  1  0.87237913  0.11868040  0.75430393  1
  V  V81  1  -0.00802051  0.74733316  0.24951336  1
  V  V82  1  0.12321991  0.87458702  0.25092278  1
  V  V83  1  0.86570595  0.62092272  0.75371969  1
  V  V84  1  0.25089831  0.62198753  0.37728698  1
  Zn  Zn85  1  0.11408964  -0.00638103  0.11841450  1
  Zn  Zn86  1  0.00123787  0.37511751  0.87275617  1
  Zn  Zn87  1  0.75093677  -0.00220386  0.75730309  1
  Zn  Zn88  1  0.38218797  0.61781309  0.74845216  1
  Zn  Zn89  1  0.12394730  0.74714094  0.37488401  1
  Zn  Zn90  1  0.49292021  0.36570977  0.86546729  1
  Zn  Zn91  1  0.12695327  -0.00198502  0.63972781  1
  Zn  Zn92  1  0.62240779  0.13108281  -0.00083152  1
  Zn  Zn93  1  0.74983948  0.12867814  0.36901278  1
  Zn  Zn94  1  -0.00075955  0.25160378  0.75067700  1
  Zn  Zn95  1  0.62784128  0.00073990  0.12692820  1
  Zn  Zn96  1  0.24921041  0.49651540  0.25697366  1
  Zn  Zn97  1  0.25022572  0.62515970  0.87175045  1
  Zn  Zn98  1  0.12075517  0.37070507  0.24959907  1
  Zn  Zn99  1  0.62581769  0.87517799  0.24897155  1
  Zn  Zn100  1  0.62031653  0.25008927  0.87246877  1
  Zn  Zn101  1  0.54418756  0.55703750  -0.04875688  1
  Zn  Zn102  1  0.87618763  0.74894433  0.62724745  1
  Zn  Zn103  1  0.62225227  0.25264048  0.37532149  1
  Zn  Zn104  1  0.74350962  0.25612395  0.00416138  1
  Zn  Zn105  1  0.24809023  0.00098508  0.25094231  1
  Zn  Zn106  1  0.62456528  0.12710674  0.49866560  1
  Zn  Zn107  1  0.18525578  0.18435477  0.18886222  1
  Zn  Zn108  1  0.18983592  0.18674844  0.68831503  1
  Zn  Zn109  1  0.18554394  0.68626568  0.19037073  1
  Zn  Zn110  1  0.18846536  0.68913416  0.68604246  1
  Zn  Zn111  1  0.68729740  0.19490298  0.18630098  1
  Zn  Zn112  1  0.68814473  0.19102264  0.69189775  1
  Zn  Zn113  1  0.68428476  0.68463167  0.18367362  1
  Zn  Zn114  1  0.68866905  0.69497920  0.69160684  1
  Zn  Zn115  1  0.31542627  0.31215403  0.32427884  1
  Zn  Zn116  1  0.31055353  0.31030881  0.81109035  1
  Zn  Zn117  1  0.31220973  0.81021790  0.31471044  1
  Zn  Zn118  1  0.32323507  0.80843515  0.81651368  1
  Zn  Zn119  1  0.81321812  0.31856170  0.31544807  1
  Zn  Zn120  1  0.80723942  0.30894427  0.81696593  1
  Zn  Zn121  1  0.81144778  0.81420491  0.31037308  1
  Zn  Zn122  1  0.82205487  0.81647709  0.80943418  1
  Zn  Zn123  1  0.18564963  0.43815502  0.43509633  1
  Zn  Zn124  1  0.19222850  0.43657949  0.93703945  1
  Zn  Zn125  1  0.18780091  0.93536149  0.44074174  1
  Zn  Zn126  1  0.18723797  0.93736144  0.81699571  1
  Zn  Zn127  1  0.68608615  0.44158046  0.44032359  1
  Zn  Zn128  1  0.66656346  0.46928671  0.90418715  1
  Zn  Zn129  1  0.68693202  0.93781987  0.43621049  1
  Zn  Zn130  1  0.69003575  0.94437683  0.94410801  1
  Zn  Zn131  1  0.30897315  0.06184601  0.06273424  1
  Zn  Zn132  1  0.31376932  0.06250166  0.56746917  1
  Zn  Zn133  1  0.31158763  0.56175166  0.06367261  1
  Zn  Zn134  1  0.31312088  0.55816412  0.56212003  1
  Zn  Zn135  1  0.81756284  0.06490032  0.06907406  1
  Zn  Zn136  1  0.81382515  0.06100029  0.56333830  1
  Zn  Zn137  1  0.82589000  0.54387017  0.07969814  1
  Zn  Zn138  1  0.81606458  0.56745497  0.55746046  1
  Zn  Zn139  1  0.43557086  0.43965821  0.18827019  1
  Zn  Zn140  1  0.42849380  0.43432983  0.68188982  1
  Zn  Zn141  1  0.43539488  0.93832550  0.19132464  1
  Zn  Zn142  1  0.44103082  0.92941740  0.68904828  1
  Zn  Zn143  1  0.93633587  0.43204803  0.18697715  1
  Zn  Zn144  1  0.93798853  0.43684244  0.68884921  1
  Zn  Zn145  1  0.93579777  0.93828961  0.18596985  1
  Zn  Zn146  1  0.94057839  0.93798914  0.69053018  1
  Zn  Zn147  1  0.06287745  0.05780876  0.31606510  1
  Zn  Zn148  1  0.05904482  0.06775870  0.81170933  1
  Zn  Zn149  1  0.06349461  0.55898873  0.31457577  1
  Zn  Zn150  1  0.06270417  0.56283901  0.81403166  1
  Zn  Zn151  1  0.56779383  0.06318228  0.31492083  1
  Zn  Zn152  1  0.56526552  0.05864536  0.81478159  1
  Zn  Zn153  1  0.56912640  0.56507261  0.31007296  1
  Zn  Zn154  1  0.57861801  0.56405325  0.77606708  1
  Zn  Zn155  1  0.44126835  0.18861444  0.44453874  1
  Zn  Zn156  1  0.43614282  0.18950955  0.93398177  1
  Zn  Zn157  1  0.43853894  0.68488541  0.43908330  1
  Zn  Zn158  1  0.42816054  0.68908817  0.93605872  1
  Zn  Zn159  1  0.93717199  0.18654616  0.43983099  1
  Zn  Zn160  1  0.93660529  0.18691258  0.93634307  1
  Zn  Zn161  1  0.93494933  0.68673522  0.43688768  1
  Zn  Zn162  1  0.94051238  0.68568508  0.93902546  1
  Zn  Zn163  1  0.05968597  0.30664074  0.06606533  1
  Zn  Zn164  1  0.06277103  0.31172632  0.56053203  1
  Zn  Zn165  1  0.05975138  0.81208601  0.06020177  1
  Zn  Zn166  1  0.06445475  0.80913337  0.56481701  1
  Zn  Zn167  1  0.56690130  0.31410594  0.06668572  1
  Zn  Zn168  1  0.57445912  0.32266122  0.55227782  1
  Zn  Zn169  1  0.55752839  0.81263728  0.06604809  1
  Zn  Zn170  1  0.56429835  0.81401748  0.56354599  1
  O  O171  1  0.11238793  0.13027969  0.11520069  1
  O  O172  1  0.11850959  0.12466384  0.62058600  1
  O  O173  1  0.11676625  0.61897692  0.12064892  1
  O  O174  1  0.11359531  0.62910599  0.61599418  1
  O  O175  1  0.61013823  0.12588906  0.12577982  1
  O  O176  1  0.63444276  0.11051935  0.62404502  1
  O  O177  1  0.61290465  0.61138553  0.12990368  1
  O  O178  1  0.63337543  0.63204961  0.61359011  1
  O  O179  1  0.37378508  0.38194625  0.39923127  1
  O  O180  1  0.36823235  0.37852009  0.88523428  1
  O  O181  1  0.37944577  0.87929542  0.38162984  1
  O  O182  1  0.38350401  0.88081213  0.88665569  1
  O  O183  1  0.88223135  0.38381309  0.38257605  1
  O  O184  1  0.88169230  0.38306740  0.88511486  1
  O  O185  1  0.88015773  0.88126208  0.38173764  1
  O  O186  1  0.88340450  0.86962340  0.88996249  1
  O  O187  1  0.25598108  0.00577655  0.37674533  1
  O  O188  1  0.26181572  0.00652376  0.87672730  1
  O  O189  1  0.26160325  0.50454497  0.37952885  1
  O  O190  1  0.25565872  0.49892640  0.86329985  1
  O  O191  1  0.75830405  -0.00210999  0.36693466  1
  O  O192  1  0.75135167  0.01548544  0.87499234  1
  O  O193  1  0.76165385  0.50991950  0.38469721  1
  O  O194  1  0.77437293  0.49751419  0.88417683  1
  O  O195  1  0.24411210  0.48813625  0.12683575  1
  O  O196  1  0.25464261  0.48661279  0.63269996  1
  O  O197  1  0.24516577  0.98824929  0.12842978  1
  O  O198  1  0.25008045  0.98052893  0.62222887  1
  O  O199  1  0.73121725  0.50943991  0.11949143  1
  O  O200  1  0.76118012  0.48571728  0.61707621  1
  O  O201  1  0.75292190  0.99077296  0.13190135  1
  O  O202  1  0.74317282  0.98826794  0.62405979  1
  O  O203  1  0.00024808  0.37758805  0.26675598  1
  O  O204  1  0.01108438  0.37230822  0.75168587  1
  O  O205  1  0.00585674  0.86736648  0.25319829  1
  O  O206  1  -0.01432354  0.86230551  0.76698085  1
  O  O207  1  0.49714389  0.36362753  0.24703767  1
  O  O208  1  0.50593108  0.37201486  0.73815408  1
  O  O209  1  0.49990311  0.86757444  0.25641639  1
  O  O210  1  0.50982283  0.86770264  0.76591453  1
  O  O211  1  0.49408359  0.12942137  0.24327172  1
  O  O212  1  0.48906884  0.12198678  0.75769317  1
  O  O213  1  0.49299703  0.63113689  0.24279692  1
  O  O214  1  0.50151138  0.63984096  0.74841462  1
  O  O215  1  1.00638040  0.12845698  0.24391885  1
  O  O216  1  0.98947170  0.13110526  0.74560314  1
  O  O217  1  1.00775295  0.63331811  0.24000805  1
  O  O218  1  0.99558732  0.62957230  0.74399636  1
  O  O219  1  0.36264133  0.25461075  0.00664575  1
  O  O220  1  0.34569307  0.25277566  0.48174296  1
  O  O221  1  0.36665723  0.75892059  0.00809823  1
  O  O222  1  0.37117098  0.75378733  0.50701870  1
  O  O223  1  0.87791069  0.26409167  -0.00097006  1
  O  O224  1  0.87165155  0.25642048  0.50898632  1
  O  O225  1  0.88009017  0.75354282  0.01097781  1
  O  O226  1  0.86953895  0.75652730  0.50311605  1
  O  O227  1  0.12863875  0.24085380  0.49282932  1
  O  O228  1  0.13276758  0.24524631  0.99376824  1
  O  O229  1  0.12926647  0.73749357  0.49801123  1
  O  O230  1  0.12698580  0.74523271  0.99219311  1
  O  O231  1  0.64131970  0.24864282  0.49681398  1
  O  O232  1  0.62932729  0.24746493  1.00127576  1
  O  O233  1  0.63047952  0.74507537  0.49433668  1
  O  O234  1  0.57561573  0.80176027  0.95368039  1
  O  O235  1  0.49202800  0.24181274  0.13461474  1
  O  O236  1  0.47555080  0.27135077  0.52819010  1
  O  O237  1  0.49330803  0.74278366  0.13117582  1
  O  O238  1  0.48806513  0.76527969  0.63627298  1
  O  O239  1  0.98951272  0.23750758  0.12283708  1
  O  O240  1  0.98856074  0.24461217  0.62323321  1
  O  O241  1  0.99379024  0.74091109  0.12952465  1
  O  O242  1  0.99934440  0.74260083  0.63670249  1
  O  O243  1  0.00688087  0.26070916  0.38676687  1
  O  O244  1  0.01480114  0.25182632  0.87519993  1
  O  O245  1  -0.00156618  0.75350181  0.36531207  1
  O  O246  1  0.00871331  0.75148924  0.87055992  1
  O  O247  1  0.50184193  0.24148017  0.35959311  1
  O  O248  1  0.50586788  0.25565209  0.88201222  1
  O  O249  1  0.50445713  0.75375816  0.37067339  1
  O  O250  1  0.47607724  0.75769845  0.85766989  1
  O  O251  1  0.24319235  0.13034355  0.49887420  1
  O  O252  1  0.24296835  0.13387032  0.99514377  1
  O  O253  1  0.24102367  0.62688998  0.49914839  1
  O  O254  1  0.24294989  0.63349012  1.00145142  1
  O  O255  1  0.75356771  0.13699474  0.50111594  1
  O  O256  1  0.75479079  0.12310082  0.98992537  1
  O  O257  1  0.74457472  0.63313551  0.49378963  1
  O  O258  1  0.73543399  0.68863175  0.92433236  1
  O  O259  1  0.25230401  0.36352122  0.01098262  1
  O  O260  1  0.23281632  0.36607360  0.51113157  1
  O  O261  1  0.25243983  0.86752346  0.01571168  1
  O  O262  1  0.25606515  0.86657826  0.50661098  1
  O  O263  1  0.76885358  0.37798107  -0.00040538  1
  O  O264  1  0.75594968  0.36715044  0.50933103  1
  O  O265  1  0.76440398  0.88079011  0.00871948  1
  O  O266  1  0.75488571  0.87041122  0.50693490  1
  O  O267  1  0.12890203  0.49383493  0.24449644  1
  O  O268  1  0.13405534  0.48797660  0.75808690  1
  O  O269  1  0.12551659  0.98476002  0.24860265  1
  O  O270  1  0.12518718  1.00265234  0.75203592  1
  O  O271  1  0.62180848  0.48807146  0.24298824  1
  O  O272  1  0.62935046  0.47499280  0.73378070  1
  O  O273  1  0.63535956  0.99394409  0.24703459  1
  O  O274  1  0.62684548  0.99166505  0.73892306  1
  O  O275  1  0.37207524  0.00644210  0.26010771  1
  O  O276  1  0.38531146  -0.00158784  0.76555653  1
  O  O277  1  0.37052812  0.50331902  0.26122540  1
  O  O278  1  0.36350112  0.49676545  0.75628878  1
  O  O279  1  0.86660406  -0.00846224  0.26120045  1
  O  O280  1  0.87219582  0.01443733  0.74410071  1
  O  O281  1  0.87917159  0.49582569  0.26290591  1
  O  O282  1  0.88556866  0.50518111  0.76635964  1
  O  O283  1  0.11581200  0.36615825  0.37566270  1
  O  O284  1  0.12953687  0.36548538  0.86694317  1
  O  O285  1  0.11862779  0.87120141  0.36757739  1
  O  O286  1  0.11036751  0.86410550  0.87488483  1
  O  O287  1  0.63208193  0.37455517  0.36048724  1
  O  O288  1  0.61856130  0.37797795  0.85547663  1
  O  O289  1  0.61892821  0.86564605  0.37465142  1
  O  O290  1  0.62708123  0.89476770  0.85848779  1
  O  O291  1  0.37913802  0.12983856  0.13279365  1
  O  O292  1  0.36862911  0.11705222  0.64854813  1
  O  O293  1  0.37835558  0.62908398  0.13229869  1
  O  O294  1  0.36929185  0.63869272  0.62552538  1
  O  O295  1  0.88970580  0.13570960  0.12463734  1
  O  O296  1  0.87914775  0.13223389  0.63207535  1
  O  O297  1  0.88732669  0.62930179  0.11936769  1
  O  O298  1  0.88683121  0.62632399  0.63331925  1
  O  O299  1  0.25191042  0.25371542  0.11965569  1
  O  O300  1  0.24537806  0.25909959  0.61630299  1
  O  O301  1  0.25282704  0.75686744  0.12311925  1
  O  O302  1  0.25768705  0.75828804  0.62133600  1
  O  O303  1  0.77168292  0.23801911  0.11890637  1
  O  O304  1  0.76333249  0.25504284  0.61790992  1
  O  O305  1  0.76065259  0.75705210  0.13139146  1
  O  O306  1  0.75294323  0.76348749  0.61943553  1
  O  O307  1  0.23446432  0.24451120  0.38230489  1
  O  O308  1  0.24242084  0.24197864  0.88447380  1
  O  O309  1  0.24929132  0.74050290  0.38355713  1
  O  O310  1  0.24090403  0.75220262  0.88092193  1
  O  O311  1  0.75803263  0.24898429  0.38695030  1
  O  O312  1  0.74613478  0.23814046  0.88196693  1
  O  O313  1  0.74725410  0.74448734  0.37933503  1
  O  O314  1  0.72925041  0.74851112  0.88239464  1
  O  O315  1  0.01250633  0.12719828  -0.00246594  1
  O  O316  1  0.00383175  0.11725893  0.50711191  1
  O  O317  1  0.00638854  0.61413472  0.01034658  1
  O  O318  1  0.00482465  0.62040118  0.50778356  1
  O  O319  1  0.49284013  0.11779624  0.01177268  1
  O  O320  1  0.50117941  0.10570907  0.49876266  1
  O  O321  1  0.49014655  0.63170319  0.01420050  1
  O  O322  1  0.51228989  0.62006922  0.49839832  1
  O  O323  1  0.50798710  0.40812512  0.50160809  1
  O  O324  1  0.47958721  0.37086298  1.01032894  1
  O  O325  1  0.49395718  0.88037992  0.49420141  1
  O  O326  1  0.48283467  0.89244751  1.01101492  1
  O  O327  1  0.99654185  0.38408359  0.49505030  1
  O  O328  1  0.99965532  0.38503905  1.00059244  1
  O  O329  1  0.99636644  0.87665620  0.49692228  1
  O  O330  1  0.98993868  0.87207903  0.98983887  1
  O  O331  1  0.48859848  0.50672676  0.37167717  1
  O  O332  1  0.47887671  0.48873448  0.87411931  1
  O  O333  1  0.49522534  0.99288681  0.38338237  1
  O  O334  1  0.49681121  0.98803558  0.88959468  1
  O  O335  1  0.99354462  0.49408049  0.38380053  1
  O  O336  1  0.99717591  0.49847443  0.88804456  1
  O  O337  1  0.99237488  0.99218726  0.38143381  1
  O  O338  1  1.00226780  0.98401621  0.87275622  1
  O  O339  1  -0.00111988  0.01839235  0.13073723  1
  O  O340  1  0.00271272  0.00465791  0.61987439  1
  O  O341  1  0.00388489  0.50452828  0.12004702  1
  O  O342  1  -0.00535477  0.50920259  0.61536865  1
  O  O343  1  0.49541397  0.01023424  0.12125574  1
  O  O344  1  0.51131683  -0.01387434  0.61629197  1
  O  O345  1  0.50249765  0.51151998  0.12925250  1
  O  O346  1  0.49457234  0.51102036  0.62105211  1
  O  O347  1  0.25102247  0.37036686  0.23981828  1
  O  O348  1  0.24514165  0.37881427  0.73936822  1
  O  O349  1  0.23996907  0.87084756  0.24286724  1
  O  O350  1  0.25371698  0.87019474  0.74322997  1
  O  O351  1  0.74142602  0.37549213  0.24578319  1
  O  O352  1  0.76010294  0.37604838  0.73492788  1
  O  O353  1  0.75086374  0.88251249  0.23750503  1
  O  O354  1  0.74669376  0.87447394  0.74366978  1
  O  O355  1  0.25519165  0.12336525  0.25834726  1
  O  O356  1  0.25665169  0.13125156  0.76563648  1
  O  O357  1  0.25532523  0.62344526  0.25833380  1
  O  O358  1  0.24877934  0.61180179  0.74768670  1
  O  O359  1  0.74640213  0.11067882  0.24647163  1
  O  O360  1  0.75747998  0.12440343  0.76018456  1
  O  O361  1  0.74622651  0.62854737  0.26412170  1
  O  O362  1  0.76695369  0.63087992  0.74479924  1
  O  O363  1  0.36849659  0.11978364  0.37384452  1
  O  O364  1  0.36882390  0.11658154  0.86815754  1
  O  O365  1  0.36997091  0.61693672  0.37185301  1
  O  O366  1  0.36870709  0.61264863  0.87195698  1
  O  O367  1  0.87426485  0.10949402  0.38075836  1
  O  O368  1  0.86446003  0.13314864  0.86589861  1
  O  O369  1  0.86683537  0.61636603  0.37976574  1
  O  O370  1  0.88371940  0.61185371  0.87104565  1
  O  O371  1  0.13202321  0.37610590  0.12746876  1
  O  O372  1  0.13146331  0.36849162  0.63713131  1
  O  O373  1  0.12851163  0.87380156  0.13202341  1
  O  O374  1  0.14232091  0.87011282  0.62459203  1
  O  O375  1  0.61884262  0.38845331  0.13870275  1
  O  O376  1  0.64409830  0.36654356  0.62998924  1
  O  O377  1  0.63799784  0.87288809  0.12268144  1
  O  O378  1  0.63499849  0.88101869  0.63338095  1
  O  O379  1  0.12606244  0.24928317  0.26478428  1
  O  O380  1  0.12701827  0.25734836  0.76016451  1
  O  O381  1  0.11304317  0.75908321  0.25015660  1
  O  O382  1  0.11408106  0.74267127  0.76026424  1
  O  O383  1  0.61850784  0.26678540  0.24663528  1
  O  O384  1  0.63439306  0.26894895  0.75054525  1
  O  O385  1  0.61727930  0.75078400  0.25594485  1
  O  O386  1  0.61454655  0.76235996  0.74589991  1
  O  O387  1  0.38011531  0.24537202  0.24929267  1
  O  O388  1  0.37714055  0.23913286  0.75414679  1
  O  O389  1  0.37955311  0.74337487  0.24606882  1
  O  O390  1  0.38099867  0.74559168  0.74012418  1
  O  O391  1  0.87452431  0.25896917  0.23786561  1
  O  O392  1  0.87545629  0.24325640  0.74135833  1
  O  O393  1  0.88780602  0.75825509  0.23725122  1
  O  O394  1  0.88642419  0.73837854  0.75339030  1
  O  O395  1  0.39421302  0.51007756  0.49548402  1
  O  O396  1  0.35971235  0.48805680  0.99009310  1
  O  O397  1  0.38222108  0.99409042  0.49805269  1
  O  O398  1  0.37888509  1.00033021  0.99198862  1
  O  O399  1  0.88759280  0.49715896  0.49277759  1
  O  O400  1  0.88610029  0.49046945  0.99661692  1
  O  O401  1  0.88087454  0.99229625  0.49360788  1
  O  O402  1  0.87997518  0.98837243  1.00439628  1
  O  O403  1  0.12785192  0.01854956  0.00233923  1
  O  O404  1  0.11778958  0.00459828  0.50269888  1
  O  O405  1  0.12101865  0.50270620  0.00625347  1
  O  O406  1  0.11244890  0.51022031  0.49472403  1
  O  O407  1  0.61060331  0.00520024  0.00675364  1
  O  O408  1  0.61782515  -0.00252066  0.50802396  1
  O  O409  1  0.61418682  0.48511051  0.01616542  1
  O  O410  1  0.61377369  0.51297347  0.49826423  1
  O  O411  1  0.36364240  0.36972318  0.12042872  1
  O  O412  1  0.36505738  0.37659795  0.60166210  1
  O  O413  1  0.36412687  0.87036549  0.12528350  1
  O  O414  1  0.36388761  0.86640006  0.62216338  1
  O  O415  1  0.88487554  0.36208271  0.11240872  1
  O  O416  1  0.87053262  0.36784882  0.62135351  1
  O  O417  1  0.87242638  0.86777605  0.11266852  1
  O  O418  1  0.86688627  0.87519725  0.62130322  1
  O  O419  1  0.12736661  0.12935218  0.38271780  1
  O  O420  1  0.13121170  0.13161274  0.88513756  1
  O  O421  1  0.13032918  0.62495594  0.38560027  1
  O  O422  1  0.12666301  0.63462139  0.88213086  1
  O  O423  1  0.63252119  0.13156929  0.37941048  1
  O  O424  1  0.63962471  0.12488920  0.87647178  1
  O  O425  1  0.63493607  0.63101498  0.38228553  1
  O  O426  1  0.62508447  0.57403863  0.87662739  1
