# generated using pymatgen
data_V85Zn86O256
_symmetry_space_group_name_H-M   'P 1'
_cell_length_a   16.99618693
_cell_length_b   16.97510735
_cell_length_c   16.99189622
_cell_angle_alpha   90.03080145
_cell_angle_beta   89.96671777
_cell_angle_gamma   90.24942603
_symmetry_Int_Tables_number   1
_chemical_formula_structural   V85Zn86O256
_chemical_formula_sum   'V85 Zn86 O256'
_cell_volume   4902.31963768
_cell_formula_units_Z   1
loop_
 _symmetry_equiv_pos_site_id
 _symmetry_equiv_pos_as_xyz
  1  'x, y, z'
loop_
 _atom_site_type_symbol
 _atom_site_label
 _atom_site_symmetry_multiplicity
 _atom_site_fract_x
 _atom_site_fract_y
 _atom_site_fract_z
 _atom_site_occupancy
  V  V0  1  0.24629305  0.62635018  0.87770065  1
  V  V1  1  0.24537737  0.37207725  0.12188785  1
  V  V2  1  0.76155976  0.00434378  0.25611874  1
  V  V3  1  0.49778060  0.50276138  0.00185783  1
  V  V4  1  -0.00879702  0.88920616  0.37911688  1
  V  V5  1  0.63107951  0.62628627  0.00064093  1
  V  V6  1  0.62073720  0.74992620  0.87676202  1
  V  V7  1  0.87581510  0.62539976  0.24812757  1
  V  V8  1  0.12533189  0.74828609  0.87984174  1
  V  V9  1  0.37039013  0.36999435  0.00050655  1
  V  V10  1  0.37513285  0.63004033  0.24358294  1
  V  V11  1  0.00215385  0.24877763  0.74803748  1
  V  V12  1  0.62097264  0.51404027  0.62478345  1
  V  V13  1  0.49189374  0.23764319  0.74943230  1
  V  V14  1  -0.00986987  0.25504538  0.25060998  1
  V  V15  1  0.62032978  0.37450227  0.25291916  1
  V  V16  1  0.49830862  0.37880136  0.87245948  1
  V  V17  1  0.38476264  0.62898961  0.74597336  1
  V  V18  1  0.87588666  0.75723209  0.11953944  1
  V  V19  1  0.37368951  0.87090909  0.00534319  1
  V  V20  1  0.86690097  0.50257985  0.87522224  1
  V  V21  1  0.25151106  0.74830881  0.00373127  1
  V  V22  1  0.00203399  0.75228225  0.24974900  1
  V  V23  1  0.62124459  0.50211507  0.12682422  1
  V  V24  1  0.50589775  0.11372646  0.61277070  1
  V  V25  1  0.12899175  0.12311613  -0.00105881  1
  V  V26  1  0.49874619  0.37602994  0.37756079  1
  V  V27  1  -0.00877216  0.87311060  0.87947589  1
  V  V28  1  0.12922769  0.24935672  0.88068274  1
  V  V29  1  0.62317169  0.87656963  0.25783879  1
  V  V30  1  0.12562702  0.75380327  0.37389002  1
  V  V31  1  0.74844427  0.49991944  0.24994069  1
  V  V32  1  0.74297439  0.24503234  0.49926226  1
  V  V33  1  0.87599584  0.49834444  0.37538336  1
  V  V34  1  0.62464434  -0.00014794  0.12844557  1
  V  V35  1  0.49894193  0.75204191  0.24712422  1
  V  V36  1  0.36702864  -0.00091422  0.36796823  1
  V  V37  1  0.38122830  0.75514278  0.62825919  1
  V  V38  1  0.24971133  0.37443172  0.62576211  1
  V  V39  1  -0.00475696  0.12350923  0.13077402  1
  V  V40  1  0.76277758  0.76480612  0.49494447  1
  V  V41  1  0.24329159  0.49635254  0.24915733  1
  V  V42  1  0.86487168  0.62665426  0.75076081  1
  V  V43  1  0.37277710  0.50213125  0.87527956  1
  V  V44  1  0.12867204  -0.00175156  0.62045854  1
  V  V45  1  0.25059609  0.87510584  0.13068751  1
  V  V46  1  -0.00565764  0.37301678  0.87785375  1
  V  V47  1  0.25338971  0.12513606  0.87487697  1
  V  V48  1  0.62039317  0.37540756  0.74788495  1
  V  V49  1  0.12396094  0.62217691  0.50214535  1
  V  V50  1  0.00196112  0.74552355  0.74860276  1
  V  V51  1  0.75072627  0.75943156  0.00118404  1
  V  V52  1  0.74788646  0.37941922  0.62186621  1
  V  V53  1  0.24970495  0.62648469  0.37450974  1
  V  V54  1  0.49913153  0.51089901  0.50433116  1
  V  V55  1  0.12743437  0.87538344  0.74634253  1
  V  V56  1  0.87899946  0.75542677  0.61942903  1
  V  V57  1  0.75078385  0.62456703  0.37717470  1
  V  V58  1  0.12321433  0.49896020  0.11995865  1
  V  V59  1  0.62087538  0.24314664  0.37955428  1
  V  V60  1  0.87638559  0.37199891  0.49673023  1
  V  V61  1  0.00250057  0.11975899  0.62243261  1
  V  V62  1  0.49420249  0.12387497  0.13530550  1
  V  V63  1  0.25116375  0.00089355  0.74773935  1
  V  V64  1  0.25010940  0.75802532  0.50790787  1
  V  V65  1  0.12620056  0.25454507  0.36417540  1
  V  V66  1  -0.00567397  0.49684240  -0.00069018  1
  V  V67  1  -0.00753942  -0.00701413  -0.00390046  1
  V  V68  1  0.76477271  0.12764240  0.36997928  1
  V  V69  1  0.75211745  0.36750557  0.11985893  1
  V  V70  1  0.12558260  0.37540571  0.75059921  1
  V  V71  1  0.62300684  0.75351325  0.37328815  1
  V  V72  1  0.37424463  0.00463234  0.87366649  1
  V  V73  1  0.25139924  0.24454255  0.49728493  1
  V  V74  1  0.37414840  0.50169913  0.37553685  1
  V  V75  1  0.00475873  0.62590181  0.11808566  1
  V  V76  1  0.49949705  0.00102196  0.00358315  1
  V  V77  1  0.12528511  0.12346453  0.49536441  1
  V  V78  1  0.50356431  0.87255895  0.87172955  1
  V  V79  1  0.87219838  0.11854278  0.75752759  1
  V  V80  1  0.24859481  0.50043422  0.74996846  1
  V  V81  1  0.13153064  0.00031919  0.13074504  1
  V  V82  1  0.37383836  0.37493418  0.50186819  1
  V  V83  1  0.51455015  -0.00857752  0.49037833  1
  V  V84  1  0.37181391  0.24764933  0.13143375  1
  Zn  Zn85  1  0.13254562  0.88246438  0.25475293  1
  Zn  Zn86  1  0.12250051  0.49843024  0.62524543  1
  Zn  Zn87  1  0.64002709  0.13544041  0.00076326  1
  Zn  Zn88  1  0.37144315  0.24032140  0.62831156  1
  Zn  Zn89  1  0.63666380  0.25680911  0.88290333  1
  Zn  Zn90  1  0.69604783  0.92139411  0.68264604  1
  Zn  Zn91  1  0.75666115  0.88122019  0.12599315  1
  Zn  Zn92  1  0.37651014  0.87840342  0.50270886  1
  Zn  Zn93  1  0.00565100  0.37803950  0.36783569  1
  Zn  Zn94  1  0.86777499  0.24098138  0.12108951  1
  Zn  Zn95  1  0.49099377  0.24197102  0.25878581  1
  Zn  Zn96  1  0.00014212  0.61945745  0.62347728  1
  Zn  Zn97  1  0.74876988  0.12421818  0.87208258  1
  Zn  Zn98  1  -0.06193973  -0.06018417  0.54883097  1
  Zn  Zn99  1  0.62376551  0.63180998  0.50410086  1
  Zn  Zn100  1  0.87360388  0.25162576  0.62299325  1
  Zn  Zn101  1  0.00105541  0.49619149  0.49994091  1
  Zn  Zn102  1  0.49491874  0.63160423  0.12269218  1
  Zn  Zn103  1  0.26274287  0.12324464  0.33676947  1
  Zn  Zn104  1  0.54092281  0.79031586  0.71483044  1
  Zn  Zn105  1  0.74485453  0.50896321  0.75317241  1
  Zn  Zn106  1  0.81610294  0.31068770  -0.04316833  1
  Zn  Zn107  1  0.18410980  0.19025288  0.18346091  1
  Zn  Zn108  1  0.18916552  0.18600682  0.68825754  1
  Zn  Zn109  1  0.18706015  0.68617113  0.18752233  1
  Zn  Zn110  1  0.19217092  0.68646090  0.68778270  1
  Zn  Zn111  1  0.68054464  0.18618268  0.19203820  1
  Zn  Zn112  1  0.68350984  0.18809140  0.68757334  1
  Zn  Zn113  1  0.68811002  0.68832140  0.18527922  1
  Zn  Zn114  1  0.68679274  0.71618954  0.67905568  1
  Zn  Zn115  1  0.30898268  0.31475248  0.31271030  1
  Zn  Zn116  1  0.31277700  0.31173070  0.81329851  1
  Zn  Zn117  1  0.31766004  0.81602778  0.31792766  1
  Zn  Zn118  1  0.31483046  0.81571799  0.81243513  1
  Zn  Zn119  1  0.81178146  0.31145457  0.31044905  1
  Zn  Zn120  1  0.81159868  0.31177614  0.79847957  1
  Zn  Zn121  1  0.81341728  0.81623518  0.30791442  1
  Zn  Zn122  1  0.80001301  0.80509746  0.81956827  1
  Zn  Zn123  1  0.18866773  0.43564837  0.43754230  1
  Zn  Zn124  1  0.18325029  0.43958248  0.94009695  1
  Zn  Zn125  1  0.19158580  0.93908893  0.43522169  1
  Zn  Zn126  1  0.18443229  0.93577212  0.93883209  1
  Zn  Zn127  1  0.68448537  0.43903343  0.43966793  1
  Zn  Zn128  1  0.68265961  0.44162174  0.93762893  1
  Zn  Zn129  1  0.73264817  0.97877868  0.48693031  1
  Zn  Zn130  1  0.69141097  0.94815678  0.93873534  1
  Zn  Zn131  1  0.31173792  0.06330963  0.06678923  1
  Zn  Zn132  1  0.32208289  0.06198901  0.56091195  1
  Zn  Zn133  1  0.31085137  0.56156105  0.06144721  1
  Zn  Zn134  1  0.31058588  0.56633978  0.56514295  1
  Zn  Zn135  1  0.81236916  0.05998886  0.06097107  1
  Zn  Zn136  1  0.81362875  0.05828005  0.60053356  1
  Zn  Zn137  1  0.81162366  0.56305013  0.06309182  1
  Zn  Zn138  1  0.81495106  0.56466269  0.56367468  1
  Zn  Zn139  1  0.43367128  0.43920643  0.18851632  1
  Zn  Zn140  1  0.43494370  0.44022903  0.68532131  1
  Zn  Zn141  1  0.43702679  0.93270340  0.19187913  1
  Zn  Zn142  1  0.43379279  0.94218467  0.68398686  1
  Zn  Zn143  1  0.93555419  0.43656934  0.18735259  1
  Zn  Zn144  1  0.93748135  0.44005046  0.68762751  1
  Zn  Zn145  1  0.94576925  0.93787918  0.18978617  1
  Zn  Zn146  1  0.88920108  0.90914112  0.72760803  1
  Zn  Zn147  1  0.06561080  0.06853470  0.31078892  1
  Zn  Zn148  1  0.06110658  0.06026880  0.81222913  1
  Zn  Zn149  1  0.06174904  0.56373626  0.31104392  1
  Zn  Zn150  1  0.06059306  0.56126931  0.81523419  1
  Zn  Zn151  1  0.56193977  0.05689572  0.31768501  1
  Zn  Zn152  1  0.56942988  0.06400112  0.81804350  1
  Zn  Zn153  1  0.56042284  0.56583665  0.31446413  1
  Zn  Zn154  1  0.56428653  0.56577775  0.81424474  1
  Zn  Zn155  1  0.43548732  0.18021314  0.43935514  1
  Zn  Zn156  1  0.47717356  0.20780764  0.95807971  1
  Zn  Zn157  1  0.43479486  0.69217917  0.43597450  1
  Zn  Zn158  1  0.43681524  0.68602359  0.93703779  1
  Zn  Zn159  1  0.93330763  0.07489392  0.43922245  1
  Zn  Zn160  1  0.94048624  0.18105259  0.94044644  1
  Zn  Zn161  1  0.94172364  0.68734600  0.43372599  1
  Zn  Zn162  1  0.93429951  0.68456784  0.93712436  1
  Zn  Zn163  1  0.05699849  0.31231091  0.06318788  1
  Zn  Zn164  1  0.06434353  0.31021205  0.55884167  1
  Zn  Zn165  1  0.06684066  0.81362222  0.06356329  1
  Zn  Zn166  1  0.06446216  0.81031194  0.56167448  1
  Zn  Zn167  1  0.55927977  0.31575758  0.06916582  1
  Zn  Zn168  1  0.55910223  0.31508392  0.56558127  1
  Zn  Zn169  1  0.56400899  0.81604768  0.06480536  1
  Zn  Zn170  1  0.57601220  0.82253001  0.55232553  1
  O  O171  1  0.11652200  0.11927288  0.11356757  1
  O  O172  1  0.11996522  0.11848664  0.61970337  1
  O  O173  1  0.11320904  0.61549017  0.12930346  1
  O  O174  1  0.12652422  0.62412010  0.61345804  1
  O  O175  1  0.61590737  0.11443871  0.12356661  1
  O  O176  1  0.60380391  0.12881917  0.63524348  1
  O  O177  1  0.62087732  0.61925435  0.11898578  1
  O  O178  1  0.63461035  0.61677558  0.62511083  1
  O  O179  1  0.37802621  0.38232772  0.38123087  1
  O  O180  1  0.37610614  0.38190272  0.88262194  1
  O  O181  1  0.36980781  0.88942786  0.38455413  1
  O  O182  1  0.38007947  0.88364065  0.88585694  1
  O  O183  1  0.87287182  0.38049841  0.38173435  1
  O  O184  1  0.87896127  0.38369746  0.87132920  1
  O  O185  1  0.89362096  0.87063849  0.37178070  1
  O  O186  1  0.89215081  0.86555171  0.86861960  1
  O  O187  1  0.26046273  0.00579104  0.37580675  1
  O  O188  1  0.25385385  0.00488979  0.87003990  1
  O  O189  1  0.25303976  0.50410599  0.36636098  1
  O  O190  1  0.25212491  0.50838109  0.87240183  1
  O  O191  1  0.74621680  0.02216042  0.37381105  1
  O  O192  1  0.71741064  -0.00210777  0.83684725  1
  O  O193  1  0.75358674  0.50705340  0.36993572  1
  O  O194  1  0.76168734  0.49535697  0.87319736  1
  O  O195  1  0.24117170  0.49588806  0.12899888  1
  O  O196  1  0.24673158  0.49294838  0.63221534  1
  O  O197  1  0.24138755  0.98642796  0.11458269  1
  O  O198  1  0.24136154  1.00971405  0.63760420  1
  O  O199  1  0.74155766  0.49238725  0.13085489  1
  O  O200  1  0.74095794  0.49324405  0.62438446  1
  O  O201  1  0.73934122  1.00257829  0.13709378  1
  O  O202  1  0.72520216  0.99546986  0.60209386  1
  O  O203  1  -0.00098624  0.36115144  0.24546098  1
  O  O204  1  0.00469190  0.36637749  0.75555258  1
  O  O205  1  0.00788623  0.87147471  0.26316562  1
  O  O206  1  0.00711974  0.86198715  0.75976996  1
  O  O207  1  0.50792523  0.37868333  0.25776857  1
  O  O208  1  0.50621352  0.37650148  0.75260778  1
  O  O209  1  0.51226462  0.86569475  0.24971325  1
  O  O210  1  0.49254887  0.88048037  0.76674721  1
  O  O211  1  0.50368484  0.12245792  0.23825651  1
  O  O212  1  0.49954417  0.13628031  0.75184011  1
  O  O213  1  0.49129083  0.63119998  0.24840353  1
  O  O214  1  0.48416557  0.62545527  0.75781477  1
  O  O215  1  1.00548733  0.13522433  0.23875251  1
  O  O216  1  0.99812935  0.13170788  0.74424416  1
  O  O217  1  0.99524038  0.63112968  0.24019551  1
  O  O218  1  0.99696903  0.63588151  0.75125584  1
  O  O219  1  0.38488385  0.26472249  0.00976870  1
  O  O220  1  0.36476783  0.25555860  0.49916039  1
  O  O221  1  0.36396667  0.76042995  -0.00691214  1
  O  O222  1  0.36760893  0.74910945  0.51051289  1
  O  O223  1  0.89279880  0.25304226  0.01051525  1
  O  O224  1  0.85747011  0.26510103  0.50340259  1
  O  O225  1  0.86383578  0.74193596  0.00856886  1
  O  O226  1  0.87008009  0.74586226  0.50210623  1
  O  O227  1  0.13329951  0.24185792  0.49203512  1
  O  O228  1  0.11432733  0.23856380  0.98838933  1
  O  O229  1  0.13118815  0.74275099  0.49271844  1
  O  O230  1  0.13464683  0.75631415  0.98687805  1
  O  O231  1  0.63217637  0.26386989  0.48966819  1
  O  O232  1  0.59138883  0.24157814  0.99202357  1
  O  O233  1  0.64246719  0.74864524  0.48977434  1
  O  O234  1  0.63042293  0.74434488  1.00036399  1
  O  O235  1  0.49016746  0.24142386  0.13152844  1
  O  O236  1  0.49819641  0.24556002  0.63652644  1
  O  O237  1  0.50533577  0.75001636  0.14149302  1
  O  O238  1  0.48335863  0.74774255  0.62176791  1
  O  O239  1  1.00599355  0.24088093  0.13691945  1
  O  O240  1  1.00672453  0.23989046  0.63476362  1
  O  O241  1  0.99726773  0.74364754  0.12640269  1
  O  O242  1  0.99951941  0.74353542  0.63354224  1
  O  O243  1  0.00857682  0.25010578  0.35556379  1
  O  O244  1  0.00974346  0.25170534  0.86546885  1
  O  O245  1  0.01050524  0.75669178  0.36975004  1
  O  O246  1  0.00843329  0.75200828  0.87152912  1
  O  O247  1  0.50382498  0.25682919  0.37766068  1
  O  O248  1  0.49720362  0.26147514  0.85775374  1
  O  O249  1  0.51514878  0.74141757  0.36625367  1
  O  O250  1  0.50554636  0.76109845  0.88376190  1
  O  O251  1  0.24152551  0.13723393  0.50839289  1
  O  O252  1  0.23756906  0.11813316  0.99045108  1
  O  O253  1  0.24241679  0.63260756  0.49291774  1
  O  O254  1  0.25736580  0.63408710  0.98782632  1
  O  O255  1  0.74877155  0.14112382  0.48495710  1
  O  O256  1  0.73941545  0.08133845  0.98083285  1
  O  O257  1  0.75180370  0.62881905  0.48541634  1
  O  O258  1  0.73723161  0.63485143  1.00933055  1
  O  O259  1  0.26018515  0.38385491  0.00830316  1
  O  O260  1  0.25385475  0.36470287  0.50475970  1
  O  O261  1  0.25599032  0.86737108  0.00451351  1
  O  O262  1  0.24693444  0.86028748  0.49894834  1
  O  O263  1  0.73971091  0.37688946  0.01567612  1
  O  O264  1  0.75346003  0.37241338  0.50600827  1
  O  O265  1  0.74399768  0.86542681  0.00587667  1
  O  O266  1  0.75827010  0.86186144  0.48592625  1
  O  O267  1  0.13554294  0.50561317  0.23979212  1
  O  O268  1  0.13060120  0.49282954  0.75278450  1
  O  O269  1  0.12047924  1.00123474  0.23451578  1
  O  O270  1  0.12982345  0.99372988  0.74323940  1
  O  O271  1  0.62796606  0.49306077  0.24863916  1
  O  O272  1  0.62499468  0.49580583  0.74321695  1
  O  O273  1  0.62988621  0.99355079  0.24694705  1
  O  O274  1  0.65384970  0.99013738  0.78066674  1
  O  O275  1  0.38292985  -0.00641837  0.26837039  1
  O  O276  1  0.36233128  -0.00859258  0.76221920  1
  O  O277  1  0.36594202  0.50901904  0.25567527  1
  O  O278  1  0.36796045  0.50787911  0.75544772  1
  O  O279  1  0.85992667  -0.00608024  0.24453100  1
  O  O280  1  0.88381796  0.02058620  0.73970572  1
  O  O281  1  0.86850700  0.50531658  0.25488983  1
  O  O282  1  0.87238157  0.50901603  0.75654433  1
  O  O283  1  0.12275200  0.35999288  0.38280254  1
  O  O284  1  0.11956883  0.36631775  0.87238336  1
  O  O285  1  0.12038643  0.86772325  0.37343473  1
  O  O286  1  0.11748236  0.86620847  0.86652852  1
  O  O287  1  0.61988485  0.37001543  0.36821497  1
  O  O288  1  0.61768490  0.37911348  0.86351871  1
  O  O289  1  0.63288327  0.86078630  0.36385646  1
  O  O290  1  0.61234362  0.86338328  0.88616302  1
  O  O291  1  0.38292544  0.13714825  0.11582944  1
  O  O292  1  0.39570538  0.12684749  0.62351206  1
  O  O293  1  0.37270099  0.62196398  0.13947643  1
  O  O294  1  0.36757356  0.63608321  0.63605718  1
  O  O295  1  0.89098907  0.12154237  0.11880533  1
  O  O296  1  0.88914159  0.13464271  0.63400818  1
  O  O297  1  0.88441705  0.63223446  0.12962612  1
  O  O298  1  0.88055588  0.63480925  0.63139826  1
  O  O299  1  0.25523060  0.26536953  0.12490490  1
  O  O300  1  0.25117711  0.25513325  0.61781049  1
  O  O301  1  0.23905044  0.75646036  0.11050465  1
  O  O302  1  0.25761915  0.74605045  0.61501430  1
  O  O303  1  0.74566773  0.26275046  0.13125940  1
  O  O304  1  0.74385800  0.26239289  0.61585084  1
  O  O305  1  0.75955726  0.75355215  0.12073065  1
  O  O306  1  0.76593603  0.74632079  0.60217617  1
  O  O307  1  0.24406091  0.24662907  0.38095130  1
  O  O308  1  0.23898438  0.24000223  0.86872842  1
  O  O309  1  0.24191084  0.74626947  0.38190854  1
  O  O310  1  0.24374226  0.74580864  0.88088885  1
  O  O311  1  0.74107089  0.24472333  0.37711629  1
  O  O312  1  0.75377276  0.25320846  0.87800104  1
  O  O313  1  0.74996675  0.74286859  0.37938958  1
  O  O314  1  0.73566922  0.75098036  0.89102276  1
  O  O315  1  0.01083492  0.10943702  0.00304355  1
  O  O316  1  0.01442729  0.12677387  0.50855192  1
  O  O317  1  -0.00347805  0.61627417  0.01094622  1
  O  O318  1  0.01335698  0.62414061  0.49806612  1
  O  O319  1  0.49847937  0.10798476  0.01231590  1
  O  O320  1  0.50601327  0.11561719  0.50825467  1
  O  O321  1  0.50394668  0.62031470  0.00524464  1
  O  O322  1  0.50194507  0.61424642  0.49294198  1
  O  O323  1  0.49312602  0.38552878  0.49608579  1
  O  O324  1  0.49006988  0.38411679  0.99440079  1
  O  O325  1  0.49949446  0.88722148  0.50490953  1
  O  O326  1  0.49053411  0.88176884  0.99744828  1
  O  O327  1  0.98728543  0.37175754  0.49673202  1
  O  O328  1  1.00219104  0.38842647  0.99460097  1
  O  O329  1  1.00816438  0.87583935  0.48411549  1
  O  O330  1  1.00904873  0.88484406  0.99386358  1
  O  O331  1  0.49478679  0.49571129  0.38362215  1
  O  O332  1  0.49211372  0.49709836  0.88119051  1
  O  O333  1  0.48981752  1.00467576  0.38764163  1
  O  O334  1  0.49364610  0.99468003  0.88439182  1
  O  O335  1  0.99242177  0.49665573  0.37501112  1
  O  O336  1  0.99236848  0.49443243  0.88193826  1
  O  O337  1  0.99837422  0.99480600  0.37395586  1
  O  O338  1  1.00791511  0.99023413  0.88790203  1
  O  O339  1  0.01010032  0.00316901  0.11589960  1
  O  O340  1  0.01324376  0.01101559  0.62209911  1
  O  O341  1  0.00332706  0.50496291  0.11946252  1
  O  O342  1  0.00497702  0.50207232  0.61972719  1
  O  O343  1  0.50324783  0.00398422  0.12307980  1
  O  O344  1  0.50078311  0.00684801  0.61562248  1
  O  O345  1  0.50487179  0.49985370  0.11941489  1
  O  O346  1  0.50867599  0.49762098  0.61495291  1
  O  O347  1  0.25597620  0.38943278  0.23813573  1
  O  O348  1  0.24514723  0.38015139  0.74704373  1
  O  O349  1  0.25144483  0.86291007  0.23386761  1
  O  O350  1  0.23555561  0.88540119  0.75900588  1
  O  O351  1  0.73757302  0.37960595  0.24411897  1
  O  O352  1  0.73851000  0.37714208  0.73652657  1
  O  O353  1  0.74129587  0.88513120  0.24941404  1
  O  O354  1  0.78258536  0.86965148  0.73433207  1
  O  O355  1  0.25160007  0.11839272  0.22816408  1
  O  O356  1  0.24239821  0.11361630  0.76388933  1
  O  O357  1  0.25629007  0.61874395  0.25418580  1
  O  O358  1  0.25617434  0.62068217  0.76122394  1
  O  O359  1  0.74553680  0.12092021  0.26216503  1
  O  O360  1  0.77013627  0.13711787  0.74469354  1
  O  O361  1  0.75499876  0.62142802  0.25769257  1
  O  O362  1  0.76332026  0.63240671  0.74220914  1
  O  O363  1  0.37134073  0.11045704  0.37969872  1
  O  O364  1  0.36393100  0.11070041  0.88541422  1
  O  O365  1  0.36832699  0.62017963  0.36715404  1
  O  O366  1  0.36498352  0.62240371  0.86794810  1
  O  O367  1  0.86318697  0.13487419  0.37084906  1
  O  O368  1  0.87792730  0.12618766  0.86022220  1
  O  O369  1  0.86886702  0.62004873  0.36812451  1
  O  O370  1  0.88070289  0.61491616  0.86305293  1
  O  O371  1  0.13397110  0.38565699  0.11708916  1
  O  O372  1  0.13195796  0.37354499  0.63227227  1
  O  O373  1  0.13342009  0.88294318  0.12758927  1
  O  O374  1  0.11671207  0.88548308  0.63582509  1
  O  O375  1  0.62921624  0.38068614  0.13561106  1
  O  O376  1  0.62928551  0.38755121  0.63041014  1
  O  O377  1  0.62579440  0.88640018  0.13751589  1
  O  O378  1  0.63042279  0.82919781  0.64985230  1
  O  O379  1  0.12073140  0.24927619  0.25920825  1
  O  O380  1  0.11928913  0.25342627  0.75923143  1
  O  O381  1  0.12132632  0.74891687  0.26082882  1
  O  O382  1  0.12114605  0.75635903  0.75621293  1
  O  O383  1  0.61830201  0.26132783  0.25946582  1
  O  O384  1  0.61186353  0.26529029  0.74784797  1
  O  O385  1  0.62179195  0.75578257  0.25514579  1
  O  O386  1  0.62199440  0.73082457  0.77386668  1
  O  O387  1  0.37583720  0.25955942  0.23656973  1
  O  O388  1  0.38850988  0.25589477  0.74777063  1
  O  O389  1  0.38649140  0.74075540  0.26179257  1
  O  O390  1  0.36754100  0.74534277  0.73804377  1
  O  O391  1  0.88589486  0.25100869  0.24318838  1
  O  O392  1  0.89057721  0.24460854  0.74553804  1
  O  O393  1  0.88159209  0.74468827  0.24079201  1
  O  O394  1  0.88637711  0.74261933  0.74219174  1
  O  O395  1  0.37961388  0.49796139  0.49591247  1
  O  O396  1  0.37849906  0.49361463  0.99491197  1
  O  O397  1  0.38464476  0.99602787  0.49398815  1
  O  O398  1  0.38060446  0.99084532  0.99399232  1
  O  O399  1  0.87353979  0.48958074  0.49337147  1
  O  O400  1  0.88350848  0.50723647  0.99030138  1
  O  O401  1  0.86571407  1.01214750  0.50635699  1
  O  O402  1  0.89475714  0.99604389  1.00568553  1
  O  O403  1  0.11991263  0.00584545  0.00831572  1
  O  O404  1  0.13767490  0.01065714  0.51053179  1
  O  O405  1  0.11312862  0.50220915  0.01005692  1
  O  O406  1  0.12640667  0.51079250  0.49834545  1
  O  O407  1  0.60958840  -0.01073995  0.01540663  1
  O  O408  1  0.61256503  -0.00622518  0.48397734  1
  O  O409  1  0.61822500  0.50869078  0.00551310  1
  O  O410  1  0.61623080  0.50434935  0.50720147  1
  O  O411  1  0.36704155  0.37152960  0.11786888  1
  O  O412  1  0.36658255  0.37428480  0.61797043  1
  O  O413  1  0.36673615  0.88091993  0.11317296  1
  O  O414  1  0.37388512  0.85983473  0.62654112  1
  O  O415  1  0.85315945  0.37727487  0.12994768  1
  O  O416  1  0.86358720  0.37580411  0.61889983  1
  O  O417  1  0.87959433  0.86043152  0.12994324  1
  O  O418  1  0.89846509  0.85852585  0.62035690  1
  O  O419  1  0.12797029  0.13322777  0.38388614  1
  O  O420  1  0.13099807  0.12931024  0.88072868  1
  O  O421  1  0.12945322  0.63452092  0.38051659  1
  O  O422  1  0.13517618  0.63612212  0.86816633  1
  O  O423  1  0.62445669  0.14180204  0.36917076  1
  O  O424  1  0.62932929  0.13865479  0.87737204  1
  O  O425  1  0.63711088  0.63409588  0.37299027  1
  O  O426  1  0.61534262  0.63245739  0.89377472  1
