# generated using pymatgen
data_V85Zn86O256
_symmetry_space_group_name_H-M   'P 1'
_cell_length_a   16.94808782
_cell_length_b   16.96247398
_cell_length_c   16.94632123
_cell_angle_alpha   89.95386423
_cell_angle_beta   90.05777984
_cell_angle_gamma   89.89563575
_symmetry_Int_Tables_number   1
_chemical_formula_structural   V85Zn86O256
_chemical_formula_sum   'V85 Zn86 O256'
_cell_volume   4871.74168136
_cell_formula_units_Z   1
loop_
 _symmetry_equiv_pos_site_id
 _symmetry_equiv_pos_as_xyz
  1  'x, y, z'
loop_
 _atom_site_type_symbol
 _atom_site_label
 _atom_site_symmetry_multiplicity
 _atom_site_fract_x
 _atom_site_fract_y
 _atom_site_fract_z
 _atom_site_occupancy
  V  V0  1  0.49392798  0.61824265  0.11894227  1
  V  V1  1  0.49756852  0.12592115  0.62855811  1
  V  V2  1  0.87250801  -0.00800429  0.88027333  1
  V  V3  1  0.74860362  0.62682665  0.87387915  1
  V  V4  1  0.25350533  0.75616763  0.49852355  1
  V  V5  1  0.00637850  0.24943806  0.25508875  1
  V  V6  1  0.87423357  0.12551025  0.75008110  1
  V  V7  1  0.25426941  0.24218951  -0.00566642  1
  V  V8  1  0.74606885  0.38069815  0.62329526  1
  V  V9  1  0.87437069  0.37663599  0.49755160  1
  V  V10  1  0.62725338  0.12863397  0.00317246  1
  V  V11  1  0.74842396  0.87962559  0.62344082  1
  V  V12  1  -0.00171804  0.50147148  0.49692526  1
  V  V13  1  0.00146753  0.87101506  0.36657400  1
  V  V14  1  0.87830130  0.50117571  0.87862690  1
  V  V15  1  -0.00248662  -0.00562850  0.00035463  1
  V  V16  1  0.37811990  0.75643482  0.12451868  1
  V  V17  1  0.37065855  -0.01695541  0.87889706  1
  V  V18  1  0.25223693  -0.00860388  0.25590404  1
  V  V19  1  0.38964915  0.37750740  -0.00032102  1
  V  V20  1  0.50277440  0.61419551  0.62392754  1
  V  V21  1  0.61998628  0.00104987  0.62577268  1
  V  V22  1  0.36500940  0.62408985  0.75606432  1
  V  V23  1  0.74997961  0.49901927  0.24402105  1
  V  V24  1  0.24987113  0.62436482  0.37392771  1
  V  V25  1  0.87388865  0.76185776  0.11585598  1
  V  V26  1  0.62453944  0.37072994  0.26227094  1
  V  V27  1  -0.00386749  0.62734453  0.62127201  1
  V  V28  1  0.12674696  0.88019160  0.74250432  1
  V  V29  1  0.62517828  0.25398808  0.87888744  1
  V  V30  1  0.87476059  0.25043254  0.62441661  1
  V  V31  1  0.62382317  0.37854434  0.75195618  1
  V  V32  1  0.36775848  0.13028394  0.76735143  1
  V  V33  1  0.87700744  0.50254519  0.36961683  1
  V  V34  1  0.12292234  0.62823083  0.49617434  1
  V  V35  1  0.87232793  0.62783461  0.74791783  1
  V  V36  1  0.24669818  0.49745574  0.25019115  1
  V  V37  1  0.88134989  0.62420660  0.23969254  1
  V  V38  1  0.74760218  0.25168615  0.49736484  1
  V  V39  1  0.74581378  0.50403946  0.74595768  1
  V  V40  1  0.87218762  0.75264971  0.62313911  1
  V  V41  1  0.48348762  0.00124328  0.49846720  1
  V  V42  1  0.23905365  0.25255239  0.49400512  1
  V  V43  1  0.24920799  0.37734943  0.62635626  1
  V  V44  1  0.37262859  0.25098456  0.62811235  1
  V  V45  1  0.75003638  0.37067839  0.12054945  1
  V  V46  1  0.62106756  0.61807724  -0.00067960  1
  V  V47  1  0.49692271  -0.01257372  -0.00253367  1
  V  V48  1  0.26423059  0.75526013  -0.00800096  1
  V  V49  1  0.87586782  0.24937084  0.12057221  1
  V  V50  1  0.49668506  0.88406276  0.37973303  1
  V  V51  1  0.50354820  0.12009031  0.12770807  1
  V  V52  1  0.75017462  0.13085254  0.87939795  1
  V  V53  1  0.62356908  0.12834109  0.49792884  1
  V  V54  1  0.12751706  0.36916029  0.25714919  1
  V  V55  1  0.74677667  -0.00361092  0.24438798  1
  V  V56  1  0.50734228  0.74423306  0.26157749  1
  V  V57  1  0.61641534  0.87753317  0.75079882  1
  V  V58  1  0.00320904  0.11243405  0.62350984  1
  V  V59  1  -0.00094434  0.25043233  0.74959983  1
  V  V60  1  0.74949585  0.76310383  0.00106513  1
  V  V61  1  0.00252155  0.37589820  0.87944990  1
  V  V62  1  0.49993475  0.25494693  0.75606271  1
  V  V63  1  0.87473999  0.37257351  -0.00151330  1
  V  V64  1  0.01238623  0.60856934  0.10518567  1
  V  V65  1  0.50541339  0.25211242  0.26412491  1
  V  V66  1  0.61748290  0.75474844  0.87379769  1
  V  V67  1  0.37473211  0.12020130  0.25938129  1
  V  V68  1  0.24598354  0.37514708  0.12533985  1
  V  V69  1  0.12316473  0.50160239  0.62353861  1
  V  V70  1  0.38592565  0.49952483  0.88142050  1
  V  V71  1  0.37736777  0.24894930  0.12688181  1
  V  V72  1  0.38330470  0.49253032  0.38263875  1
  V  V73  1  0.12112099  0.11054289  0.50082308  1
  V  V74  1  0.12285319  0.37560838  0.74966440  1
  V  V75  1  0.74527025  0.00260613  0.75128848  1
  V  V76  1  0.88045295  0.00277612  0.37934473  1
  V  V77  1  0.37119697  0.75277265  0.62146263  1
  V  V78  1  0.74700373  0.13043394  0.37503116  1
  V  V79  1  0.13049981  0.12195559  -0.00627911  1
  V  V80  1  0.12617208  -0.00877387  0.12786644  1
  V  V81  1  0.49492812  0.75789319  0.75024163  1
  V  V82  1  0.12390181  0.74771408  0.88055478  1
  V  V83  1  0.87737986  0.12809988  0.25037412  1
  V  V84  1  0.88032937  0.88074194  0.50154928  1
  Zn  Zn85  1  0.38400753  0.36877967  0.49750499  1
  Zn  Zn86  1  0.73691636  0.75777486  0.48107705  1
  Zn  Zn87  1  0.00106201  0.75162120  0.75093611  1
  Zn  Zn88  1  0.24492573  0.88644408  0.61531892  1
  Zn  Zn89  1  0.61242326  0.49248439  0.11865617  1
  Zn  Zn90  1  0.24328736  0.12664470  0.37229102  1
  Zn  Zn91  1  0.24587935  0.50475943  0.75636719  1
  Zn  Zn92  1  0.52413048  0.48385015  0.50411059  1
  Zn  Zn93  1  0.63724718  0.85906663  0.25615169  1
  Zn  Zn94  1  0.13072416  0.24378904  0.87180970  1
  Zn  Zn95  1  0.00560014  0.37121223  0.37755510  1
  Zn  Zn96  1  0.19250549  0.58255026  0.92970429  1
  Zn  Zn97  1  0.01298617  0.75170173  0.23350485  1
  Zn  Zn98  1  0.25053663  0.87256148  0.12609483  1
  Zn  Zn99  1  0.00378096  0.12519288  0.12432979  1
  Zn  Zn100  1  0.73951627  0.64163279  0.36377936  1
  Zn  Zn101  1  -0.00291170  0.87327027  0.87532730  1
  Zn  Zn102  1  0.63048926  0.62451283  0.49077113  1
  Zn  Zn103  1  0.37319142  0.62085490  0.24488994  1
  Zn  Zn104  1  0.13177597  0.76004660  0.36474732  1
  Zn  Zn105  1  0.63665406  -0.02077605  0.11701659  1
  Zn  Zn106  1  0.24253770  0.00969291  0.75212829  1
  Zn  Zn107  1  0.18828641  0.18129986  0.18285166  1
  Zn  Zn108  1  0.18524146  0.18856880  0.68514567  1
  Zn  Zn109  1  0.18734629  0.68865106  0.18315803  1
  Zn  Zn110  1  0.18338641  0.69285680  0.68627422  1
  Zn  Zn111  1  0.68856014  0.18857428  0.18985034  1
  Zn  Zn112  1  0.68643237  0.19009560  0.68683762  1
  Zn  Zn113  1  0.68816022  0.68482869  0.18051401  1
  Zn  Zn114  1  0.66831892  0.70501698  0.65497871  1
  Zn  Zn115  1  0.31692902  0.31014731  0.31324195  1
  Zn  Zn116  1  0.31427549  0.32030150  0.81539182  1
  Zn  Zn117  1  0.32165987  0.80991469  0.31281987  1
  Zn  Zn118  1  0.30882043  0.81325703  0.80860881  1
  Zn  Zn119  1  0.81514981  0.31401527  0.31015965  1
  Zn  Zn120  1  0.81147164  0.31353845  0.81178714  1
  Zn  Zn121  1  0.82391266  0.81229185  0.30628948  1
  Zn  Zn122  1  0.80531848  0.81149532  0.80865005  1
  Zn  Zn123  1  0.18882727  0.43897763  0.43729975  1
  Zn  Zn124  1  0.19934444  0.42458276  0.93727663  1
  Zn  Zn125  1  0.18711094  0.93980299  0.43454631  1
  Zn  Zn126  1  0.18685498  0.93182366  0.93703021  1
  Zn  Zn127  1  0.68787504  0.45101911  0.43565219  1
  Zn  Zn128  1  0.69117660  0.43776925  0.93565666  1
  Zn  Zn129  1  0.68280135  0.93664395  0.43372387  1
  Zn  Zn130  1  0.68139232  0.94062657  0.93451319  1
  Zn  Zn131  1  0.31425359  0.05777391  0.06606263  1
  Zn  Zn132  1  0.30493985  0.07005253  0.57108324  1
  Zn  Zn133  1  0.29078841  0.55484387  0.05471670  1
  Zn  Zn134  1  0.31346450  0.56653871  0.56361122  1
  Zn  Zn135  1  0.81504281  0.06415408  0.06225534  1
  Zn  Zn136  1  0.81196002  0.06335939  0.56333012  1
  Zn  Zn137  1  0.81219432  0.56598110  0.05943571  1
  Zn  Zn138  1  0.80541798  0.56746236  0.55585468  1
  Zn  Zn139  1  0.43505588  0.43529806  0.19494842  1
  Zn  Zn140  1  0.43339500  0.43702550  0.69234885  1
  Zn  Zn141  1  0.44200264  0.93370696  0.19250678  1
  Zn  Zn142  1  0.40836589  0.95337856  0.67622719  1
  Zn  Zn143  1  0.94445235  0.43604209  0.18289609  1
  Zn  Zn144  1  0.93508235  0.43929122  0.68762858  1
  Zn  Zn145  1  0.93593911  0.94203496  0.18732075  1
  Zn  Zn146  1  0.93690884  0.93609771  0.69415267  1
  Zn  Zn147  1  0.06584276  0.06221142  0.31289662  1
  Zn  Zn148  1  0.05933565  0.06126153  0.81346938  1
  Zn  Zn149  1  0.06463777  0.56302810  0.30456010  1
  Zn  Zn150  1  0.05754910  0.56331773  0.80735617  1
  Zn  Zn151  1  0.56396421  0.06168118  0.31452032  1
  Zn  Zn152  1  0.55600464  0.06472114  0.81653398  1
  Zn  Zn153  1  0.56440068  0.55944507  0.30816665  1
  Zn  Zn154  1  0.55917755  0.56852967  0.80828449  1
  Zn  Zn155  1  0.43282134  0.18778912  0.44215633  1
  Zn  Zn156  1  0.44379661  0.18762098  0.94199521  1
  Zn  Zn157  1  0.43693259  0.68014561  0.44019216  1
  Zn  Zn158  1  0.43543728  0.68487530  0.93673338  1
  Zn  Zn159  1  0.93960981  0.18729497  0.43946492  1
  Zn  Zn160  1  0.94159016  0.18454576  0.93828951  1
  Zn  Zn161  1  0.92768817  0.69066553  0.43531068  1
  Zn  Zn162  1  0.93871550  0.68765983  0.93946518  1
  Zn  Zn163  1  0.06431184  0.31135898  0.06212588  1
  Zn  Zn164  1  0.06017866  0.31100927  0.56349513  1
  Zn  Zn165  1  0.06181723  0.80900387  0.06121866  1
  Zn  Zn166  1  0.06234465  0.81318287  0.55695348  1
  Zn  Zn167  1  0.56516240  0.30731248  0.07098948  1
  Zn  Zn168  1  0.56229183  0.31134556  0.56538353  1
  Zn  Zn169  1  0.56776366  0.80706581  0.07139632  1
  Zn  Zn170  1  0.55630985  0.81102503  0.56058902  1
  O  O171  1  0.12483437  0.11295627  0.11254880  1
  O  O172  1  0.11520549  0.13044710  0.61486944  1
  O  O173  1  0.10945092  0.63066122  0.12213905  1
  O  O174  1  0.11648346  0.62204991  0.61724276  1
  O  O175  1  0.61851773  0.12729908  0.11791557  1
  O  O176  1  0.61809236  0.12060486  0.62054977  1
  O  O177  1  0.61549760  0.62147654  0.11418291  1
  O  O178  1  0.60152859  0.61435808  0.64831685  1
  O  O179  1  0.37006501  0.38835864  0.37777409  1
  O  O180  1  0.37630014  0.38748243  0.88456540  1
  O  O181  1  0.39655435  0.86971975  0.37488471  1
  O  O182  1  0.37917783  0.88491480  0.86941010  1
  O  O183  1  0.87779423  0.38550922  0.37816129  1
  O  O184  1  0.87995051  0.37992123  0.87996866  1
  O  O185  1  0.88210702  0.88475693  0.38280902  1
  O  O186  1  0.87101271  0.88910948  0.86827167  1
  O  O187  1  0.24666899  0.00353785  0.35945283  1
  O  O188  1  0.26673251  -0.00538420  0.87601397  1
  O  O189  1  0.25619535  0.50587756  0.36898717  1
  O  O190  1  0.26121834  0.50022386  0.87029533  1
  O  O191  1  0.75882175  0.01194423  0.36751072  1
  O  O192  1  0.75287968  0.01066974  0.87183520  1
  O  O193  1  0.76404077  0.49715259  0.35699215  1
  O  O194  1  0.75889123  0.50488049  0.86513884  1
  O  O195  1  0.27123751  0.48365136  0.14448807  1
  O  O196  1  0.24324951  0.49052460  0.62376119  1
  O  O197  1  0.24408980  0.99478544  0.13263875  1
  O  O198  1  0.28896397  0.98779211  0.64534141  1
  O  O199  1  0.75574305  0.48810124  0.13176932  1
  O  O200  1  0.75917770  0.49198632  0.63541301  1
  O  O201  1  0.75285281  1.00811479  0.13969237  1
  O  O202  1  0.74187513  0.99911277  0.63182080  1
  O  O203  1  0.01218253  0.36767151  0.24832314  1
  O  O204  1  0.00227892  0.37039588  0.75682744  1
  O  O205  1  -0.01034306  0.87185204  0.26285780  1
  O  O206  1  0.01105527  0.87289786  0.75387398  1
  O  O207  1  0.51207480  0.36399013  0.24268938  1
  O  O208  1  0.51115055  0.36558724  0.74358648  1
  O  O209  1  0.50084832  0.85961011  0.26170083  1
  O  O210  1  0.49976709  0.86211286  0.74123472  1
  O  O211  1  0.49624120  0.12814137  0.24477092  1
  O  O212  1  0.49307105  0.13732151  0.74911055  1
  O  O213  1  0.49632642  0.63261116  0.24134720  1
  O  O214  1  0.48451709  0.63451923  0.74428977  1
  O  O215  1  0.99619165  0.13254221  0.24807801  1
  O  O216  1  0.99473763  0.13083716  0.74410158  1
  O  O217  1  0.99191476  0.62466290  0.23767930  1
  O  O218  1  0.98918803  0.62711943  0.73908300  1
  O  O219  1  0.37431599  0.25252471  0.00949102  1
  O  O220  1  0.36150237  0.24778577  0.51064257  1
  O  O221  1  0.37020863  0.75513799  0.00243738  1
  O  O222  1  0.36376013  0.73961121  0.50852052  1
  O  O223  1  0.88064933  0.25804519  0.00912412  1
  O  O224  1  0.86874092  0.25653748  0.50445039  1
  O  O225  1  0.86486414  0.74797915  0.00693837  1
  O  O226  1  0.87118423  0.76287830  0.51023351  1
  O  O227  1  0.13600066  0.24826757  0.50173845  1
  O  O228  1  0.13566066  0.24045635  1.00121413  1
  O  O229  1  0.13255624  0.74428056  0.49104205  1
  O  O230  1  0.13011789  0.75348112  0.98373404  1
  O  O231  1  0.63072646  0.23538815  0.50845421  1
  O  O232  1  0.61814151  0.24004808  0.99113352  1
  O  O233  1  0.63739182  0.73529863  0.53945257  1
  O  O234  1  0.62900273  0.74168440  0.99160399  1
  O  O235  1  0.49310752  0.23777563  0.13333961  1
  O  O236  1  0.49468638  0.24459178  0.63802055  1
  O  O237  1  0.49368507  0.73902014  0.13256759  1
  O  O238  1  0.48981375  0.73918563  0.63309027  1
  O  O239  1  0.99139242  0.25014644  0.13295033  1
  O  O240  1  0.99216796  0.24452004  0.63112560  1
  O  O241  1  0.98625068  0.74028486  0.11577151  1
  O  O242  1  0.98723922  0.74615487  0.62311536  1
  O  O243  1  -0.00717459  0.25263791  0.35962994  1
  O  O244  1  -0.00001667  0.26023221  0.86865530  1
  O  O245  1  -0.00592046  0.76510746  0.37381707  1
  O  O246  1  0.01047727  0.75319862  0.87548378  1
  O  O247  1  0.49506318  0.24523422  0.36305831  1
  O  O248  1  0.51224167  0.24695570  0.86638287  1
  O  O249  1  0.49710106  0.74733988  0.36488036  1
  O  O250  1  0.50872239  0.74268161  0.86459784  1
  O  O251  1  0.23784829  0.13698579  0.50517661  1
  O  O252  1  0.24603191  0.13353137  1.00820413  1
  O  O253  1  0.24265100  0.63189507  0.49200899  1
  O  O254  1  0.25412080  0.65123256  1.00131184  1
  O  O255  1  0.74333220  0.13000579  0.49445930  1
  O  O256  1  0.73876693  0.11931282  0.99159429  1
  O  O257  1  0.75416096  0.63651903  0.48649118  1
  O  O258  1  0.74106716  0.63358821  0.99275710  1
  O  O259  1  0.26626080  0.35960670  0.01173639  1
  O  O260  1  0.24878033  0.36521637  0.50868442  1
  O  O261  1  0.24527551  0.85991330  0.00660635  1
  O  O262  1  0.24293630  0.86131881  0.49769419  1
  O  O263  1  0.76181854  0.37667452  0.00788240  1
  O  O264  1  0.75391335  0.37237035  0.50648884  1
  O  O265  1  0.73973551  0.86259687  -0.00345192  1
  O  O266  1  0.75763232  0.87811779  0.50652315  1
  O  O267  1  0.13885740  0.48741421  0.25212645  1
  O  O268  1  0.12477188  0.49422713  0.74123587  1
  O  O269  1  0.14085049  1.00937729  0.24024710  1
  O  O270  1  0.12631028  0.98590920  0.75855818  1
  O  O271  1  0.63499080  0.48948308  0.24140972  1
  O  O272  1  0.63530398  0.49024736  0.76100426  1
  O  O273  1  0.64239534  1.00741469  0.24888993  1
  O  O274  1  0.62385042  0.99835696  0.74720849  1
  O  O275  1  0.36338118  0.00899440  0.24029686  1
  O  O276  1  0.38661034  0.01358209  0.77320313  1
  O  O277  1  0.36682531  0.49951889  0.26598455  1
  O  O278  1  0.37122780  0.50586545  0.76190665  1
  O  O279  1  0.86653293  0.00905331  0.25707934  1
  O  O280  1  0.86631969  0.00742916  0.75951977  1
  O  O281  1  0.87195172  0.50312695  0.25105723  1
  O  O282  1  0.86563674  0.50483305  0.75786417  1
  O  O283  1  0.12644480  0.37438041  0.36237331  1
  O  O284  1  0.11572805  0.37468489  0.87092589  1
  O  O285  1  0.10375475  0.88021161  0.38133729  1
  O  O286  1  0.12341045  0.86315607  0.86475270  1
  O  O287  1  0.63535369  0.37908814  0.36074493  1
  O  O288  1  0.63658859  0.36385448  0.86535591  1
  O  O289  1  0.60991575  0.87698593  0.36892260  1
  O  O290  1  0.62600449  0.86319939  0.86682149  1
  O  O291  1  0.38417368  0.13198106  0.13222353  1
  O  O292  1  0.38099464  0.13424678  0.63977168  1
  O  O293  1  0.38205297  0.63393370  0.12051383  1
  O  O294  1  0.37972510  0.63264608  0.63427040  1
  O  O295  1  0.87643720  0.13589008  0.12999051  1
  O  O296  1  0.88035679  0.13083522  0.62965436  1
  O  O297  1  0.88536019  0.62615193  0.12633033  1
  O  O298  1  0.87571077  0.63463330  0.62704837  1
  O  O299  1  0.26232349  0.25385321  0.12076510  1
  O  O300  1  0.25158716  0.25988263  0.61735919  1
  O  O301  1  0.26186035  0.75182166  0.11765662  1
  O  O302  1  0.25455450  0.74939545  0.61319082  1
  O  O303  1  0.76315863  0.25990837  0.13148167  1
  O  O304  1  0.75525997  0.25925212  0.61991200  1
  O  O305  1  0.76400541  0.74335914  0.11498586  1
  O  O306  1  0.76498243  0.76290289  0.63522794  1
  O  O307  1  0.25513245  0.24876147  0.39130629  1
  O  O308  1  0.24970522  0.25944563  0.89038506  1
  O  O309  1  0.25409446  0.74082139  0.38001775  1
  O  O310  1  0.24272577  0.75551176  0.88471317  1
  O  O311  1  0.75838769  0.23793848  0.37966611  1
  O  O312  1  0.74159358  0.23901119  0.86966669  1
  O  O313  1  0.75371496  0.75474805  0.36831381  1
  O  O314  1  0.73973380  0.74534921  0.87932626  1
  O  O315  1  0.01042466  0.11513198  0.00176739  1
  O  O316  1  0.01229645  0.12929153  0.50810801  1
  O  O317  1  -0.00087038  0.61834611  0.00493174  1
  O  O318  1  0.00125706  0.62145416  0.50143743  1
  O  O319  1  0.50908559  0.11896103  0.01057903  1
  O  O320  1  0.50592188  0.12092717  0.50530127  1
  O  O321  1  0.50932880  0.63096121  0.00767141  1
  O  O322  1  0.50249979  0.62490011  0.51786621  1
  O  O323  1  0.49529387  0.37609554  0.50814852  1
  O  O324  1  0.48878022  0.37007063  1.01177161  1
  O  O325  1  0.50537950  0.88606753  0.49007186  1
  O  O326  1  0.50804600  0.89014407  1.00769903  1
  O  O327  1  0.99315595  0.38184640  0.49883143  1
  O  O328  1  0.99098554  0.37114692  0.98959090  1
  O  O329  1  0.98610150  0.87517253  0.49220279  1
  O  O330  1  1.00551740  0.89091433  0.99623551  1
  O  O331  1  0.48443423  0.50718595  0.37838935  1
  O  O332  1  0.48588849  0.50321627  0.87052063  1
  O  O333  1  0.49963041  0.99196372  0.38095132  1
  O  O334  1  0.49445524  1.00312773  0.89201654  1
  O  O335  1  0.99211360  0.49867324  0.37694374  1
  O  O336  1  0.98842347  0.48876813  0.86618456  1
  O  O337  1  0.98668664  0.99240376  0.36676460  1
  O  O338  1  0.98774457  1.00042689  0.88220088  1
  O  O339  1  0.00581740  0.00277175  0.11854851  1
  O  O340  1  -0.00725918  0.01378484  0.62983847  1
  O  O341  1  0.00241708  0.50865084  0.12111116  1
  O  O342  1  0.00176622  0.50654167  0.61735799  1
  O  O343  1  0.49813592  0.00945066  0.11767352  1
  O  O344  1  0.49932855  0.00622179  0.61794879  1
  O  O345  1  0.49547911  0.51320774  0.13316603  1
  O  O346  1  0.48423543  0.51285181  0.62476010  1
  O  O347  1  0.24536740  0.37450952  0.24529594  1
  O  O348  1  0.24185214  0.37365251  0.73951570  1
  O  O349  1  0.25811710  0.88853634  0.25119560  1
  O  O350  1  0.23461367  0.87453980  0.74628069  1
  O  O351  1  0.74591933  0.37919598  0.23993469  1
  O  O352  1  0.74551118  0.38319515  0.74321649  1
  O  O353  1  0.75533290  0.89513769  0.25701040  1
  O  O354  1  0.73879888  0.88470403  0.74458811  1
  O  O355  1  0.25937519  0.11909522  0.25028901  1
  O  O356  1  0.26177896  0.12819135  0.74761472  1
  O  O357  1  0.25013124  0.61391372  0.25614769  1
  O  O358  1  0.26095720  0.62585139  0.74194745  1
  O  O359  1  0.75685891  0.12226109  0.25877295  1
  O  O360  1  0.75249291  0.12172939  0.75825684  1
  O  O361  1  0.76157136  0.61319215  0.24069883  1
  O  O362  1  0.75344190  0.61682784  0.75348823  1
  O  O363  1  0.37187385  0.12779255  0.36226344  1
  O  O364  1  0.37833978  0.12772405  0.87037660  1
  O  O365  1  0.36183269  0.61455591  0.37527799  1
  O  O366  1  0.37490752  0.61354760  0.86891980  1
  O  O367  1  0.86915008  0.11953839  0.37289187  1
  O  O368  1  0.86611139  0.12049524  0.87131126  1
  O  O369  1  0.87787560  0.61554502  0.35841228  1
  O  O370  1  0.87003562  0.61865030  0.86968793  1
  O  O371  1  0.14111448  0.36854885  0.13154139  1
  O  O372  1  0.12978258  0.38089936  0.62892429  1
  O  O373  1  0.12310448  0.88763021  0.12309901  1
  O  O374  1  0.12378591  0.86971611  0.63732024  1
  O  O375  1  0.63752162  0.37526623  0.12694365  1
  O  O376  1  0.63829568  0.36819368  0.63845052  1
  O  O377  1  0.62326023  0.87226734  0.14241266  1
  O  O378  1  0.62689809  0.88377667  0.63148370  1
  O  O379  1  0.11745193  0.25490859  0.24131464  1
  O  O380  1  0.11776481  0.25684701  0.75225670  1
  O  O381  1  0.12378013  0.74996408  0.25314337  1
  O  O382  1  0.12328871  0.76047645  0.75875415  1
  O  O383  1  0.61715812  0.25762145  0.24577017  1
  O  O384  1  0.61932580  0.25682416  0.75804499  1
  O  O385  1  0.61013705  0.74098318  0.24592755  1
  O  O386  1  0.61477106  0.75626912  0.75391025  1
  O  O387  1  0.38315587  0.24287739  0.24286905  1
  O  O388  1  0.38218449  0.24933253  0.75086412  1
  O  O389  1  0.38589148  0.74263743  0.24141258  1
  O  O390  1  0.37734640  0.74284048  0.74631481  1
  O  O391  1  0.88454182  0.24840996  0.24026109  1
  O  O392  1  0.87809770  0.24487536  0.74496600  1
  O  O393  1  0.87805586  0.73940832  0.23136068  1
  O  O394  1  0.87723241  0.74640445  0.74285621  1
  O  O395  1  0.36856667  0.49861007  0.48743011  1
  O  O396  1  0.37236016  0.49295647  0.98937419  1
  O  O397  1  0.38531736  1.01357796  0.50183477  1
  O  O398  1  0.38632552  1.00282783  0.99166756  1
  O  O399  1  0.87788335  0.49715901  0.48855597  1
  O  O400  1  0.86803815  0.49055134  0.98566680  1
  O  O401  1  0.86860466  0.99434077  0.49032055  1
  O  O402  1  0.88344047  1.00788073  0.99108946  1
  O  O403  1  0.12058199  0.00475036  0.00506324  1
  O  O404  1  0.13557673  0.01233673  0.50919584  1
  O  O405  1  0.18445067  0.50666710  0.01328579  1
  O  O406  1  0.11828562  0.50623691  0.50378456  1
  O  O407  1  0.61462419  0.00989620  0.00206669  1
  O  O408  1  0.61802225  0.01227467  0.50691514  1
  O  O409  1  0.63176081  0.51293224  -0.00128765  1
  O  O410  1  0.63300422  0.50931437  0.51063386  1
  O  O411  1  0.37113827  0.36306010  0.12369440  1
  O  O412  1  0.36197147  0.36951042  0.62860010  1
  O  O413  1  0.37933916  0.86013865  0.12974095  1
  O  O414  1  0.37484314  0.85416528  0.62911256  1
  O  O415  1  0.87143356  0.36900829  0.11691403  1
  O  O416  1  0.86561407  0.37119317  0.61958767  1
  O  O417  1  0.87921700  0.86009598  0.12670916  1
  O  O418  1  0.87062901  0.87364626  0.62016841  1
  O  O419  1  0.12466313  0.12045785  0.39428960  1
  O  O420  1  0.12344567  0.12423536  0.88808812  1
  O  O421  1  0.13669489  0.62129226  0.37849930  1
  O  O422  1  0.12352474  0.64129404  0.86198493  1
  O  O423  1  0.63570512  0.11947107  0.38606933  1
  O  O424  1  0.63102132  0.13239073  0.88216680  1
  O  O425  1  0.62909487  0.61809411  0.37494866  1
  O  O426  1  0.62815122  0.63439759  0.87876738  1
