# generated using pymatgen
data_V85Zn86O256
_symmetry_space_group_name_H-M   'P 1'
_cell_length_a   16.97978029
_cell_length_b   16.96529644
_cell_length_c   16.96703867
_cell_angle_alpha   90.05307880
_cell_angle_beta   90.03353589
_cell_angle_gamma   90.09203190
_symmetry_Int_Tables_number   1
_chemical_formula_structural   V85Zn86O256
_chemical_formula_sum   'V85 Zn86 O256'
_cell_volume   4887.63478913
_cell_formula_units_Z   1
loop_
 _symmetry_equiv_pos_site_id
 _symmetry_equiv_pos_as_xyz
  1  'x, y, z'
loop_
 _atom_site_type_symbol
 _atom_site_label
 _atom_site_symmetry_multiplicity
 _atom_site_fract_x
 _atom_site_fract_y
 _atom_site_fract_z
 _atom_site_occupancy
  V  V0  1  0.62656220  0.24023001  0.88032094  1
  V  V1  1  0.63139442  0.37845523  0.75384518  1
  V  V2  1  -0.00472766  0.87766593  0.88027693  1
  V  V3  1  0.74515799  0.24144004  0.49407402  1
  V  V4  1  0.25755026  0.62766857  0.36854846  1
  V  V5  1  0.87739834  0.37589672  0.00050218  1
  V  V6  1  0.75256104  0.37329755  0.62766517  1
  V  V7  1  0.25418053  0.25122414  0.50469852  1
  V  V8  1  0.62627431  0.62395298  0.00157940  1
  V  V9  1  -0.00106713  0.62289694  0.62349883  1
  V  V10  1  0.49891488  0.24895250  0.24909623  1
  V  V11  1  0.62436923  0.75094461  0.37160232  1
  V  V12  1  0.75412118  0.62229183  0.37708863  1
  V  V13  1  0.37644331  0.24383833  0.12442648  1
  V  V14  1  0.25468780  0.37108450  0.62590025  1
  V  V15  1  0.24639961  0.75483236  0.50405046  1
  V  V16  1  0.87188201  0.87613199  0.50037116  1
  V  V17  1  0.86926920  0.62005706  0.75059804  1
  V  V18  1  0.62530075  0.00188006  0.11426229  1
  V  V19  1  0.62195765  0.87249124  0.75070271  1
  V  V20  1  0.37194658  0.87532222  0.49990275  1
  V  V21  1  0.49682130  0.87459074  0.89047301  1
  V  V22  1  0.50629207  0.12339514  0.10616190  1
  V  V23  1  0.30844048  0.81312699  0.05462402  1
  V  V24  1  0.12161683  0.50072683  0.13717456  1
  V  V25  1  0.49375830  0.24552591  0.75116100  1
  V  V26  1  -0.00178962  0.38085575  0.37508939  1
  V  V27  1  0.62338965  0.50040976  0.62493021  1
  V  V28  1  0.87879313  0.24780016  0.13186356  1
  V  V29  1  0.24704657  0.11738753  0.86707550  1
  V  V30  1  -0.00323808  0.87684266  0.37721289  1
  V  V31  1  0.36970153  0.37395231  0.00270157  1
  V  V32  1  -0.00223855  0.24577108  0.74325865  1
  V  V33  1  0.00080774  0.12264087  0.12874109  1
  V  V34  1  -0.00183394  0.00612779  0.50818078  1
  V  V35  1  0.62380563  0.00121890  0.62898222  1
  V  V36  1  0.01169952  0.25379657  0.24911857  1
  V  V37  1  0.75577700  0.87652417  0.12598891  1
  V  V38  1  0.12032555  0.49946598  0.62071242  1
  V  V39  1  0.26187622  0.49107854  0.25409086  1
  V  V40  1  0.00089803  0.74696999  0.24421599  1
  V  V41  1  0.49031757  0.63060378  0.13369792  1
  V  V42  1  0.00366794  0.51038194  0.00379479  1
  V  V43  1  0.49573528  0.12502333  0.63138381  1
  V  V44  1  0.87781336  0.62447024  0.24921513  1
  V  V45  1  0.62325943  0.74799113  0.87601616  1
  V  V46  1  -0.00027911  0.37567104  0.87688194  1
  V  V47  1  0.12915959  0.25084923  0.37240231  1
  V  V48  1  0.49657714  0.88007682  0.37173902  1
  V  V49  1  0.24859803  0.62655212  0.88246470  1
  V  V50  1  0.87936012  0.75037719  0.12412193  1
  V  V51  1  0.49849675  0.74499037  0.74626478  1
  V  V52  1  0.12508665  0.75084295  0.37312137  1
  V  V53  1  0.12150044  0.12592974  0.50189954  1
  V  V54  1  0.75363312  0.37598662  0.12482132  1
  V  V55  1  -0.00011913  0.75246136  0.74696142  1
  V  V56  1  0.87294720  0.50091411  0.87549166  1
  V  V57  1  0.37786113  -0.00542839  0.88069192  1
  V  V58  1  0.12398995  0.24894431  0.87906505  1
  V  V59  1  0.49531281  -0.00051920  0.50397956  1
  V  V60  1  0.11893419  0.11304164  0.00295670  1
  V  V61  1  0.12113100  0.89478443  0.23953479  1
  V  V62  1  0.75050851  0.01414218  0.25445702  1
  V  V63  1  0.13966934  -0.00252893  0.62179849  1
  V  V64  1  0.75048723  0.62153376  0.87443961  1
  V  V65  1  0.87617085  0.11919412  0.74767828  1
  V  V66  1  0.62633480  0.50188519  0.12496412  1
  V  V67  1  0.75701977  0.49957719  0.25485310  1
  V  V68  1  0.86925831  0.01612728  0.37424019  1
  V  V69  1  0.87303299  0.74941393  0.62376055  1
  V  V70  1  0.24897531  0.49847447  0.75135358  1
  V  V71  1  0.37406150  0.74909634  0.62434684  1
  V  V72  1  0.12917510  0.74715943  0.87509646  1
  V  V73  1  0.62578549  0.37443065  0.25521455  1
  V  V74  1  0.74946618  0.24283983  -0.00015280  1
  V  V75  1  0.75587984  0.75365652  0.00055795  1
  V  V76  1  0.74824473  0.75052691  0.49928947  1
  V  V77  1  0.12323694  0.37414988  0.75173351  1
  V  V78  1  0.62301665  0.87582287  0.24903052  1
  V  V79  1  0.37442624  0.49876889  0.87619842  1
  V  V80  1  0.13872396  0.87917393  0.74187872  1
  V  V81  1  0.74732712  0.87454360  0.62614156  1
  V  V82  1  0.61773160  0.62062359  0.50143856  1
  V  V83  1  0.50042441  0.37406333  0.87780813  1
  V  V84  1  0.37683270  0.62256476  0.74749403  1
  Zn  Zn85  1  0.29743647  0.11503442  0.38110823  1
  Zn  Zn86  1  0.86936182  0.37884963  0.49566746  1
  Zn  Zn87  1  0.75047210  -0.00111948  0.75428172  1
  Zn  Zn88  1  0.62795278  0.11751514  0.48659815  1
  Zn  Zn89  1  0.27433742  0.02148709  0.25421803  1
  Zn  Zn90  1  0.39068041  0.50185540  0.38406431  1
  Zn  Zn91  1  0.75013978  0.11706830  0.88033057  1
  Zn  Zn92  1  0.12083187  0.62481699  0.49758955  1
  Zn  Zn93  1  0.24788404  0.24618823  0.00341702  1
  Zn  Zn94  1  0.12593507  0.63258933  0.01504018  1
  Zn  Zn95  1  0.50446887  0.37873252  0.38827278  1
  Zn  Zn96  1  0.36422409  0.11626936  0.74511032  1
  Zn  Zn97  1  0.49741931  0.50222954  0.00215205  1
  Zn  Zn98  1  -0.00472346  -0.02450382  0.02383946  1
  Zn  Zn99  1  0.87781199  0.24542706  0.62024594  1
  Zn  Zn100  1  0.65012915  0.21081424  0.34566802  1
  Zn  Zn101  1  0.24304963  0.36160042  0.13991020  1
  Zn  Zn102  1  0.87224715  -0.00314132  0.88859226  1
  Zn  Zn103  1  -0.01523713  0.50455715  0.49156480  1
  Zn  Zn104  1  0.38520805  0.38238607  0.50626437  1
  Zn  Zn105  1  0.46685179  0.74722171  0.24734257  1
  Zn  Zn106  1  0.45703843  0.56068249  0.55859828  1
  Zn  Zn107  1  0.20624397  0.15512474  0.18163156  1
  Zn  Zn108  1  0.17966373  0.18515260  0.68530571  1
  Zn  Zn109  1  0.19913863  0.68925369  0.19045490  1
  Zn  Zn110  1  0.18870380  0.68514318  0.68983968  1
  Zn  Zn111  1  0.68632667  0.18675429  0.17558357  1
  Zn  Zn112  1  0.68917612  0.18896877  0.69110488  1
  Zn  Zn113  1  0.68848275  0.68801824  0.18837723  1
  Zn  Zn114  1  0.68555022  0.68545565  0.68621494  1
  Zn  Zn115  1  0.31984653  0.31106581  0.32060314  1
  Zn  Zn116  1  0.30990645  0.30961290  0.81479993  1
  Zn  Zn117  1  0.32912869  0.85608270  0.27678999  1
  Zn  Zn118  1  0.31521484  0.81201836  0.81663134  1
  Zn  Zn119  1  0.81683888  0.31048302  0.31315456  1
  Zn  Zn120  1  0.81419844  0.30827834  0.81419366  1
  Zn  Zn121  1  0.81109668  0.81442035  0.31154979  1
  Zn  Zn122  1  0.81147442  0.81076389  0.81179831  1
  Zn  Zn123  1  0.18617527  0.43401098  0.43526351  1
  Zn  Zn124  1  0.18588020  0.43974830  0.94287501  1
  Zn  Zn125  1  0.19006417  0.94266870  0.42808070  1
  Zn  Zn126  1  0.18496668  0.93935265  0.92828374  1
  Zn  Zn127  1  0.68880432  0.43703865  0.44171753  1
  Zn  Zn128  1  0.68981844  0.43452960  0.93887290  1
  Zn  Zn129  1  0.68427900  0.94151086  0.43576634  1
  Zn  Zn130  1  0.68948447  0.93306792  0.93460233  1
  Zn  Zn131  1  0.30863886  0.05464178  0.06205660  1
  Zn  Zn132  1  0.31434386  0.06776039  0.55835493  1
  Zn  Zn133  1  0.30934716  0.55921834  0.06677908  1
  Zn  Zn134  1  0.29674688  0.56440529  0.56116224  1
  Zn  Zn135  1  0.81971280  0.05872956  0.06465471  1
  Zn  Zn136  1  0.81310066  0.06272781  0.56667560  1
  Zn  Zn137  1  0.81465734  0.56483149  0.06319541  1
  Zn  Zn138  1  0.80886037  0.55695455  0.56443990  1
  Zn  Zn139  1  0.43856399  0.43647020  0.18713025  1
  Zn  Zn140  1  0.43999848  0.43196962  0.69296094  1
  Zn  Zn141  1  0.43643713  0.94198116  0.17116205  1
  Zn  Zn142  1  0.42984448  0.93454877  0.69403304  1
  Zn  Zn143  1  0.94180185  0.43497162  0.19002521  1
  Zn  Zn144  1  0.93655105  0.43559554  0.68785496  1
  Zn  Zn145  1  0.93436625  0.93886129  0.19517265  1
  Zn  Zn146  1  0.93988284  0.93736177  0.68823948  1
  Zn  Zn147  1  0.05555829  0.07165218  0.31885445  1
  Zn  Zn148  1  0.06143227  0.05995748  0.80788862  1
  Zn  Zn149  1  0.06635477  0.56460334  0.31080400  1
  Zn  Zn150  1  0.06041626  0.56193385  0.81139452  1
  Zn  Zn151  1  0.49799045  0.09249089  0.33919729  1
  Zn  Zn152  1  0.55880165  0.05836553  0.81653029  1
  Zn  Zn153  1  0.56308356  0.56101794  0.31317958  1
  Zn  Zn154  1  0.56241289  0.55995294  0.81287308  1
  Zn  Zn155  1  0.45551736  0.21715896  0.45635833  1
  Zn  Zn156  1  0.43311144  0.18591897  0.93391999  1
  Zn  Zn157  1  0.43456017  0.69823959  0.42844068  1
  Zn  Zn158  1  0.43694504  0.68689825  0.94216771  1
  Zn  Zn159  1  0.93819513  0.19509761  0.43985789  1
  Zn  Zn160  1  0.93525482  0.18382619  0.93680438  1
  Zn  Zn161  1  0.93696810  0.68713344  0.43681762  1
  Zn  Zn162  1  0.94014125  0.69150084  0.93622963  1
  Zn  Zn163  1  0.06491389  0.31793672  0.06404794  1
  Zn  Zn164  1  0.06440861  0.31612606  0.55894748  1
  Zn  Zn165  1  0.14163007  0.82115910  0.05964623  1
  Zn  Zn166  1  0.06155387  0.81558208  0.56225514  1
  Zn  Zn167  1  0.56335574  0.31541613  0.06199291  1
  Zn  Zn168  1  0.56992749  0.30829108  0.56840445  1
  Zn  Zn169  1  0.56637937  0.80752485  0.06755571  1
  Zn  Zn170  1  0.56087777  0.81008101  0.56177977  1
  O  O171  1  0.11420073  0.13584600  0.10827002  1
  O  O172  1  0.12566809  0.11412316  0.61180055  1
  O  O173  1  0.13687662  0.60779263  0.12710845  1
  O  O174  1  0.11825184  0.61552904  0.62730965  1
  O  O175  1  0.61452245  0.11746970  0.12220182  1
  O  O176  1  0.61954606  0.10992525  0.63273526  1
  O  O177  1  0.62482328  0.61677708  0.12159401  1
  O  O178  1  0.63131629  0.61434178  0.61506117  1
  O  O179  1  0.38027307  0.38095887  0.38690893  1
  O  O180  1  0.37925216  0.37805482  0.88218934  1
  O  O181  1  0.38810102  0.86502685  0.39289963  1
  O  O182  1  0.38069822  0.88488305  0.87479345  1
  O  O183  1  0.89371374  0.37096699  0.37318692  1
  O  O184  1  0.87983204  0.38095668  0.88003438  1
  O  O185  1  0.88311696  0.87672164  0.38134405  1
  O  O186  1  0.89156939  0.86944483  0.86947953  1
  O  O187  1  0.25315404  0.01010847  0.36972111  1
  O  O188  1  0.25709038  0.00836163  0.87320599  1
  O  O189  1  0.24270604  0.51205596  0.36728132  1
  O  O190  1  0.25325757  0.50520481  0.86891763  1
  O  O191  1  0.75783124  -0.00506630  0.36790856  1
  O  O192  1  0.75429219  -0.00100939  0.87116990  1
  O  O193  1  0.74484025  0.50947017  0.36435604  1
  O  O194  1  0.75981090  0.50866113  0.88449368  1
  O  O195  1  0.24631041  0.49807194  0.14350020  1
  O  O196  1  0.23842659  0.49249045  0.63253212  1
  O  O197  1  0.24231474  1.04598949  0.14776859  1
  O  O198  1  0.23873903  0.99939475  0.61485940  1
  O  O199  1  0.74518858  0.49735890  0.13300438  1
  O  O200  1  0.73592012  0.48578734  0.62394865  1
  O  O201  1  0.74804843  0.99316936  0.13279074  1
  O  O202  1  0.73986138  0.99254714  0.62827589  1
  O  O203  1  0.00177915  0.36544071  0.26063155  1
  O  O204  1  0.00392702  0.36790809  0.75836910  1
  O  O205  1  0.00169168  0.86638387  0.26159881  1
  O  O206  1  0.00585655  0.86276188  0.75195673  1
  O  O207  1  0.51572980  0.36622730  0.23652342  1
  O  O208  1  0.50951994  0.36448212  0.75739004  1
  O  O209  1  0.51126839  0.87425985  0.25532184  1
  O  O210  1  0.50290759  0.86141269  0.75932480  1
  O  O211  1  0.50217440  0.14542751  0.23415804  1
  O  O212  1  0.50002202  0.13041912  0.74734081  1
  O  O213  1  0.50654151  0.62780864  0.23775503  1
  O  O214  1  0.49302110  0.63661706  0.75863234  1
  O  O215  1  1.00471178  0.14010366  0.23899061  1
  O  O216  1  0.98952930  0.13388942  0.75595603  1
  O  O217  1  0.98763287  0.63406141  0.26093868  1
  O  O218  1  0.99187129  0.63541892  0.74542668  1
  O  O219  1  0.37341420  0.25748154  0.00612425  1
  O  O220  1  0.35206660  0.24764181  0.51195230  1
  O  O221  1  0.35979175  0.75185516  -0.00678858  1
  O  O222  1  0.36728683  0.75412260  0.50716804  1
  O  O223  1  0.87053973  0.25790456  0.00651560  1
  O  O224  1  0.86316586  0.25489449  0.50341818  1
  O  O225  1  0.86639159  0.74168787  0.01074695  1
  O  O226  1  0.86871366  0.75539848  0.50483269  1
  O  O227  1  0.12716418  0.24172513  0.49528275  1
  O  O228  1  0.12300878  0.24682060  0.98834201  1
  O  O229  1  0.12967426  0.75388069  0.49151010  1
  O  O230  1  0.11754747  0.74327288  0.98004906  1
  O  O231  1  0.64059717  0.24381385  0.50005654  1
  O  O232  1  0.63743708  0.25970908  0.99206317  1
  O  O233  1  0.63008349  0.74323811  0.49390836  1
  O  O234  1  0.63642105  0.74340002  0.99583542  1
  O  O235  1  0.49864719  0.24262850  0.12521995  1
  O  O236  1  0.51316473  0.23501045  0.64092271  1
  O  O237  1  0.50451031  0.73522819  0.12958121  1
  O  O238  1  0.49136157  0.75180766  0.63646190  1
  O  O239  1  0.99707623  0.24972035  0.13102167  1
  O  O240  1  1.00106268  0.25849668  0.63981434  1
  O  O241  1  0.98998098  0.75227734  0.13976268  1
  O  O242  1  0.99398932  0.74532071  0.62996316  1
  O  O243  1  0.00781439  0.25610122  0.36705295  1
  O  O244  1  0.00716849  0.25561625  0.86914612  1
  O  O245  1  0.00514814  0.75757508  0.36996667  1
  O  O246  1  0.00765779  0.75489812  0.86317278  1
  O  O247  1  0.51024790  0.25812997  0.34962016  1
  O  O248  1  0.50897617  0.25374879  0.87182203  1
  O  O249  1  0.50801898  0.76135861  0.36764420  1
  O  O250  1  0.50326626  0.75459906  0.86863929  1
  O  O251  1  0.24161175  0.13788816  0.49955398  1
  O  O252  1  0.23095783  0.12548674  0.98855015  1
  O  O253  1  0.24085443  0.63534331  0.48976542  1
  O  O254  1  0.24665514  0.61570945  0.98516591  1
  O  O255  1  0.74904961  0.13698657  0.50635849  1
  O  O256  1  0.75693778  0.14011862  1.00310294  1
  O  O257  1  0.74254591  0.63009075  0.49260905  1
  O  O258  1  0.74632381  0.63415487  0.99596857  1
  O  O259  1  0.26185885  0.37217888  -0.00020458  1
  O  O260  1  0.24527660  0.36546130  0.51080598  1
  O  O261  1  0.23771091  0.87279876  0.00326604  1
  O  O262  1  0.25737038  0.86281687  0.48994783  1
  O  O263  1  0.75859605  0.36771139  0.00658099  1
  O  O264  1  0.74706470  0.36344248  0.50979036  1
  O  O265  1  0.74627717  0.86181734  0.01157018  1
  O  O266  1  0.75260314  0.87035234  0.50531779  1
  O  O267  1  0.13002077  0.49952804  0.24029199  1
  O  O268  1  0.12791252  0.49358686  0.74339762  1
  O  O269  1  0.10908131  0.99281193  0.25791774  1
  O  O270  1  0.12064294  0.98626694  0.73854091  1
  O  O271  1  0.63785629  0.49489298  0.24112039  1
  O  O272  1  0.62164649  0.48675134  0.74494664  1
  O  O273  1  0.63669554  0.98425656  0.23767771  1
  O  O274  1  0.62269796  0.99012619  0.74385590  1
  O  O275  1  0.37039745  -0.03944921  0.25725916  1
  O  O276  1  0.37650596  0.00149088  0.76767541  1
  O  O277  1  0.36344615  0.49793911  0.25382372  1
  O  O278  1  0.37013641  0.50252056  0.75589653  1
  O  O279  1  0.86275851  -0.00360207  0.26287274  1
  O  O280  1  0.87750338  0.01093227  0.75098902  1
  O  O281  1  0.86570358  0.50919189  0.24140881  1
  O  O282  1  0.88307748  0.51378609  0.75745121  1
  O  O283  1  0.11427644  0.35984504  0.38200432  1
  O  O284  1  0.12105601  0.36780535  0.87200787  1
  O  O285  1  0.11131873  0.86865337  0.37193073  1
  O  O286  1  0.11780954  0.86745706  0.85808131  1
  O  O287  1  0.62936581  0.37774904  0.35877345  1
  O  O288  1  0.62136972  0.36906174  0.87028497  1
  O  O289  1  0.61753247  0.87155219  0.36862771  1
  O  O290  1  0.61660147  0.86696232  0.87036621  1
  O  O291  1  0.39200914  0.13681296  0.11473320  1
  O  O292  1  0.38991637  0.11791283  0.62987556  1
  O  O293  1  0.39220800  0.61652893  0.12225598  1
  O  O294  1  0.37656420  0.63194749  0.62795435  1
  O  O295  1  0.88802296  0.14061716  0.11754760  1
  O  O296  1  0.87427224  0.12670881  0.64148302  1
  O  O297  1  0.86678514  0.63764516  0.13889547  1
  O  O298  1  0.87696688  0.62949260  0.63292634  1
  O  O299  1  0.26279740  0.24619619  0.12389199  1
  O  O300  1  0.23426282  0.26029619  0.61596753  1
  O  O301  1  0.23822168  0.75881863  0.11176376  1
  O  O302  1  0.25859825  0.74204181  0.61436532  1
  O  O303  1  0.75979501  0.25579885  0.11922283  1
  O  O304  1  0.74874493  0.25774738  0.61647784  1
  O  O305  1  0.75750505  0.75692969  0.11995467  1
  O  O306  1  0.75349785  0.75464952  0.61894227  1
  O  O307  1  0.24250349  0.25800243  0.39333421  1
  O  O308  1  0.23768933  0.24127752  0.87705938  1
  O  O309  1  0.23873414  0.73801671  0.38347497  1
  O  O310  1  0.24004718  0.73867807  0.86451515  1
  O  O311  1  0.75059635  0.25268303  0.38715600  1
  O  O312  1  0.74323181  0.24944347  0.88506493  1
  O  O313  1  0.74481585  0.74344381  0.37984476  1
  O  O314  1  0.74535087  0.74500877  0.88340688  1
  O  O315  1  0.01071639  0.12910558  0.00678135  1
  O  O316  1  0.00626688  0.11534290  0.49686622  1
  O  O317  1  0.00090006  0.61371413  -0.00321268  1
  O  O318  1  0.00156389  0.62299999  0.50668023  1
  O  O319  1  0.50498440  0.13165995  0.00731441  1
  O  O320  1  0.50728752  0.11490843  0.51853624  1
  O  O321  1  0.50874502  0.62376917  0.01157049  1
  O  O322  1  0.51338308  0.63621680  0.49375104  1
  O  O323  1  0.48887078  0.32600202  0.49359146  1
  O  O324  1  0.48950387  0.37762358  0.99595105  1
  O  O325  1  0.49449815  0.87953153  0.49524709  1
  O  O326  1  0.50610048  0.86493777  0.98884649  1
  O  O327  1  0.99733574  0.37471272  0.48639558  1
  O  O328  1  0.99584995  0.38580010  0.99532531  1
  O  O329  1  0.99300700  0.88185585  0.49311753  1
  O  O330  1  1.01432724  0.86956369  0.97962024  1
  O  O331  1  0.50414276  0.49298882  0.37629456  1
  O  O332  1  0.49280858  0.49271995  0.87763874  1
  O  O333  1  0.50286943  0.98624379  0.39112366  1
  O  O334  1  0.48915414  0.98970249  0.87724052  1
  O  O335  1  1.01275967  0.48407383  0.37313815  1
  O  O336  1  0.99472849  0.49584156  0.88321047  1
  O  O337  1  0.98966759  0.99276872  0.38417498  1
  O  O338  1  1.00149087  0.98088993  0.86705397  1
  O  O339  1  -0.00831207  0.01749261  0.13306308  1
  O  O340  1  0.00774993  -0.00853942  0.61095792  1
  O  O341  1  0.01356025  0.49647548  0.12078673  1
  O  O342  1  0.00816555  0.50397327  0.62713823  1
  O  O343  1  0.50906211  0.01586185  0.12492496  1
  O  O344  1  0.50645688  0.00118382  0.62353478  1
  O  O345  1  0.51285319  0.50904765  0.12696997  1
  O  O346  1  0.51506607  0.49146914  0.62757423  1
  O  O347  1  0.25112217  0.38787609  0.25827172  1
  O  O348  1  0.24304764  0.37728112  0.74554615  1
  O  O349  1  0.21859533  0.87898921  0.25287201  1
  O  O350  1  0.23635581  0.87024595  0.75205625  1
  O  O351  1  0.74775577  0.38188160  0.24540574  1
  O  O352  1  0.73903254  0.36404834  0.74389987  1
  O  O353  1  0.74497351  0.87931201  0.24032106  1
  O  O354  1  0.74093809  0.87160024  0.74354028  1
  O  O355  1  0.26736656  0.14281180  0.27406279  1
  O  O356  1  0.24604128  0.13202189  0.76147198  1
  O  O357  1  0.24705126  0.61571386  0.26463400  1
  O  O358  1  0.25770416  0.61729817  0.75653199  1
  O  O359  1  0.74190343  0.11367182  0.24564354  1
  O  O360  1  0.76399341  0.12470112  0.75422389  1
  O  O361  1  0.75622646  0.61895935  0.25787650  1
  O  O362  1  0.76200850  0.63381257  0.75727347  1
  O  O363  1  0.40688546  0.13611826  0.39408323  1
  O  O364  1  0.36427894  0.11687309  0.87210670  1
  O  O365  1  0.35946718  0.62289860  0.38237338  1
  O  O366  1  0.36711483  0.61881372  0.86974473  1
  O  O367  1  0.88040023  0.11437088  0.37881063  1
  O  O368  1  0.87309889  0.12118738  0.86378924  1
  O  O369  1  0.86211826  0.63271744  0.36520339  1
  O  O370  1  0.87134314  0.62272645  0.86796251  1
  O  O371  1  0.13442186  0.39293642  0.11626650  1
  O  O372  1  0.13010074  0.38293668  0.63208754  1
  O  O373  1  0.10124709  0.88396000  0.14010006  1
  O  O374  1  0.12421264  0.87897161  0.63501190  1
  O  O375  1  0.63380395  0.38487964  0.13041629  1
  O  O376  1  0.63186529  0.37888202  0.63499082  1
  O  O377  1  0.63423284  0.87871508  0.13061013  1
  O  O378  1  0.62709509  0.88030039  0.63062165  1
  O  O379  1  0.11894381  0.24501665  0.26067172  1
  O  O380  1  0.11620085  0.25259935  0.76013638  1
  O  O381  1  0.11587096  0.75276019  0.25832803  1
  O  O382  1  0.11785323  0.75831747  0.75081344  1
  O  O383  1  0.62263542  0.25931504  0.24125990  1
  O  O384  1  0.61884699  0.25779742  0.76182627  1
  O  O385  1  0.63407877  0.76395830  0.25570682  1
  O  O386  1  0.61654292  0.75094007  0.75490960  1
  O  O387  1  0.39194291  0.26488528  0.23697263  1
  O  O388  1  0.39061075  0.24737946  0.75921374  1
  O  O389  1  0.35753316  0.75246668  0.25859383  1
  O  O390  1  0.37928915  0.74492621  0.74245004  1
  O  O391  1  0.88528029  0.25568478  0.23690922  1
  O  O392  1  0.88325575  0.23984031  0.75128679  1
  O  O393  1  0.88037861  0.74409901  0.24517625  1
  O  O394  1  0.88277166  0.74222708  0.74417805  1
  O  O395  1  0.37486188  0.50151819  0.50530223  1
  O  O396  1  0.37472437  0.49050310  0.99539516  1
  O  O397  1  0.38658962  0.98821464  0.51224273  1
  O  O398  1  0.36910710  1.00652816  0.98168963  1
  O  O399  1  0.87292144  0.49322360  0.50076126  1
  O  O400  1  0.88375616  0.49644443  0.99856468  1
  O  O401  1  0.87919230  0.99579287  0.49531416  1
  O  O402  1  0.88706001  0.99875603  1.00050889  1
  O  O403  1  0.11399628  0.01108365  -0.00509061  1
  O  O404  1  0.11701291  0.00484783  0.50303658  1
  O  O405  1  0.11715439  0.50613574  0.00688463  1
  O  O406  1  0.12380599  0.49953941  0.51366992  1
  O  O407  1  0.63498181  -0.00711449  0.01574638  1
  O  O408  1  0.61471629  -0.00445528  0.51353976  1
  O  O409  1  0.62681597  0.50347160  0.01133073  1
  O  O410  1  0.62737443  0.50997589  0.50816051  1
  O  O411  1  0.37395769  0.36616064  0.11635412  1
  O  O412  1  0.35839957  0.37950350  0.62795989  1
  O  O413  1  0.37276139  0.87070713  0.10552274  1
  O  O414  1  0.37891378  0.86053498  0.61490341  1
  O  O415  1  0.87314962  0.36854592  0.12028066  1
  O  O416  1  0.86172007  0.37085438  0.63083761  1
  O  O417  1  0.86596890  0.86379637  0.13316989  1
  O  O418  1  0.86872223  0.86965976  0.62052878  1
  O  O419  1  0.11946746  0.13725236  0.38938041  1
  O  O420  1  0.12487427  0.12924077  0.88163667  1
  O  O421  1  0.12898982  0.63670210  0.37592859  1
  O  O422  1  0.13349347  0.63266595  0.86666920  1
  O  O423  1  0.60624738  0.11489462  0.37528321  1
  O  O424  1  0.62758894  0.13695805  0.87076361  1
  O  O425  1  0.63585251  0.63035844  0.38054513  1
  O  O426  1  0.63011734  0.62853739  0.88035909  1
