# generated using pymatgen
data_V85Zn86O256
_symmetry_space_group_name_H-M   'P 1'
_cell_length_a   16.97299226
_cell_length_b   16.96433239
_cell_length_c   16.96539306
_cell_angle_alpha   89.94823501
_cell_angle_beta   90.25569382
_cell_angle_gamma   89.89980609
_symmetry_Int_Tables_number   1
_chemical_formula_structural   V85Zn86O256
_chemical_formula_sum   'V85 Zn86 O256'
_cell_volume   4884.88049347
_cell_formula_units_Z   1
loop_
 _symmetry_equiv_pos_site_id
 _symmetry_equiv_pos_as_xyz
  1  'x, y, z'
loop_
 _atom_site_type_symbol
 _atom_site_label
 _atom_site_symmetry_multiplicity
 _atom_site_fract_x
 _atom_site_fract_y
 _atom_site_fract_z
 _atom_site_occupancy
  V  V0  1  0.12507519  0.49899965  0.62513686  1
  V  V1  1  0.74736359  0.50206920  0.75459499  1
  V  V2  1  0.62174186  0.00141145  0.62405750  1
  V  V3  1  -0.00727108  0.12374189  0.62954049  1
  V  V4  1  -0.00145196  0.50572037  0.00403997  1
  V  V5  1  0.75340325  0.12968592  0.88763958  1
  V  V6  1  0.38110453  0.87179354  0.00041081  1
  V  V7  1  0.13085531  0.25367111  0.38083472  1
  V  V8  1  0.12138677  -0.00186159  0.62871469  1
  V  V9  1  0.74947798  0.37586648  0.62452015  1
  V  V10  1  -0.00677061  0.37896662  0.37320211  1
  V  V11  1  -0.00099123  0.00102460  0.50099935  1
  V  V12  1  0.49468231  0.49937723  0.49296838  1
  V  V13  1  0.38309760  -0.00166452  0.87503167  1
  V  V14  1  0.62441907  0.86872713  0.25837749  1
  V  V15  1  0.60710302  0.11919238  0.00456682  1
  V  V16  1  0.24987265  0.87119742  0.61717938  1
  V  V17  1  0.63170196  0.86897796  0.75581888  1
  V  V18  1  0.25291723  0.49663858  0.75286446  1
  V  V19  1  0.25181488  0.12628621  0.87367274  1
  V  V20  1  0.00944018  0.87307010  0.87737159  1
  V  V21  1  0.00750532  0.74950326  0.75601832  1
  V  V22  1  0.61942107  0.12142064  0.50240160  1
  V  V23  1  0.37596985  0.62014355  0.25536117  1
  V  V24  1  0.37474931  0.38061633  -0.00253176  1
  V  V25  1  0.13317378  0.88788315  0.24153403  1
  V  V26  1  -0.00720907  0.24648837  0.75133490  1
  V  V27  1  0.74957103  0.12521564  0.37301746  1
  V  V28  1  0.86828108  0.37329754  0.00122220  1
  V  V29  1  0.87600461  0.63939645  0.25112923  1
  V  V30  1  0.24889984  0.25181491  0.00140309  1
  V  V31  1  0.74935404  0.25142051  0.49907290  1
  V  V32  1  0.37184838  0.75039345  0.61808461  1
  V  V33  1  0.62808877  0.62855896  0.48690920  1
  V  V34  1  0.75219476  0.87376115  0.62424241  1
  V  V35  1  0.39103647  0.12757795  0.74664170  1
  V  V36  1  0.00199707  0.87153790  0.37369516  1
  V  V37  1  0.12450585  0.50477373  0.12571790  1
  V  V38  1  0.87714263  0.86949814  0.00734477  1
  V  V39  1  0.37566411  0.62073794  0.75340290  1
  V  V40  1  0.25267504  0.62910789  0.37974951  1
  V  V41  1  0.76380193  0.50509706  0.25520282  1
  V  V42  1  0.12346636  0.62916524  -0.00165182  1
  V  V43  1  0.62291075  0.38277000  0.24030434  1
  V  V44  1  0.75568639  0.00885106  0.75178187  1
  V  V45  1  0.87169262  0.62594875  0.75690544  1
  V  V46  1  0.50815219  0.49499241  0.00411590  1
  V  V47  1  0.24919773  0.11314074  0.38082220  1
  V  V48  1  0.49779968  0.24267500  0.24679368  1
  V  V49  1  0.37709836  0.24783739  0.12757192  1
  V  V50  1  0.74486861  0.74542208  -0.00139477  1
  V  V51  1  0.87824086  0.00451444  0.87653484  1
  V  V52  1  0.37526206  0.74726402  0.12735145  1
  V  V53  1  0.62418178  0.24826978  0.87352068  1
  V  V54  1  0.12736102  0.11895457  0.01045543  1
  V  V55  1  0.50482579  0.87135423  0.87698484  1
  V  V56  1  -0.00017673  0.62487372  0.62555239  1
  V  V57  1  0.87292126  0.37851808  0.49715530  1
  V  V58  1  0.50730952  0.61826047  0.12365838  1
  V  V59  1  0.12296707  0.25111397  0.87633209  1
  V  V60  1  0.00565393  0.74893554  0.23116615  1
  V  V61  1  0.87527174  0.75026465  0.62383358  1
  V  V62  1  -0.00544758  0.50217675  0.49538103  1
  V  V63  1  0.87251891  0.24814751  0.62632227  1
  V  V64  1  0.24749288  0.36214256  0.62106315  1
  V  V65  1  0.48942028  0.87587951  0.38707377  1
  V  V66  1  0.25132612  0.50060849  0.25467566  1
  V  V67  1  0.24997918  -0.00145966  0.75051426  1
  V  V68  1  0.62206636  0.25084462  0.37194469  1
  V  V69  1  0.74807185  0.87790724  0.12354657  1
  V  V70  1  0.39891431  0.24863908  0.62740409  1
  V  V71  1  -0.00292677  0.37885890  0.87370446  1
  V  V72  1  0.36865177  0.11205692  0.25745785  1
  V  V73  1  0.25020359  0.62331231  0.87508723  1
  V  V74  1  0.25108917  0.74943593  -0.00311057  1
  V  V75  1  0.87422736  0.00146364  0.37187925  1
  V  V76  1  0.62332321  0.50108609  0.62432312  1
  V  V77  1  0.50480970  0.74368429  0.75344911  1
  V  V78  1  0.74866115  0.74639508  0.48625849  1
  V  V79  1  0.12877625  0.63294189  0.49959932  1
  V  V80  1  0.00086058  0.25190602  0.24713771  1
  V  V81  1  0.86513593  0.25278695  0.12160101  1
  V  V82  1  0.37159461  0.37300771  0.49701170  1
  V  V83  1  0.49334286  0.37234994  0.86529899  1
  V  V84  1  0.87400733  0.12748039  0.24840173  1
  Zn  Zn85  1  0.68987986  0.68154415  0.83436916  1
  Zn  Zn86  1  0.12361620  0.37495093  0.74828429  1
  Zn  Zn87  1  0.00615063  -0.00449797  0.00743398  1
  Zn  Zn88  1  0.00214374  0.12009334  0.12742044  1
  Zn  Zn89  1  0.63343233  0.61659890  -0.00113861  1
  Zn  Zn90  1  0.61910145  0.36605870  0.74492374  1
  Zn  Zn91  1  0.45885807  0.06223772  0.56396961  1
  Zn  Zn92  1  0.37438850  0.90081917  0.49853530  1
  Zn  Zn93  1  0.12989455  0.75334153  0.37501115  1
  Zn  Zn94  1  0.87379238  0.87163706  0.49691838  1
  Zn  Zn95  1  0.13146110  0.86789100  0.75793018  1
  Zn  Zn96  1  0.25707058  0.91078803  0.13898212  1
  Zn  Zn97  1  0.12461585  0.37743426  0.24817736  1
  Zn  Zn98  1  0.49038219  0.37842664  0.36970046  1
  Zn  Zn99  1  0.74002286  0.00422935  0.24373125  1
  Zn  Zn100  1  0.24934085  0.37692436  0.12712629  1
  Zn  Zn101  1  0.59686683  -0.00016474  0.12156931  1
  Zn  Zn102  1  0.86614853  0.50585867  0.88318079  1
  Zn  Zn103  1  0.12582532  0.13096703  0.50632402  1
  Zn  Zn104  1  0.51041377  0.74118223  0.25917012  1
  Zn  Zn105  1  0.73975533  0.38540615  0.11541872  1
  Zn  Zn106  1  0.49623593  0.62489399  0.62178271  1
  Zn  Zn107  1  0.19238636  0.18624636  0.19109143  1
  Zn  Zn108  1  0.18202694  0.18463099  0.69334897  1
  Zn  Zn109  1  0.18834680  0.68967248  0.18633563  1
  Zn  Zn110  1  0.18891856  0.68582093  0.68590519  1
  Zn  Zn111  1  0.68640896  0.18772893  0.18208853  1
  Zn  Zn112  1  0.68329494  0.18689945  0.68896910  1
  Zn  Zn113  1  0.69508305  0.68906124  0.18311836  1
  Zn  Zn114  1  0.68801840  0.68587508  0.67034114  1
  Zn  Zn115  1  0.31004828  0.31387202  0.31239827  1
  Zn  Zn116  1  0.31340300  0.30899600  0.80792308  1
  Zn  Zn117  1  0.31414422  0.81082923  0.31463625  1
  Zn  Zn118  1  0.31600396  0.80780469  0.81136136  1
  Zn  Zn119  1  0.80877290  0.31484124  0.30843660  1
  Zn  Zn120  1  0.80907762  0.31317512  0.81330679  1
  Zn  Zn121  1  0.81442141  0.81583033  0.30640311  1
  Zn  Zn122  1  0.82113959  0.81612103  0.81691386  1
  Zn  Zn123  1  0.18581331  0.44117744  0.43888909  1
  Zn  Zn124  1  0.18556633  0.43907010  0.93637554  1
  Zn  Zn125  1  0.18159365  0.93783776  0.43898680  1
  Zn  Zn126  1  0.19789808  0.94067947  0.94330284  1
  Zn  Zn127  1  0.68480829  0.43932361  0.43227828  1
  Zn  Zn128  1  0.68104430  0.43585031  0.93306247  1
  Zn  Zn129  1  0.68830647  0.93730327  0.43837291  1
  Zn  Zn130  1  0.68978703  0.94162400  0.94124022  1
  Zn  Zn131  1  0.38506300  0.04251070  0.08480600  1
  Zn  Zn132  1  0.29753816  0.07026339  0.56508748  1
  Zn  Zn133  1  0.31376989  0.56251103  0.06645774  1
  Zn  Zn134  1  0.31169544  0.55903936  0.56606366  1
  Zn  Zn135  1  0.81530334  0.05982901  0.06343906  1
  Zn  Zn136  1  0.80971659  0.06152495  0.55998516  1
  Zn  Zn137  1  0.81677590  0.56403885  0.07860521  1
  Zn  Zn138  1  0.81142369  0.56512065  0.56326768  1
  Zn  Zn139  1  0.43640848  0.43470215  0.18565006  1
  Zn  Zn140  1  0.43348971  0.43794770  0.67967818  1
  Zn  Zn141  1  0.44301154  0.92989911  0.19531133  1
  Zn  Zn142  1  0.43721624  0.92979721  0.69200790  1
  Zn  Zn143  1  0.93579614  0.44102499  0.18452435  1
  Zn  Zn144  1  0.93403358  0.43891453  0.68615359  1
  Zn  Zn145  1  0.94101053  0.93944580  0.18533642  1
  Zn  Zn146  1  0.93675146  0.93422893  0.69144041  1
  Zn  Zn147  1  0.06254532  0.06538499  0.31238195  1
  Zn  Zn148  1  0.06341549  0.06294718  0.81672490  1
  Zn  Zn149  1  0.06322097  0.56721610  0.31366622  1
  Zn  Zn150  1  0.06418711  0.56304351  0.81455423  1
  Zn  Zn151  1  0.55835016  0.05551300  0.31305506  1
  Zn  Zn152  1  0.57059790  0.05780113  0.81530365  1
  Zn  Zn153  1  0.56250873  0.56105449  0.31236999  1
  Zn  Zn154  1  0.55752902  0.55293573  0.81754828  1
  Zn  Zn155  1  0.43184107  0.19389349  0.43524434  1
  Zn  Zn156  1  0.43644808  0.19155235  0.93340999  1
  Zn  Zn157  1  0.44402470  0.69101603  0.43403455  1
  Zn  Zn158  1  0.44066402  0.68254795  0.93693722  1
  Zn  Zn159  1  0.93931295  0.18947751  0.43853877  1
  Zn  Zn160  1  0.93882580  0.18827028  0.94057235  1
  Zn  Zn161  1  0.93388359  0.68531161  0.43187157  1
  Zn  Zn162  1  0.93572540  0.69153585  0.94025630  1
  Zn  Zn163  1  0.06044238  0.31659533  0.06331187  1
  Zn  Zn164  1  0.05945042  0.31393494  0.56308601  1
  Zn  Zn165  1  0.07147603  0.81872124  0.06170956  1
  Zn  Zn166  1  0.06128359  0.81461378  0.56601551  1
  Zn  Zn167  1  0.56139337  0.30309654  0.05714666  1
  Zn  Zn168  1  0.56325078  0.31556648  0.55666006  1
  Zn  Zn169  1  0.56583869  0.80752558  0.06849880  1
  Zn  Zn170  1  0.56291534  0.81093741  0.56525931  1
  O  O171  1  0.12790774  0.13270053  0.11254821  1
  O  O172  1  0.11227655  0.11850253  0.62642171  1
  O  O173  1  0.13204986  0.61534680  0.11140673  1
  O  O174  1  0.12090761  0.61902438  0.61823099  1
  O  O175  1  0.62636512  0.12601489  0.10773215  1
  O  O176  1  0.63070285  0.11491222  0.61529612  1
  O  O177  1  0.61045837  0.63227483  0.12188671  1
  O  O178  1  0.62003019  0.61275125  0.61565075  1
  O  O179  1  0.37267063  0.36766650  0.39144893  1
  O  O180  1  0.38597062  0.36349059  0.88339459  1
  O  O181  1  0.38350640  0.87181674  0.38165223  1
  O  O182  1  0.38500057  0.87785545  0.87776007  1
  O  O183  1  0.88568037  0.36672290  0.38113524  1
  O  O184  1  0.88286961  0.37734171  0.88251132  1
  O  O185  1  0.88448742  0.88512197  0.37202200  1
  O  O186  1  0.88694291  0.88441539  0.88461075  1
  O  O187  1  0.24201746  0.01476089  0.37714312  1
  O  O188  1  0.26199626  0.00361688  0.86680518  1
  O  O189  1  0.24113177  0.51158622  0.36295988  1
  O  O190  1  0.24653419  0.50686523  0.86313572  1
  O  O191  1  0.76009791  0.00591667  0.37338197  1
  O  O192  1  0.75837353  0.00711276  0.86979100  1
  O  O193  1  0.73351577  0.50151560  0.35254207  1
  O  O194  1  0.74844519  0.49538081  0.85909565  1
  O  O195  1  0.24210495  0.50035278  0.13454556  1
  O  O196  1  0.24356577  0.49147238  0.63542782  1
  O  O197  1  0.27825611  1.00881387  0.09740078  1
  O  O198  1  0.24260929  0.99313889  0.63513886  1
  O  O199  1  0.74840487  0.49809475  0.14568915  1
  O  O200  1  0.74164767  0.49661304  0.63119620  1
  O  O201  1  0.74903232  0.98786652  0.12468219  1
  O  O202  1  0.74558445  0.99491929  0.63336723  1
  O  O203  1  -0.00016204  0.37013625  0.25750199  1
  O  O204  1  -0.00129392  0.36984734  0.75824585  1
  O  O205  1  0.00934165  0.86657736  0.25365831  1
  O  O206  1  0.00303021  0.86649220  0.75933035  1
  O  O207  1  0.50805754  0.36558380  0.25088103  1
  O  O208  1  0.49652517  0.38317491  0.76276056  1
  O  O209  1  0.51205136  0.86636566  0.25899796  1
  O  O210  1  0.51136924  0.86252978  0.75646875  1
  O  O211  1  0.48219832  0.13486689  0.26524741  1
  O  O212  1  0.48946885  0.11791731  0.75682921  1
  O  O213  1  0.49310161  0.62310300  0.24361106  1
  O  O214  1  0.49202833  0.62701111  0.75048211  1
  O  O215  1  0.99351020  0.13756605  0.25132722  1
  O  O216  1  1.00238004  0.13458914  0.74280279  1
  O  O217  1  1.00293504  0.64612059  0.25266525  1
  O  O218  1  0.99358627  0.62995051  0.74641475  1
  O  O219  1  0.36783899  0.25436118  0.00790750  1
  O  O220  1  0.38140805  0.26064061  0.51432435  1
  O  O221  1  0.37096409  0.75242775  0.00525001  1
  O  O222  1  0.38140485  0.74112654  0.51871113  1
  O  O223  1  0.88358216  0.26201138  0.00985306  1
  O  O224  1  0.86824818  0.25629339  0.50547579  1
  O  O225  1  0.86728031  0.76241674  -0.00168856  1
  O  O226  1  0.86773433  0.74681858  0.50582721  1
  O  O227  1  0.11313724  0.24907548  0.48392251  1
  O  O228  1  0.13182541  0.24884664  0.99615057  1
  O  O229  1  0.11950401  0.73617218  0.50198705  1
  O  O230  1  0.13864443  0.74034450  1.00775439  1
  O  O231  1  0.62973902  0.24460772  0.49097732  1
  O  O232  1  0.62194511  0.23569231  0.98597937  1
  O  O233  1  0.63197168  0.73490404  0.50819291  1
  O  O234  1  0.64157068  0.75003646  1.00016347  1
  O  O235  1  0.48951173  0.25103095  0.13522432  1
  O  O236  1  0.49790301  0.25714190  0.63156261  1
  O  O237  1  0.48852887  0.73831428  0.12482956  1
  O  O238  1  0.49409133  0.74830600  0.63961252  1
  O  O239  1  0.99378261  0.25157190  0.13599552  1
  O  O240  1  0.99422043  0.24382858  0.63203015  1
  O  O241  1  1.00408817  0.75558202  0.13290364  1
  O  O242  1  0.99457505  0.74510158  0.63429087  1
  O  O243  1  0.00564806  0.25810491  0.36572040  1
  O  O244  1  0.00077217  0.25846153  0.86868922  1
  O  O245  1  0.00062144  0.76451704  0.37152574  1
  O  O246  1  -0.00593591  0.76049909  0.86629079  1
  O  O247  1  0.50775580  0.25358137  0.36590908  1
  O  O248  1  0.50655779  0.26401384  0.87739935  1
  O  O249  1  0.50226403  0.76482556  0.37207425  1
  O  O250  1  0.49505236  0.75656528  0.86229236  1
  O  O251  1  0.24227048  0.13167105  0.48552738  1
  O  O252  1  0.23958940  0.14142620  0.99224176  1
  O  O253  1  0.24015478  0.61277304  0.49197255  1
  O  O254  1  0.24746411  0.62755603  0.99189558  1
  O  O255  1  0.74089386  0.13210460  0.49325301  1
  O  O256  1  0.74426217  0.12048207  0.98975662  1
  O  O257  1  0.73681031  0.62961097  0.50297218  1
  O  O258  1  0.75556645  0.64141855  1.01417202  1
  O  O259  1  0.25669974  0.36594421  -0.00443651  1
  O  O260  1  0.25861927  0.38605792  0.51162504  1
  O  O261  1  0.26575268  0.86280090  -0.00548036  1
  O  O262  1  0.25099993  0.88107363  0.51397433  1
  O  O263  1  0.76399511  0.38566260  -0.00215519  1
  O  O264  1  0.75255841  0.37202421  0.50282566  1
  O  O265  1  0.75675132  0.86909534  0.00409192  1
  O  O266  1  0.75036711  0.86541949  0.50626875  1
  O  O267  1  0.13022171  0.50446552  0.24071254  1
  O  O268  1  0.13362214  0.49951740  0.74385746  1
  O  O269  1  0.11979934  0.98627351  0.25327747  1
  O  O270  1  0.13596168  0.99939493  0.74849521  1
  O  O271  1  0.61571557  0.48318778  0.24624390  1
  O  O272  1  0.63025221  0.49841362  0.73908677  1
  O  O273  1  0.62246627  0.98833105  0.24250445  1
  O  O274  1  0.63748956  0.99048319  0.74425387  1
  O  O275  1  0.37534858  0.01430137  0.25380712  1
  O  O276  1  0.36860359  0.00525928  0.75419557  1
  O  O277  1  0.36480736  0.50937697  0.24348267  1
  O  O278  1  0.36393037  0.50883295  0.74126094  1
  O  O279  1  0.87640095  0.00736382  0.26115389  1
  O  O280  1  0.86540941  -0.00827145  0.76317960  1
  O  O281  1  0.86419142  0.49107903  0.26015721  1
  O  O282  1  0.86388750  0.51005310  0.74698528  1
  O  O283  1  0.11458784  0.36649804  0.37493112  1
  O  O284  1  0.11185669  0.37088400  0.87548575  1
  O  O285  1  0.11781891  0.87336572  0.36596294  1
  O  O286  1  0.11376477  0.88330309  0.87919100  1
  O  O287  1  0.62333169  0.36200406  0.36286735  1
  O  O288  1  0.61273332  0.36562909  0.87270326  1
  O  O289  1  0.62786677  0.87595193  0.36104385  1
  O  O290  1  0.61996651  0.88113512  0.86389911  1
  O  O291  1  0.36949418  0.14094089  0.14808644  1
  O  O292  1  0.38016550  0.13336666  0.63002969  1
  O  O293  1  0.38303562  0.62902986  0.13379443  1
  O  O294  1  0.37307017  0.63120496  0.63726898  1
  O  O295  1  0.87510303  0.13695668  0.12910198  1
  O  O296  1  0.88430101  0.13039884  0.62012474  1
  O  O297  1  0.89165914  0.60678407  0.15467725  1
  O  O298  1  0.88013780  0.63029290  0.63516750  1
  O  O299  1  0.25700902  0.25425948  0.11739731  1
  O  O300  1  0.24235300  0.26094906  0.62897087  1
  O  O301  1  0.26371216  0.74093541  0.11185312  1
  O  O302  1  0.25863887  0.76143829  0.63602095  1
  O  O303  1  0.76260394  0.25960702  0.13069712  1
  O  O304  1  0.75221053  0.25493079  0.62008210  1
  O  O305  1  0.75001036  0.76655074  0.11314287  1
  O  O306  1  0.75734740  0.75552302  0.61489703  1
  O  O307  1  0.23220019  0.25257407  0.37217905  1
  O  O308  1  0.24508893  0.24743865  0.88076202  1
  O  O309  1  0.24831546  0.73406613  0.37224207  1
  O  O310  1  0.25649397  0.73799472  0.88488972  1
  O  O311  1  0.74084097  0.24581169  0.37779894  1
  O  O312  1  0.74361705  0.23862206  0.87080678  1
  O  O313  1  0.75814562  0.75528224  0.38760149  1
  O  O314  1  0.75629579  0.75440532  0.89002965  1
  O  O315  1  0.01995808  0.12885175  -0.00068632  1
  O  O316  1  0.00131650  0.12013179  0.51080220  1
  O  O317  1  0.00991131  0.61648915  -0.01024936  1
  O  O318  1  0.00561316  0.61870895  0.50382979  1
  O  O319  1  0.50651573  0.12512486  -0.00373671  1
  O  O320  1  0.51547634  0.13175345  0.49264552  1
  O  O321  1  0.49538571  0.61067938  0.00760095  1
  O  O322  1  0.51042192  0.61786944  0.50123920  1
  O  O323  1  0.49143638  0.38267907  0.49711596  1
  O  O324  1  0.49174465  0.37746387  0.99694906  1
  O  O325  1  0.49951306  0.87062827  0.49173751  1
  O  O326  1  0.49147248  0.86002585  0.98851429  1
  O  O327  1  0.99354322  0.38333993  0.49323017  1
  O  O328  1  0.99216785  0.38467730  0.99169862  1
  O  O329  1  0.99867375  0.88126816  0.49098819  1
  O  O330  1  0.99558209  0.87335784  0.99410427  1
  O  O331  1  0.50387336  0.49631388  0.38831502  1
  O  O332  1  0.50003682  0.47986025  0.88809082  1
  O  O333  1  0.50510673  0.97573022  0.37294204  1
  O  O334  1  0.49325027  0.98268902  0.86201671  1
  O  O335  1  1.00868454  0.48976490  0.38362775  1
  O  O336  1  0.99818582  0.49248985  0.88318603  1
  O  O337  1  0.99362881  0.99411253  0.37912459  1
  O  O338  1  0.99331232  0.99391182  0.87816990  1
  O  O339  1  -0.00255957  0.00764421  0.11932112  1
  O  O340  1  0.00015778  0.00590150  0.62434021  1
  O  O341  1  0.01022946  0.49482100  0.11254930  1
  O  O342  1  0.00467340  0.50468804  0.61755889  1
  O  O343  1  0.48336084  0.00049402  0.12069288  1
  O  O344  1  0.51740812  -0.00698328  0.63513893  1
  O  O345  1  0.49326549  0.50726044  0.11694595  1
  O  O346  1  0.50933560  0.49927516  0.61559686  1
  O  O347  1  0.24653824  0.38792502  0.25017595  1
  O  O348  1  0.24866729  0.38182188  0.74271183  1
  O  O349  1  0.23792894  0.87249950  0.25179738  1
  O  O350  1  0.25180149  0.88426272  0.74685460  1
  O  O351  1  0.73495750  0.38255509  0.24903243  1
  O  O352  1  0.74807763  0.38452011  0.74176034  1
  O  O353  1  0.74083600  0.87719859  0.24214597  1
  O  O354  1  0.74570973  0.87907468  0.74728906  1
  O  O355  1  0.25971271  0.13037354  0.26454566  1
  O  O356  1  0.25660779  0.11436560  0.75341092  1
  O  O357  1  0.25655684  0.61937255  0.25642373  1
  O  O358  1  0.25482305  0.61812685  0.75656380  1
  O  O359  1  0.75549821  0.12478413  0.25495419  1
  O  O360  1  0.74487954  0.11262820  0.75952566  1
  O  O361  1  0.76560525  0.62025063  0.24620733  1
  O  O362  1  0.75429238  0.62181361  0.74776552  1
  O  O363  1  0.35866801  0.13407205  0.36899211  1
  O  O364  1  0.37165578  0.11815536  0.86756723  1
  O  O365  1  0.36981298  0.62938042  0.36384824  1
  O  O366  1  0.36601227  0.62626685  0.86280401  1
  O  O367  1  0.87079363  0.12075145  0.37030004  1
  O  O368  1  0.86954043  0.11467560  0.88441163  1
  O  O369  1  0.88979490  0.61877194  0.35183919  1
  O  O370  1  0.87889762  0.62387845  0.86100390  1
  O  O371  1  0.12850646  0.38911485  0.12510713  1
  O  O372  1  0.13042762  0.38109893  0.62441246  1
  O  O373  1  0.13568717  0.87758459  0.13660821  1
  O  O374  1  0.13300493  0.87946963  0.63158387  1
  O  O375  1  0.62368109  0.36167423  0.13750260  1
  O  O376  1  0.63022211  0.38448814  0.62374159  1
  O  O377  1  0.62972916  0.88048417  0.13141231  1
  O  O378  1  0.63222448  0.87969142  0.63612069  1
  O  O379  1  0.11560545  0.25299718  0.25785283  1
  O  O380  1  0.11096210  0.25338687  0.75730637  1
  O  O381  1  0.11611106  0.75854963  0.24972947  1
  O  O382  1  0.11177204  0.74703135  0.74806815  1
  O  O383  1  0.61617656  0.25035652  0.25529812  1
  O  O384  1  0.62560093  0.24907203  0.76465831  1
  O  O385  1  0.62896809  0.76451556  0.24216616  1
  O  O386  1  0.62376024  0.75246026  0.74856429  1
  O  O387  1  0.38236609  0.25462957  0.24481392  1
  O  O388  1  0.36976130  0.23762772  0.73883556  1
  O  O389  1  0.37359306  0.73854008  0.24040795  1
  O  O390  1  0.38426772  0.74057931  0.74300517  1
  O  O391  1  0.88186782  0.24865606  0.24300073  1
  O  O392  1  0.88545894  0.25639796  0.74380925  1
  O  O393  1  0.88780641  0.74664759  0.24762808  1
  O  O394  1  0.88248967  0.74342855  0.74503427  1
  O  O395  1  0.38613369  0.48878822  0.51246362  1
  O  O396  1  0.37818680  0.48489419  1.00488536  1
  O  O397  1  0.37571496  1.01184142  0.51047493  1
  O  O398  1  0.37955050  0.98673598  0.97948510  1
  O  O399  1  0.88706633  0.49710224  0.50610419  1
  O  O400  1  0.88358481  0.49651404  1.00221056  1
  O  O401  1  0.87915635  0.99915911  0.48767056  1
  O  O402  1  0.87565695  0.98943537  0.98942627  1
  O  O403  1  0.13048810  0.01675979  -0.00323645  1
  O  O404  1  0.11550217  0.00288612  0.51044103  1
  O  O405  1  0.11940433  0.50783750  0.00538990  1
  O  O406  1  0.11324079  0.50834479  0.50569800  1
  O  O407  1  0.62238982  0.01432230  -0.00173715  1
  O  O408  1  0.63258907  0.00866335  0.51116406  1
  O  O409  1  0.61264336  0.49413276  0.00515087  1
  O  O410  1  0.62015922  0.50814106  0.50514466  1
  O  O411  1  0.37177484  0.36466948  0.11583793  1
  O  O412  1  0.36662220  0.36327905  0.62131550  1
  O  O413  1  0.37496088  0.86181770  0.11830852  1
  O  O414  1  0.36772012  0.86727407  0.62414207  1
  O  O415  1  0.87561909  0.36957787  0.11546083  1
  O  O416  1  0.86904804  0.36917198  0.61705629  1
  O  O417  1  0.86687595  0.88150573  0.11473712  1
  O  O418  1  0.87008511  0.86866635  0.62242415  1
  O  O419  1  0.13329257  0.13753704  0.37178550  1
  O  O420  1  0.13220309  0.13263807  0.88200195  1
  O  O421  1  0.13207886  0.62920616  0.38408935  1
  O  O422  1  0.13721084  0.62112604  0.88616559  1
  O  O423  1  0.62903256  0.13172457  0.37961117  1
  O  O424  1  0.63126270  0.12802684  0.88408722  1
  O  O425  1  0.62119749  0.62489112  0.38813191  1
  O  O426  1  0.61771872  0.61784702  0.88567823  1
