# generated using pymatgen
data_V85Zn86O256
_symmetry_space_group_name_H-M   'P 1'
_cell_length_a   16.99091964
_cell_length_b   16.99803747
_cell_length_c   16.99062166
_cell_angle_alpha   89.83409549
_cell_angle_beta   89.98251375
_cell_angle_gamma   89.96122934
_symmetry_Int_Tables_number   1
_chemical_formula_structural   V85Zn86O256
_chemical_formula_sum   'V85 Zn86 O256'
_cell_volume   4907.07840718
_cell_formula_units_Z   1
loop_
 _symmetry_equiv_pos_site_id
 _symmetry_equiv_pos_as_xyz
  1  'x, y, z'
loop_
 _atom_site_type_symbol
 _atom_site_label
 _atom_site_symmetry_multiplicity
 _atom_site_fract_x
 _atom_site_fract_y
 _atom_site_fract_z
 _atom_site_occupancy
  V  V0  1  0.87567939  0.75084006  0.12387376  1
  V  V1  1  0.62446219  0.25576244  0.36914379  1
  V  V2  1  -0.00280658  0.62454766  0.12385464  1
  V  V3  1  0.50216964  0.75153405  0.24906495  1
  V  V4  1  0.23478861  0.62729147  0.38409162  1
  V  V5  1  0.37556274  0.24884758  0.62628091  1
  V  V6  1  0.50679156  0.87523939  0.37521984  1
  V  V7  1  0.00214033  0.12088742  0.11132146  1
  V  V8  1  0.75124020  0.24927280  0.49666744  1
  V  V9  1  0.74450010  0.00207034  0.24098262  1
  V  V10  1  -0.00707298  0.50029356  -0.00573646  1
  V  V11  1  0.87965338  0.24727478  0.62500372  1
  V  V12  1  0.87683374  0.11712818  0.24979435  1
  V  V13  1  0.37254767  0.37080410  0.00172438  1
  V  V14  1  0.86058929  0.76346142  0.63615500  1
  V  V15  1  0.37175398  0.50363464  0.87241989  1
  V  V16  1  0.49662965  0.50103203  0.00371820  1
  V  V17  1  0.62743625  0.49746175  0.62875387  1
  V  V18  1  0.25011402  0.24786952  0.49916937  1
  V  V19  1  0.23323552  0.00018494  0.74924487  1
  V  V20  1  0.24835461  0.37473652  0.62472932  1
  V  V21  1  0.37577482  0.37234472  0.49894044  1
  V  V22  1  0.74068895  0.49485824  0.25120958  1
  V  V23  1  0.37408326  0.49826835  0.37442494  1
  V  V24  1  0.23054392  0.25007001  -0.00123790  1
  V  V25  1  0.62381367  0.12508229  0.50055843  1
  V  V26  1  0.12458548  0.11937971  0.50357106  1
  V  V27  1  0.63077106  0.63653244  0.49995891  1
  V  V28  1  0.75949041  0.61296740  0.87645413  1
  V  V29  1  0.87299694  0.62421940  0.25021950  1
  V  V30  1  0.37520555  -0.00178542  0.87856371  1
  V  V31  1  0.37581163  -0.00261591  0.37634315  1
  V  V32  1  0.74449998  0.88135921  0.11621657  1
  V  V33  1  0.25391877  0.75786912  0.00390391  1
  V  V34  1  -0.01643479  0.61850404  0.64580775  1
  V  V35  1  0.49243452  0.74317244  0.74323684  1
  V  V36  1  0.62190927  0.62278518  0.00729605  1
  V  V37  1  0.24938516  -0.00968020  0.24731835  1
  V  V38  1  0.63684203  -0.00301031  0.63390706  1
  V  V39  1  0.50401614  0.49695834  0.49951861  1
  V  V40  1  0.24822230  0.62775399  0.87552943  1
  V  V41  1  0.00225383  0.74852788  0.25662108  1
  V  V42  1  0.88189608  0.36988353  0.49269473  1
  V  V43  1  0.24738868  0.37291977  0.12523131  1
  V  V44  1  0.50269663  0.25321694  0.75392811  1
  V  V45  1  0.75319120  0.12091233  0.37056309  1
  V  V46  1  0.86930954  0.24816802  0.12045390  1
  V  V47  1  -0.00003068  0.50316422  0.49916609  1
  V  V48  1  0.74275678  0.37373819  0.12686435  1
  V  V49  1  0.12168018  0.49898225  0.12611609  1
  V  V50  1  0.88940973  0.87800153  0.00123105  1
  V  V51  1  0.62603375  0.87328020  0.24644763  1
  V  V52  1  0.87672736  -0.00044492  0.87523681  1
  V  V53  1  0.62064736  0.74971557  0.87835671  1
  V  V54  1  0.50209347  0.37434967  0.37131644  1
  V  V55  1  0.12614143  0.87313621  0.24897600  1
  V  V56  1  0.50087437  -0.00266609  0.49779339  1
  V  V57  1  0.51416445  0.00215859  0.00203898  1
  V  V58  1  0.00376328  0.87379891  0.85623534  1
  V  V59  1  0.49940847  0.37532260  0.87547852  1
  V  V60  1  -0.01372131  -0.00093846  0.49337621  1
  V  V61  1  0.37609186  0.12565276  0.75233904  1
  V  V62  1  0.37377404  0.62599599  0.25024864  1
  V  V63  1  0.12094198  0.25276001  0.37436682  1
  V  V64  1  0.74732742  0.63727556  0.37557241  1
  V  V65  1  0.74967763  0.37464380  0.62841706  1
  V  V66  1  0.74972426  0.74947380  0.00087655  1
  V  V67  1  0.12251370  0.50578417  0.62155509  1
  V  V68  1  0.12483198  0.00174880  0.11364488  1
  V  V69  1  0.23756017  0.13326260  0.88238270  1
  V  V70  1  0.87073674  0.37586035  -0.00090677  1
  V  V71  1  0.00848658  0.36975810  0.87859722  1
  V  V72  1  0.87062512  0.12245743  0.75000208  1
  V  V73  1  0.49962624  0.25293417  0.24718899  1
  V  V74  1  0.87706138  0.49378866  0.37244135  1
  V  V75  1  0.24772117  0.49856209  0.25039294  1
  V  V76  1  0.50568091  0.12260025  0.12383391  1
  V  V77  1  0.12198376  0.75155275  0.85982334  1
  V  V78  1  0.00917816  0.24806146  0.75458617  1
  V  V79  1  0.24883516  0.50086162  0.74970253  1
  V  V80  1  0.75411122  0.13866284  0.88220451  1
  V  V81  1  -0.00169709  0.25227094  0.25179928  1
  V  V82  1  0.24999613  0.12354508  0.37283148  1
  V  V83  1  0.12281433  0.62628930  0.00112921  1
  V  V84  1  0.12120381  0.37305659  0.25181634  1
  Zn  Zn85  1  0.35689010  0.80744225  0.55506766  1
  Zn  Zn86  1  0.12040219  -0.02803788  0.62185506  1
  Zn  Zn87  1  0.37500254  0.12401003  0.24681895  1
  Zn  Zn88  1  0.50075271  0.12456793  0.62871250  1
  Zn  Zn89  1  0.49304405  0.62513819  0.62697301  1
  Zn  Zn90  1  0.85819168  0.85711417  0.48310853  1
  Zn  Zn91  1  0.31844595  0.67453766  0.69378995  1
  Zn  Zn92  1  0.81571126  0.54197507  0.72611391  1
  Zn  Zn93  1  0.49636594  0.87011803  0.87596231  1
  Zn  Zn94  1  0.00544885  0.12086114  0.62905583  1
  Zn  Zn95  1  -0.00786311  0.88846135  0.36880733  1
  Zn  Zn96  1  0.49452132  0.62901627  0.12613946  1
  Zn  Zn97  1  0.37079373  0.88387817  0.01174427  1
  Zn  Zn98  1  0.12061227  0.75446516  0.40145622  1
  Zn  Zn99  1  0.61632100  0.49324803  0.13316074  1
  Zn  Zn100  1  0.64070990  0.26009190  0.88003081  1
  Zn  Zn101  1  0.37195788  0.24606685  0.12565525  1
  Zn  Zn102  1  0.63920215  0.13150994  0.00663078  1
  Zn  Zn103  1  0.35262823  0.77615168  0.15147551  1
  Zn  Zn104  1  0.63604620  0.86680981  0.74478345  1
  Zn  Zn105  1  0.62505995  0.38120005  0.75385229  1
  Zn  Zn106  1  0.13001980  0.36695545  0.75450675  1
  Zn  Zn107  1  0.18519177  0.18391662  0.18416437  1
  Zn  Zn108  1  0.19269884  0.18116859  0.68645061  1
  Zn  Zn109  1  0.18644727  0.68455613  0.18968754  1
  Zn  Zn110  1  0.18998642  0.80104083  0.57425082  1
  Zn  Zn111  1  0.68512795  0.18970529  0.18591107  1
  Zn  Zn112  1  0.68904690  0.19015219  0.68939558  1
  Zn  Zn113  1  0.68912748  0.68816452  0.18797506  1
  Zn  Zn114  1  0.68476178  0.68145550  0.69411212  1
  Zn  Zn115  1  0.31300222  0.31117010  0.31138928  1
  Zn  Zn116  1  0.31278637  0.31256880  0.81448120  1
  Zn  Zn117  1  0.33052605  0.79264299  0.36266845  1
  Zn  Zn118  1  0.31563213  0.83619317  0.71656723  1
  Zn  Zn119  1  0.81174271  0.30959884  0.30760403  1
  Zn  Zn120  1  0.82925047  0.34247492  0.80004550  1
  Zn  Zn121  1  0.81469789  0.81722370  0.30642758  1
  Zn  Zn122  1  0.80976153  0.80617403  0.81005930  1
  Zn  Zn123  1  0.18594139  0.43754420  0.43806540  1
  Zn  Zn124  1  0.18487636  0.43904041  0.94111548  1
  Zn  Zn125  1  0.18221821  0.93172209  0.43530024  1
  Zn  Zn126  1  0.18711376  0.93637674  0.92774604  1
  Zn  Zn127  1  0.69055426  0.43936322  0.44014971  1
  Zn  Zn128  1  0.68416116  0.43636849  0.94421235  1
  Zn  Zn129  1  0.68828889  0.94173410  0.43034955  1
  Zn  Zn130  1  0.70869962  0.92398135  0.90135230  1
  Zn  Zn131  1  0.31233379  0.06582429  0.06481944  1
  Zn  Zn132  1  0.31052117  -0.03521141  0.56526661  1
  Zn  Zn133  1  0.31020123  0.56334092  0.06421398  1
  Zn  Zn134  1  0.31383986  0.56038434  0.55817331  1
  Zn  Zn135  1  0.81879468  0.06034340  0.05778189  1
  Zn  Zn136  1  0.80988230  0.06366659  0.56293041  1
  Zn  Zn137  1  0.80883108  0.55974495  0.06418760  1
  Zn  Zn138  1  0.81089511  0.55894042  0.55358699  1
  Zn  Zn139  1  0.43540937  0.43642229  0.18781292  1
  Zn  Zn140  1  0.43677143  0.44087164  0.68542041  1
  Zn  Zn141  1  0.43698684  0.94087012  0.18626561  1
  Zn  Zn142  1  0.46837789  0.92760433  0.68162565  1
  Zn  Zn143  1  0.93338020  0.43644255  0.18532525  1
  Zn  Zn144  1  0.94329669  0.42905126  0.68747321  1
  Zn  Zn145  1  0.94015626  0.93682064  0.18361690  1
  Zn  Zn146  1  0.93773824  0.94308855  0.68242738  1
  Zn  Zn147  1  0.06402589  0.06427726  0.30886078  1
  Zn  Zn148  1  0.05512595  0.06472504  0.82120797  1
  Zn  Zn149  1  0.05806184  0.56039807  0.31203129  1
  Zn  Zn150  1  0.06663534  0.55806287  0.81491670  1
  Zn  Zn151  1  0.56582694  0.06454701  0.30812411  1
  Zn  Zn152  1  0.56517064  0.06810145  0.81759864  1
  Zn  Zn153  1  0.56268757  0.56671800  0.31714239  1
  Zn  Zn154  1  0.56361993  0.56494181  0.81617161  1
  Zn  Zn155  1  0.43636557  0.18469723  0.43564216  1
  Zn  Zn156  1  0.43756227  0.18597864  0.93792387  1
  Zn  Zn157  1  0.45041423  0.68297202  0.43610479  1
  Zn  Zn158  1  0.43435975  0.68744509  0.93713158  1
  Zn  Zn159  1  0.93914008  0.18126394  0.43570577  1
  Zn  Zn160  1  0.93683082  0.19230171  0.93527792  1
  Zn  Zn161  1  0.93067780  0.68568846  0.44544130  1
  Zn  Zn162  1  0.93839377  0.69260785  0.93271294  1
  Zn  Zn163  1  0.05523777  0.31283807  0.06859881  1
  Zn  Zn164  1  0.06529020  0.31373679  0.56321640  1
  Zn  Zn165  1  0.07088251  0.81101067  0.06720237  1
  Zn  Zn166  1  0.03101476  0.80616161  0.57055992  1
  Zn  Zn167  1  0.56310492  0.30733255  0.05831550  1
  Zn  Zn168  1  0.56203999  0.31104552  0.56215151  1
  Zn  Zn169  1  0.55717957  0.81474361  0.06270271  1
  Zn  Zn170  1  0.69080461  0.81748364  0.56079172  1
  O  O171  1  0.11473386  0.11233798  0.12966514  1
  O  O172  1  0.12629254  0.12884038  0.60884468  1
  O  O173  1  0.11692746  0.61759456  0.12137257  1
  O  O174  1  0.10051238  0.60449082  0.62883138  1
  O  O175  1  0.61219395  0.12904412  0.12281161  1
  O  O176  1  0.62452507  0.12493446  0.61267325  1
  O  O177  1  0.62300768  0.62325320  0.11637419  1
  O  O178  1  0.62848131  0.61408117  0.61311139  1
  O  O179  1  0.38004032  0.37844488  0.37957260  1
  O  O180  1  0.37636239  0.38460685  0.88480007  1
  O  O181  1  0.39119956  0.89135431  0.36519745  1
  O  O182  1  0.37756889  0.89685920  0.87841388  1
  O  O183  1  0.86761368  0.38045126  0.38160824  1
  O  O184  1  0.88990641  0.36529135  0.89464534  1
  O  O185  1  0.88160110  0.87119676  0.37347746  1
  O  O186  1  0.88781882  0.87838777  0.88159147  1
  O  O187  1  0.25684054  0.00554448  0.36876086  1
  O  O188  1  0.25742387  0.01594869  0.87425047  1
  O  O189  1  0.25313107  0.50427710  0.36864160  1
  O  O190  1  0.25166765  0.50507201  0.87052347  1
  O  O191  1  0.74506295  0.01540777  0.35857371  1
  O  O192  1  0.77116709  0.01749365  0.87804446  1
  O  O193  1  0.75889397  0.50339814  0.36788099  1
  O  O194  1  0.74744056  0.51398600  0.88881837  1
  O  O195  1  0.24128104  0.49353111  0.13038892  1
  O  O196  1  0.24175963  0.49570310  0.63076817  1
  O  O197  1  0.23574366  1.01325664  0.13745082  1
  O  O198  1  0.24105636  1.00721559  0.64582027  1
  O  O199  1  0.74740097  0.49161141  0.13571491  1
  O  O200  1  0.74460686  0.48803218  0.62389294  1
  O  O201  1  0.75514958  0.99183864  0.12854915  1
  O  O202  1  0.73521459  1.01315699  0.62822442  1
  O  O203  1  0.00323080  0.36026458  0.24191928  1
  O  O204  1  0.00679569  0.36394326  0.76147996  1
  O  O205  1  0.00551413  0.86413405  0.24787657  1
  O  O206  1  -0.00238633  0.87613440  0.75887172  1
  O  O207  1  0.49511118  0.36333017  0.25590097  1
  O  O208  1  0.49908903  0.36858496  0.75578968  1
  O  O209  1  0.50951577  0.87355486  0.25240474  1
  O  O210  1  0.51502494  0.86094915  0.75927034  1
  O  O211  1  0.49992192  0.13287996  0.24224925  1
  O  O212  1  0.49226844  0.13637325  0.75491805  1
  O  O213  1  0.49319249  0.63418344  0.25310103  1
  O  O214  1  0.50390359  0.63757108  0.75178020  1
  O  O215  1  0.99159534  0.13190940  0.24311074  1
  O  O216  1  0.99065684  0.13351224  0.75072583  1
  O  O217  1  0.99313039  0.62863236  0.24257549  1
  O  O218  1  0.99116469  0.60453409  0.74432487  1
  O  O219  1  0.36963412  0.26363929  -0.00034959  1
  O  O220  1  0.37035448  0.25236454  0.50432144  1
  O  O221  1  0.35850762  0.75015911  -0.00248984  1
  O  O222  1  0.37429648  0.75590284  0.46274401  1
  O  O223  1  0.88225408  0.25911094  0.01493824  1
  O  O224  1  0.87308726  0.25174445  0.50316260  1
  O  O225  1  0.86977134  0.75829218  0.00552358  1
  O  O226  1  0.87842001  0.74800477  0.52365232  1
  O  O227  1  0.12843292  0.24457835  0.49087623  1
  O  O228  1  0.13190355  0.25527261  1.00443401  1
  O  O229  1  0.11017761  0.74870257  0.51101766  1
  O  O230  1  0.13419259  0.74289368  0.99806764  1
  O  O231  1  0.62904080  0.24164246  0.49099734  1
  O  O232  1  0.61260926  0.23996660  0.98675853  1
  O  O233  1  0.62670967  0.73415542  0.50783653  1
  O  O234  1  0.62665786  0.73942424  1.00040194  1
  O  O235  1  0.49773058  0.24471307  0.13396242  1
  O  O236  1  0.49409409  0.24917861  0.63480416  1
  O  O237  1  0.49173162  0.75212862  0.13965604  1
  O  O238  1  0.50116768  0.74824235  0.64366162  1
  O  O239  1  0.99228475  0.24030390  0.13439652  1
  O  O240  1  0.99157010  0.24945982  0.63048542  1
  O  O241  1  0.99499768  0.74288089  0.13281734  1
  O  O242  1  0.97715136  0.72105942  0.63391097  1
  O  O243  1  0.00893789  0.24125463  0.36290518  1
  O  O244  1  -0.00057734  0.25658111  0.86577540  1
  O  O245  1  0.00147183  0.73597902  0.36083813  1
  O  O246  1  0.00650388  0.76423345  0.87670592  1
  O  O247  1  0.50628716  0.25275944  0.36785483  1
  O  O248  1  0.49161151  0.25965282  0.86480564  1
  O  O249  1  0.50255518  0.76367752  0.35928330  1
  O  O250  1  0.50671603  0.74703857  0.87343924  1
  O  O251  1  0.23993505  0.13039833  0.48399762  1
  O  O252  1  0.25484963  0.13714307  0.98960507  1
  O  O253  1  0.25008896  0.61463066  0.48183611  1
  O  O254  1  0.24212047  0.62533238  0.99272412  1
  O  O255  1  0.74343772  0.12940190  0.48829219  1
  O  O256  1  0.75784256  0.12810204  0.98797960  1
  O  O257  1  0.73917758  0.61918019  0.49018906  1
  O  O258  1  0.74077445  0.62907332  0.99897933  1
  O  O259  1  0.25365470  0.36846003  0.00431741  1
  O  O260  1  0.25591427  0.36796856  0.50383811  1
  O  O261  1  0.24800323  0.85925451  -0.00858594  1
  O  O262  1  0.25319686  0.88171257  0.50742328  1
  O  O263  1  0.76184987  0.38251244  0.01194456  1
  O  O264  1  0.76043378  0.36790556  0.50621181  1
  O  O265  1  0.75899244  0.87020291  0.00296190  1
  O  O266  1  0.75208902  0.88777380  0.50058109  1
  O  O267  1  0.12610062  0.49220584  0.24578516  1
  O  O268  1  0.13679292  0.49446171  0.74421338  1
  O  O269  1  0.13123939  0.99159041  0.24808385  1
  O  O270  1  0.13157323  1.01231254  0.75150837  1
  O  O271  1  0.63645195  0.50419493  0.25223036  1
  O  O272  1  0.61775624  0.49976453  0.73407340  1
  O  O273  1  0.63660668  0.99337125  0.24517529  1
  O  O274  1  0.61346748  1.00721393  0.73325257  1
  O  O275  1  0.36584368  0.00456599  0.25805213  1
  O  O276  1  0.37156205  0.01270031  0.76580936  1
  O  O277  1  0.36823092  0.50457451  0.25568565  1
  O  O278  1  0.36273153  0.49058750  0.76313333  1
  O  O279  1  0.86615748  0.01145818  0.24205382  1
  O  O280  1  0.88413116  0.01413816  0.75793591  1
  O  O281  1  0.86807104  0.50373558  0.25613383  1
  O  O282  1  0.86298740  0.44979347  0.76035432  1
  O  O283  1  0.13017113  0.35974805  0.36917006  1
  O  O284  1  0.11308926  0.37652168  0.87713334  1
  O  O285  1  0.11407336  0.87055826  0.36234652  1
  O  O286  1  0.10895970  0.86958138  0.87815008  1
  O  O287  1  0.62125043  0.36188408  0.38311475  1
  O  O288  1  0.61616241  0.37735350  0.87310290  1
  O  O289  1  0.61804532  0.88411869  0.35754566  1
  O  O290  1  0.61698450  0.85422526  0.89491955  1
  O  O291  1  0.38753350  0.12793120  0.12730586  1
  O  O292  1  0.37773919  0.13273426  0.64415154  1
  O  O293  1  0.37186580  0.62355108  0.14299619  1
  O  O294  1  0.38113866  0.60698472  0.63113795  1
  O  O295  1  0.88046239  0.13043230  0.13118401  1
  O  O296  1  0.87475527  0.13546196  0.63185378  1
  O  O297  1  0.87705388  0.63028302  0.12979248  1
  O  O298  1  0.87635575  0.59975298  0.63797415  1
  O  O299  1  0.25014635  0.25373916  0.11658076  1
  O  O300  1  0.25612042  0.25439115  0.61928867  1
  O  O301  1  0.24789286  0.74210992  0.10960115  1
  O  O302  1  0.27861969  0.76245799  0.63372368  1
  O  O303  1  0.76123122  0.25829257  0.13437152  1
  O  O304  1  0.75930898  0.25202234  0.61471892  1
  O  O305  1  0.75611071  0.76015904  0.12079356  1
  O  O306  1  0.75398511  0.74902637  0.63064203  1
  O  O307  1  0.24264035  0.24244490  0.37721582  1
  O  O308  1  0.25047269  0.24121498  0.88216039  1
  O  O309  1  0.23482328  0.73128436  0.36750662  1
  O  O310  1  0.23955162  0.73544745  0.88865441  1
  O  O311  1  0.74208121  0.24216772  0.37459185  1
  O  O312  1  0.76103236  0.24057993  0.87102980  1
  O  O313  1  0.75379395  0.73555305  0.36448785  1
  O  O314  1  0.73953195  0.73610093  0.88508246  1
  O  O315  1  -0.00588556  0.12888808  0.01248363  1
  O  O316  1  0.00966858  0.11945343  0.50091772  1
  O  O317  1  0.00168253  0.61864905  0.00346514  1
  O  O318  1  -0.01485667  0.60452467  0.51365583  1
  O  O319  1  0.49687323  0.11430006  0.00690498  1
  O  O320  1  0.51049089  0.11815333  0.49617757  1
  O  O321  1  0.50436345  0.61991998  0.00425449  1
  O  O322  1  0.51667675  0.61630695  0.49896887  1
  O  O323  1  0.49448032  0.37625175  0.49176795  1
  O  O324  1  0.48922256  0.38121384  0.99648615  1
  O  O325  1  0.51272156  0.89235519  0.48284420  1
  O  O326  1  0.49513214  0.89246747  0.99951446  1
  O  O327  1  0.98668877  0.37997437  0.50360526  1
  O  O328  1  0.99394850  0.38192249  0.99889638  1
  O  O329  1  0.98688942  0.89341421  0.49873438  1
  O  O330  1  0.98996043  0.86814576  1.00535285  1
  O  O331  1  0.49546616  0.49329965  0.37882175  1
  O  O332  1  0.48933237  0.49642580  0.88143661  1
  O  O333  1  0.49602866  0.99880550  0.37626472  1
  O  O334  1  0.48956370  1.00837052  0.88663629  1
  O  O335  1  0.98464999  0.50351339  0.38135954  1
  O  O336  1  1.00372226  0.49072358  0.88934938  1
  O  O337  1  1.00462201  1.00686771  0.38871048  1
  O  O338  1  0.99191720  0.98508213  0.87489493  1
  O  O339  1  0.01313618  0.00807263  0.12956034  1
  O  O340  1  0.00366326  0.00541354  0.61085408  1
  O  O341  1  0.00287819  0.50449088  0.11820777  1
  O  O342  1  0.00340623  0.49608361  0.61877552  1
  O  O343  1  0.49829207  0.00845460  0.11099911  1
  O  O344  1  0.51287165  0.00728202  0.61140646  1
  O  O345  1  0.49891689  0.50334889  0.11984811  1
  O  O346  1  0.51006661  0.49730546  0.61591084  1
  O  O347  1  0.24296079  0.37840337  0.24501956  1
  O  O348  1  0.24905916  0.38162911  0.74500320  1
  O  O349  1  0.23926646  0.88605564  0.25726665  1
  O  O350  1  0.24602358  0.90307286  0.77200034  1
  O  O351  1  0.75598776  0.38444573  0.24049380  1
  O  O352  1  0.73798496  0.35344260  0.73011143  1
  O  O353  1  0.74448823  0.88299728  0.23812804  1
  O  O354  1  0.73480630  0.88572432  0.79368445  1
  O  O355  1  0.24616559  0.11803243  0.26205794  1
  O  O356  1  0.25613747  0.12215295  0.76479701  1
  O  O357  1  0.25457313  0.61697315  0.25793472  1
  O  O358  1  0.25060006  0.61202734  0.76498930  1
  O  O359  1  0.75593746  0.12001823  0.25024603  1
  O  O360  1  0.76575707  0.13457237  0.75872316  1
  O  O361  1  0.75379736  0.61593545  0.25565447  1
  O  O362  1  0.74456694  0.61833135  0.77026521  1
  O  O363  1  0.36586126  0.11630033  0.37280528  1
  O  O364  1  0.36722580  0.12254518  0.86872843  1
  O  O365  1  0.36807886  0.61620187  0.36406359  1
  O  O366  1  0.36314612  0.61069785  0.88452019  1
  O  O367  1  0.86309129  0.13467684  0.36101727  1
  O  O368  1  0.87360872  0.12080764  0.86974524  1
  O  O369  1  0.86551950  0.61448118  0.37111341  1
  O  O370  1  0.85848803  0.62771279  0.88520198  1
  O  O371  1  0.12841370  0.37947190  0.13204765  1
  O  O372  1  0.13195716  0.38266932  0.62763429  1
  O  O373  1  0.12026974  0.89072874  0.13668021  1
  O  O374  1  0.10992488  0.86208409  0.63158512  1
  O  O375  1  0.63843230  0.37369951  0.11798576  1
  O  O376  1  0.63397407  0.38081456  0.61961169  1
  O  O377  1  0.63756249  0.87342033  0.12806456  1
  O  O378  1  0.62930586  0.89266613  0.62743654  1
  O  O379  1  0.11720831  0.25189485  0.25517569  1
  O  O380  1  0.11281619  0.24590575  0.74078387  1
  O  O381  1  0.11467150  0.75877188  0.24145430  1
  O  O382  1  0.13324441  0.74713260  0.76533935  1
  O  O383  1  0.61491906  0.24490674  0.26082941  1
  O  O384  1  0.61169445  0.24983812  0.75509071  1
  O  O385  1  0.61829435  0.76328757  0.24234757  1
  O  O386  1  0.61837955  0.74583619  0.76485311  1
  O  O387  1  0.38556671  0.24553985  0.24974657  1
  O  O388  1  0.38131138  0.24638075  0.74704435  1
  O  O389  1  0.38074834  0.74150993  0.25934643  1
  O  O390  1  0.38906091  0.75284205  0.75848231  1
  O  O391  1  0.88144905  0.24121660  0.24108470  1
  O  O392  1  0.88659208  0.24740776  0.73999677  1
  O  O393  1  0.88323670  0.74343038  0.24238953  1
  O  O394  1  0.86897032  0.74610045  0.73684418  1
  O  O395  1  0.38300521  0.49051620  0.49248461  1
  O  O396  1  0.37483311  0.49055638  0.99414933  1
  O  O397  1  0.38859186  1.00529545  0.48745260  1
  O  O398  1  0.37375989  1.00530477  0.98777231  1
  O  O399  1  0.87836607  0.48712883  0.49000660  1
  O  O400  1  0.88549646  0.49007129  1.01078745  1
  O  O401  1  0.88725372  1.01639395  0.49791384  1
  O  O402  1  0.87665432  0.98777182  0.99076816  1
  O  O403  1  0.13440867  -0.00567717  0.01598931  1
  O  O404  1  0.11884505  0.00871722  0.50084832  1
  O  O405  1  0.11446922  0.50556115  0.00713383  1
  O  O406  1  0.11053535  0.48886397  0.50727962  1
  O  O407  1  0.61262692  0.00715740  -0.00944035  1
  O  O408  1  0.62119742  0.01193068  0.50383100  1
  O  O409  1  0.61394012  0.50800814  0.00502090  1
  O  O410  1  0.62202357  0.50180840  0.50944383  1
  O  O411  1  0.36542834  0.37496153  0.11593928  1
  O  O412  1  0.36883233  0.36975409  0.61830316  1
  O  O413  1  0.36666040  0.88227359  0.12398120  1
  O  O414  1  0.37646464  0.89182622  0.63016207  1
  O  O415  1  0.86800659  0.36618444  0.11948790  1
  O  O416  1  0.86822754  0.36189350  0.61285007  1
  O  O417  1  0.86625696  0.87192193  0.11866297  1
  O  O418  1  0.87476538  0.86369137  0.62934680  1
  O  O419  1  0.13103530  0.13440160  0.37930726  1
  O  O420  1  0.13942925  0.12172221  0.87775494  1
  O  O421  1  0.13316468  0.61865616  0.37356584  1
  O  O422  1  0.12861600  0.63050556  0.88120277  1
  O  O423  1  0.63288753  0.13356703  0.38034664  1
  O  O424  1  0.64974812  0.12457045  0.87134909  1
  O  O425  1  0.63317605  0.62055875  0.39001251  1
  O  O426  1  0.62945360  0.62936651  0.89107146  1
