# generated using pymatgen
data_V85Zn86O256
_symmetry_space_group_name_H-M   'P 1'
_cell_length_a   16.96828514
_cell_length_b   16.95615349
_cell_length_c   16.95352429
_cell_angle_alpha   89.92017632
_cell_angle_beta   89.85162935
_cell_angle_gamma   89.93254873
_symmetry_Int_Tables_number   1
_chemical_formula_structural   V85Zn86O256
_chemical_formula_sum   'V85 Zn86 O256'
_cell_volume   4877.79010982
_cell_formula_units_Z   1
loop_
 _symmetry_equiv_pos_site_id
 _symmetry_equiv_pos_as_xyz
  1  'x, y, z'
loop_
 _atom_site_type_symbol
 _atom_site_label
 _atom_site_symmetry_multiplicity
 _atom_site_fract_x
 _atom_site_fract_y
 _atom_site_fract_z
 _atom_site_occupancy
  V  V0  1  0.00407587  -0.00037171  0.00268402  1
  V  V1  1  0.75819949  0.62396084  0.87259708  1
  V  V2  1  0.12445930  -0.00202543  0.62548143  1
  V  V3  1  0.75356380  0.12710516  0.87551366  1
  V  V4  1  0.87370304  0.74445344  0.63139021  1
  V  V5  1  0.12904720  0.13100578  -0.00090169  1
  V  V6  1  0.37060294  0.25062239  0.11951481  1
  V  V7  1  0.86542358  0.25126698  0.62323641  1
  V  V8  1  0.75725972  0.37024150  0.12797996  1
  V  V9  1  0.50161637  0.12712922  0.12293437  1
  V  V10  1  0.62475262  0.49217965  0.13126968  1
  V  V11  1  0.62387914  0.74795219  0.87937184  1
  V  V12  1  0.37442698  0.74267678  0.13032053  1
  V  V13  1  0.36909062  0.11934951  0.24529077  1
  V  V14  1  0.50569270  0.37544232  0.87121838  1
  V  V15  1  0.00387413  0.86606933  0.87877737  1
  V  V16  1  0.73951316  0.13561201  0.37619363  1
  V  V17  1  0.50479902  0.25644603  0.25744368  1
  V  V18  1  0.12341964  0.75037486  0.37387667  1
  V  V19  1  0.25408607  0.75476572  0.49900332  1
  V  V20  1  0.87323667  0.87676861  0.50045247  1
  V  V21  1  0.12679732  0.25246303  0.87303097  1
  V  V22  1  0.49031051  0.24123533  0.74523049  1
  V  V23  1  0.50132379  0.49892641  0.00114242  1
  V  V24  1  0.74940850  0.00240357  0.75051856  1
  V  V25  1  0.12429719  0.12318643  0.49710259  1
  V  V26  1  0.62467322  0.62725880  0.49908383  1
  V  V27  1  -0.00207896  0.87308821  0.37343084  1
  V  V28  1  0.23946000  0.62979377  0.87851728  1
  V  V29  1  0.24667737  0.87976303  0.12573235  1
  V  V30  1  0.58872694  0.11786838  0.53787749  1
  V  V31  1  0.74820371  0.75401083  0.50186274  1
  V  V32  1  0.12342063  0.88016235  0.24806987  1
  V  V33  1  0.01289272  0.50216204  -0.00069324  1
  V  V34  1  0.62040613  0.76651029  0.37013312  1
  V  V35  1  0.12465544  0.86839265  0.75462999  1
  V  V36  1  0.86393193  0.73628998  0.13160581  1
  V  V37  1  0.37802749  0.49937956  0.37151834  1
  V  V38  1  0.74791319  0.88129609  0.62775585  1
  V  V39  1  0.37567909  0.62483852  0.75124120  1
  V  V40  1  0.12341408  0.62372295  0.50287187  1
  V  V41  1  0.50119294  0.49410694  0.49408371  1
  V  V42  1  0.75503401  0.50072287  0.25181853  1
  V  V43  1  0.38803815  -0.00989677  0.37818135  1
  V  V44  1  0.62741243  0.62521063  0.00270697  1
  V  V45  1  0.63229511  -0.00752697  0.12338125  1
  V  V46  1  0.25053058  0.37307417  0.62349744  1
  V  V47  1  0.12041018  0.37499570  0.75310043  1
  V  V48  1  0.87485679  0.13554799  0.24605153  1
  V  V49  1  0.37422496  0.37268853  0.49769651  1
  V  V50  1  0.25530990  0.62506295  0.37058194  1
  V  V51  1  0.25665832  -0.00279197  0.75122359  1
  V  V52  1  0.87129706  0.87388081  0.01094343  1
  V  V53  1  0.49600773  0.62410846  0.13749705  1
  V  V54  1  0.02327388  0.62224661  0.12741063  1
  V  V55  1  0.12168787  0.25122428  0.37114391  1
  V  V56  1  0.87235637  0.00138457  0.37405302  1
  V  V57  1  -0.00412548  0.74338183  0.75297085  1
  V  V58  1  0.86851093  0.37259159  0.50321635  1
  V  V59  1  0.62662843  0.87556632  0.75258693  1
  V  V60  1  0.25062049  0.24986886  0.49552436  1
  V  V61  1  0.49978045  -0.00059418  -0.00237636  1
  V  V62  1  0.23668496  0.74683494  -0.00369089  1
  V  V63  1  0.74663221  -0.00815657  0.24588358  1
  V  V64  1  0.25206306  0.50275467  0.24672851  1
  V  V65  1  0.75508825  0.62552684  0.37182418  1
  V  V66  1  0.24631786  0.11336546  0.36563093  1
  V  V67  1  0.37428226  0.75399171  0.62060767  1
  V  V68  1  0.49943264  0.62432517  0.62682274  1
  V  V69  1  0.76207571  0.25175349  0.00466225  1
  V  V70  1  0.62866864  0.49373334  0.62562013  1
  V  V71  1  0.37472346  0.87393418  -0.00195028  1
  V  V72  1  0.87726556  -0.00060885  0.87606631  1
  V  V73  1  -0.00365048  0.13401651  0.12387191  1
  V  V74  1  -0.00047989  -0.00129197  0.50013364  1
  V  V75  1  0.12565957  0.37932758  0.24643497  1
  V  V76  1  0.25029590  0.50069059  0.74971020  1
  V  V77  1  0.24905312  0.37873241  0.12220355  1
  V  V78  1  0.37654666  0.50211877  0.87419551  1
  V  V79  1  0.25387747  0.12460149  0.87346004  1
  V  V80  1  0.37121980  0.37327985  -0.00227341  1
  V  V81  1  0.62703646  0.13108629  -0.00264374  1
  V  V82  1  0.00005808  0.25154416  0.75114902  1
  V  V83  1  0.75803373  0.49701044  0.74821659  1
  V  V84  1  -0.00077012  0.49793746  0.50013875  1
  Zn  Zn85  1  0.87729065  0.50172005  0.37288499  1
  Zn  Zn86  1  0.62866102  0.36948614  0.73704182  1
  Zn  Zn87  1  0.00157882  0.12657275  0.62520734  1
  Zn  Zn88  1  -0.00533642  0.62215907  0.63133125  1
  Zn  Zn89  1  0.50148290  0.87388953  0.87701390  1
  Zn  Zn90  1  0.88213549  0.49362746  0.87572783  1
  Zn  Zn91  1  -0.00174203  0.37728669  0.37197108  1
  Zn  Zn92  1  0.49894059  0.75212014  0.75213171  1
  Zn  Zn93  1  0.25094282  0.87271812  0.62275587  1
  Zn  Zn94  1  0.87848972  0.12468570  0.74720410  1
  Zn  Zn95  1  0.62861700  0.25309240  0.86910178  1
  Zn  Zn96  1  0.62808366  0.36237402  0.29112928  1
  Zn  Zn97  1  0.13029398  0.00650558  0.13141616  1
  Zn  Zn98  1  0.41579603  0.19650423  0.59862274  1
  Zn  Zn99  1  0.48951759  0.77716729  0.26782544  1
  Zn  Zn100  1  0.12252760  0.50091328  0.62767894  1
  Zn  Zn101  1  0.37923067  0.00458101  0.86870662  1
  Zn  Zn102  1  0.74314465  0.76105322  0.00860167  1
  Zn  Zn103  1  -0.00775174  0.74162159  0.25239428  1
  Zn  Zn104  1  0.73177802  0.25479327  0.49654543  1
  Zn  Zn105  1  0.88446861  0.37526257  -0.00602344  1
  Zn  Zn106  1  -0.00558722  0.25962805  0.24211018  1
  Zn  Zn107  1  0.18530536  0.19243360  0.18397691  1
  Zn  Zn108  1  0.23118752  0.16692159  0.66787019  1
  Zn  Zn109  1  0.18994602  0.69480628  0.18951559  1
  Zn  Zn110  1  0.18758012  0.68712285  0.68911464  1
  Zn  Zn111  1  0.68818417  0.18572252  0.18876103  1
  Zn  Zn112  1  0.68096537  0.18723459  0.68706608  1
  Zn  Zn113  1  0.68332301  0.68709966  0.19075565  1
  Zn  Zn114  1  0.68962592  0.68658036  0.69136773  1
  Zn  Zn115  1  0.31451273  0.31079059  0.31004120  1
  Zn  Zn116  1  0.31051249  0.31140140  0.81151880  1
  Zn  Zn117  1  0.30808228  0.81520966  0.30957086  1
  Zn  Zn118  1  0.31368360  0.81029430  0.81315079  1
  Zn  Zn119  1  0.81217117  0.31810056  0.31507517  1
  Zn  Zn120  1  0.81472298  0.31582861  0.81454205  1
  Zn  Zn121  1  0.80906825  0.81132931  0.31193180  1
  Zn  Zn122  1  0.81419552  0.81186374  0.81994280  1
  Zn  Zn123  1  0.18697403  0.43870869  0.43440038  1
  Zn  Zn124  1  0.18817175  0.44109002  0.93530031  1
  Zn  Zn125  1  0.18753053  0.93695900  0.43377535  1
  Zn  Zn126  1  0.18806969  0.93741904  0.93776443  1
  Zn  Zn127  1  0.68904504  0.43788509  0.43810571  1
  Zn  Zn128  1  0.69348729  0.43815508  0.93936193  1
  Zn  Zn129  1  0.68095173  0.95194642  0.44261608  1
  Zn  Zn130  1  0.68749132  0.93966368  0.93796794  1
  Zn  Zn131  1  0.31208126  0.06241243  0.05873997  1
  Zn  Zn132  1  0.31394635  0.05252906  0.55350283  1
  Zn  Zn133  1  0.31087793  0.56369650  0.06004051  1
  Zn  Zn134  1  0.31187646  0.56189006  0.56149737  1
  Zn  Zn135  1  0.81616640  0.06405267  0.06262977  1
  Zn  Zn136  1  0.81290416  0.06771643  0.56231680  1
  Zn  Zn137  1  0.81498008  0.55744775  0.06025983  1
  Zn  Zn138  1  0.81157497  0.56133033  0.56135311  1
  Zn  Zn139  1  0.43810745  0.43580678  0.18902283  1
  Zn  Zn140  1  0.43751909  0.43320618  0.68488211  1
  Zn  Zn141  1  0.43377523  0.93710052  0.18847658  1
  Zn  Zn142  1  0.43989803  0.93407012  0.68454356  1
  Zn  Zn143  1  0.93953131  0.44408229  0.18062981  1
  Zn  Zn144  1  0.93608656  0.43522115  0.68505985  1
  Zn  Zn145  1  0.93683746  0.93965077  0.18916179  1
  Zn  Zn146  1  0.93720753  0.93339565  0.68913516  1
  Zn  Zn147  1  0.05718815  0.06251109  0.31071548  1
  Zn  Zn148  1  0.06497168  0.06287604  0.81203133  1
  Zn  Zn149  1  0.06358347  0.56337339  0.31256848  1
  Zn  Zn150  1  0.06292645  0.56136840  0.81665216  1
  Zn  Zn151  1  0.56332866  0.06173881  0.30831039  1
  Zn  Zn152  1  0.56515301  0.06503201  0.80988121  1
  Zn  Zn153  1  0.56874034  0.56366166  0.31303652  1
  Zn  Zn154  1  0.56739429  0.56056527  0.81188967  1
  Zn  Zn155  1  0.43549974  0.17747828  0.43033912  1
  Zn  Zn156  1  0.43793830  0.19143894  0.93206657  1
  Zn  Zn157  1  0.43855725  0.68572314  0.43671844  1
  Zn  Zn158  1  0.43668338  0.68713538  0.94349954  1
  Zn  Zn159  1  0.93515160  0.18686439  0.43589517  1
  Zn  Zn160  1  0.94063656  0.18874173  0.93385901  1
  Zn  Zn161  1  0.93681198  0.68906501  0.44198530  1
  Zn  Zn162  1  0.93930505  0.68439593  0.94864209  1
  Zn  Zn163  1  0.06511086  0.31639643  0.05860590  1
  Zn  Zn164  1  0.06224283  0.31194624  0.56539359  1
  Zn  Zn165  1  0.05654975  0.80793256  0.06925573  1
  Zn  Zn166  1  0.06179603  0.81113665  0.56434489  1
  Zn  Zn167  1  0.56215429  0.31255457  0.06349793  1
  Zn  Zn168  1  0.56571560  0.31041062  0.54771210  1
  Zn  Zn169  1  0.54730207  0.82878143  0.10080362  1
  Zn  Zn170  1  0.56458286  0.81317728  0.56535927  1
  O  O171  1  0.11929831  0.12498791  0.11640896  1
  O  O172  1  0.13140091  0.11008783  0.61637277  1
  O  O173  1  0.12229747  0.62964300  0.12391080  1
  O  O174  1  0.12437017  0.62403220  0.61271902  1
  O  O175  1  0.61814493  0.12007832  0.11519131  1
  O  O176  1  0.61396693  0.10891350  0.63475646  1
  O  O177  1  0.61866518  0.61553723  0.12035575  1
  O  O178  1  0.61800564  0.62225443  0.61686605  1
  O  O179  1  0.36612929  0.38605121  0.38664886  1
  O  O180  1  0.38067389  0.38027179  0.88172625  1
  O  O181  1  0.37844687  0.89176009  0.35213741  1
  O  O182  1  0.37921368  0.87601607  0.88753483  1
  O  O183  1  0.88065232  0.37761153  0.38656173  1
  O  O184  1  0.87694302  0.37903054  0.87944660  1
  O  O185  1  0.87681952  0.87967070  0.38092209  1
  O  O186  1  0.88674339  0.87955165  0.88527596  1
  O  O187  1  0.25119986  0.01009629  0.37012417  1
  O  O188  1  0.25173510  0.00470359  0.86807364  1
  O  O189  1  0.25805804  0.50707040  0.36866163  1
  O  O190  1  0.25789057  0.50874817  0.86981677  1
  O  O191  1  0.75235670  0.01028397  0.36217537  1
  O  O192  1  0.75753405  0.00592954  0.86924607  1
  O  O193  1  0.75000505  0.50904667  0.36972362  1
  O  O194  1  0.74699941  0.50831041  0.86360714  1
  O  O195  1  0.26021765  0.49081346  0.13564743  1
  O  O196  1  0.24711635  0.49252878  0.63026997  1
  O  O197  1  0.24767561  0.98476936  0.11597215  1
  O  O198  1  0.23988437  0.99108816  0.63173787  1
  O  O199  1  0.74172514  0.49333055  0.13344601  1
  O  O200  1  0.74124791  0.51122783  0.63847440  1
  O  O201  1  0.74637051  1.01173161  0.13794952  1
  O  O202  1  0.75849499  0.99060166  0.63583962  1
  O  O203  1  0.01190705  0.37890151  0.24704783  1
  O  O204  1  0.01184969  0.36852639  0.74457169  1
  O  O205  1  0.00555823  0.87171025  0.25602024  1
  O  O206  1  0.00531429  0.86761262  0.76001026  1
  O  O207  1  0.49969529  0.35990120  0.24849922  1
  O  O208  1  0.50241458  0.37272539  0.75972782  1
  O  O209  1  0.51504552  0.86642336  0.20701129  1
  O  O210  1  0.51353184  0.87532174  0.75302642  1
  O  O211  1  0.49270571  0.13138541  0.23538086  1
  O  O212  1  0.49946572  0.14080187  0.75740836  1
  O  O213  1  0.50647711  0.62703038  0.23844424  1
  O  O214  1  0.49734058  0.62412370  0.73923460  1
  O  O215  1  0.99237094  0.12581251  0.23960264  1
  O  O216  1  1.00052874  0.13478489  0.74766891  1
  O  O217  1  1.00616193  0.62394066  0.23563499  1
  O  O218  1  1.00740866  0.63941044  0.75038790  1
  O  O219  1  0.38095097  0.26147112  0.00797705  1
  O  O220  1  0.36987353  0.25905679  0.49432897  1
  O  O221  1  0.36905758  0.75887287  0.00864801  1
  O  O222  1  0.36493981  0.73954214  0.50782338  1
  O  O223  1  0.86495096  0.24846146  -0.00014780  1
  O  O224  1  0.88050753  0.25829490  0.50815179  1
  O  O225  1  0.87158694  0.75642996  0.01463106  1
  O  O226  1  0.86754257  0.75845809  0.50873521  1
  O  O227  1  0.12884621  0.24548572  0.48927547  1
  O  O228  1  0.11822754  0.24094489  0.98769149  1
  O  O229  1  0.13112303  0.74172221  0.49512027  1
  O  O230  1  0.13804093  0.75750053  1.00319284  1
  O  O231  1  0.62314164  0.21761661  0.51512446  1
  O  O232  1  0.62961329  0.23993279  0.99922177  1
  O  O233  1  0.62770727  0.74456585  0.49479902  1
  O  O234  1  0.62600028  0.73870621  0.99491978  1
  O  O235  1  0.49057116  0.24329210  0.12778998  1
  O  O236  1  0.49956272  0.26076061  0.63977243  1
  O  O237  1  0.48812763  0.73371352  0.11584374  1
  O  O238  1  0.49334758  0.73873816  0.62238152  1
  O  O239  1  1.00550725  0.23796761  0.12309544  1
  O  O240  1  0.99523511  0.24754332  0.63533374  1
  O  O241  1  0.98985608  0.73363785  0.12582311  1
  O  O242  1  0.98991763  0.75085372  0.63419500  1
  O  O243  1  0.01306313  0.25081617  0.37033769  1
  O  O244  1  0.01242025  0.24509035  0.86331040  1
  O  O245  1  0.00423107  0.75471150  0.37476794  1
  O  O246  1  -0.00857035  0.75898687  0.87040132  1
  O  O247  1  0.49361057  0.23849650  0.35510963  1
  O  O248  1  0.50252727  0.26016619  0.86615107  1
  O  O249  1  0.51334193  0.74850235  0.37775113  1
  O  O250  1  0.51190675  0.74958494  0.87551145  1
  O  O251  1  0.24143711  0.12951759  0.48228891  1
  O  O252  1  0.23601928  0.11840695  0.99204281  1
  O  O253  1  0.24237171  0.62986390  0.49103785  1
  O  O254  1  0.25660985  0.63422720  0.99033571  1
  O  O255  1  0.75712564  0.12462821  0.47971508  1
  O  O256  1  0.74498988  0.13183953  0.99774875  1
  O  O257  1  0.74026959  0.63142249  0.49534909  1
  O  O258  1  0.73691003  0.62041976  0.99356744  1
  O  O259  1  0.26175084  0.38395869  0.00799426  1
  O  O260  1  0.25452292  0.37278021  0.50405432  1
  O  O261  1  0.25620006  0.86782772  0.00376992  1
  O  O262  1  0.24308595  0.85810192  0.49841544  1
  O  O263  1  0.74995378  0.36615581  0.01026455  1
  O  O264  1  0.76440982  0.37130188  0.49964710  1
  O  O265  1  0.76681633  0.87705962  -0.00761487  1
  O  O266  1  0.75138732  0.87636954  0.51005499  1
  O  O267  1  0.14003378  0.48895792  0.25875130  1
  O  O268  1  0.13052470  0.49126069  0.75181298  1
  O  O269  1  0.11881328  0.98597690  0.24913725  1
  O  O270  1  0.12928710  0.98865038  0.74348724  1
  O  O271  1  0.63143156  0.49332757  0.24452759  1
  O  O272  1  0.62970203  0.49681509  0.73897226  1
  O  O273  1  0.63819720  1.00689628  0.23847116  1
  O  O274  1  0.63850830  0.98806644  0.76155704  1
  O  O275  1  0.37792765  0.01522429  0.24870073  1
  O  O276  1  0.36213303  -0.01217883  0.74943145  1
  O  O277  1  0.36572590  0.49217338  0.26113021  1
  O  O278  1  0.37027273  0.50452777  0.75369286  1
  O  O279  1  0.86444184  0.00915688  0.25260108  1
  O  O280  1  0.86614160  -0.00214535  0.75709099  1
  O  O281  1  0.85878243  0.49411751  0.25182459  1
  O  O282  1  0.86122225  0.49951259  0.74782478  1
  O  O283  1  0.12630300  0.36710544  0.36490438  1
  O  O284  1  0.13606695  0.36541855  0.86416786  1
  O  O285  1  0.11901406  0.87009208  0.36788629  1
  O  O286  1  0.11365489  0.87969181  0.86735364  1
  O  O287  1  0.61898840  0.36279409  0.40192508  1
  O  O288  1  0.61179445  0.37665293  0.88104085  1
  O  O289  1  0.62919499  0.86487992  0.38631096  1
  O  O290  1  0.62622796  0.86546864  0.87116364  1
  O  O291  1  0.37966129  0.13163763  0.12467697  1
  O  O292  1  0.33382617  0.13082923  0.62776828  1
  O  O293  1  0.38297330  0.63099227  0.12025207  1
  O  O294  1  0.38243862  0.62885314  0.62940622  1
  O  O295  1  0.88528751  0.12197823  0.13328466  1
  O  O296  1  0.88078798  0.13475866  0.62662741  1
  O  O297  1  0.87110208  0.63559549  0.12614703  1
  O  O298  1  0.87355304  0.64096379  0.61933209  1
  O  O299  1  0.26295019  0.26170068  0.12841935  1
  O  O300  1  0.24134904  0.26656165  0.61302885  1
  O  O301  1  0.25707909  0.75582158  0.11611090  1
  O  O302  1  0.25724260  0.74727911  0.61616634  1
  O  O303  1  0.74158419  0.25848862  0.11631118  1
  O  O304  1  0.76141810  0.24132466  0.62013880  1
  O  O305  1  0.75846705  0.74663458  0.12588812  1
  O  O306  1  0.75552102  0.75837108  0.62312586  1
  O  O307  1  0.24045325  0.24293947  0.37519014  1
  O  O308  1  0.23777219  0.23798543  0.86480271  1
  O  O309  1  0.24742076  0.74255813  0.37964541  1
  O  O310  1  0.25745885  0.74117279  0.88449584  1
  O  O311  1  0.75285298  0.23957508  0.37662729  1
  O  O312  1  0.74775484  0.24499586  0.88571004  1
  O  O313  1  0.73963018  0.74531698  0.38162835  1
  O  O314  1  0.73953828  0.74217596  0.87813781  1
  O  O315  1  0.00686656  0.11848376  0.00446230  1
  O  O316  1  0.00772771  0.11649609  0.49917118  1
  O  O317  1  0.00085964  0.61702791  0.01635312  1
  O  O318  1  0.00845363  0.61842011  0.50114815  1
  O  O319  1  0.50593766  0.12190120  0.00433646  1
  O  O320  1  0.48474083  0.13075579  0.52233803  1
  O  O321  1  0.50976245  0.61668535  0.00682747  1
  O  O322  1  0.50617484  0.61635333  0.50784018  1
  O  O323  1  0.48780583  0.38688974  0.50751613  1
  O  O324  1  0.49089119  0.37904920  0.99372026  1
  O  O325  1  0.50539646  0.90952450  0.53400280  1
  O  O326  1  0.49219594  0.88529576  1.00551447  1
  O  O327  1  0.99713750  0.38561506  0.49924209  1
  O  O328  1  0.99804328  0.39519036  1.01716257  1
  O  O329  1  0.99425541  0.87868581  0.49415136  1
  O  O330  1  0.99624430  0.88088866  0.99562766  1
  O  O331  1  0.49231041  0.50995021  0.38487983  1
  O  O332  1  0.49618190  0.49401898  0.87979738  1
  O  O333  1  0.48689315  1.00974166  0.37174210  1
  O  O334  1  0.50009590  1.00068358  0.88705958  1
  O  O335  1  0.99720255  0.50176144  0.38629924  1
  O  O336  1  0.99734382  0.51351288  0.89336478  1
  O  O337  1  0.99248895  0.99334745  0.38011292  1
  O  O338  1  0.99728190  0.99249697  0.88444069  1
  O  O339  1  0.00253625  0.00936986  0.11488575  1
  O  O340  1  0.00893821  -0.00171045  0.62065262  1
  O  O341  1  0.00202549  0.51645412  0.11944617  1
  O  O342  1  0.00125900  0.50460998  0.61534513  1
  O  O343  1  0.50904260  0.01118436  0.11380583  1
  O  O344  1  0.50367095  -0.03500213  0.59006371  1
  O  O345  1  0.50582914  0.50406911  0.12294866  1
  O  O346  1  0.50582121  0.50823216  0.61639090  1
  O  O347  1  0.24651906  0.38209840  0.24241347  1
  O  O348  1  0.24449201  0.37988039  0.74164775  1
  O  O349  1  0.23672904  0.86775048  0.23604465  1
  O  O350  1  0.23937985  0.87891763  0.75258923  1
  O  O351  1  0.74080104  0.38013778  0.24601300  1
  O  O352  1  0.74394852  0.39260496  0.75538172  1
  O  O353  1  0.75298589  0.89353388  0.25238224  1
  O  O354  1  0.74633393  0.88176833  0.74787335  1
  O  O355  1  0.25816458  0.13349019  0.25331139  1
  O  O356  1  0.23775922  0.10688173  0.76374111  1
  O  O357  1  0.24278511  0.61682907  0.26097654  1
  O  O358  1  0.25630515  0.62132442  0.75680632  1
  O  O359  1  0.75914327  0.12336280  0.25745871  1
  O  O360  1  0.75027610  0.11569744  0.75594432  1
  O  O361  1  0.73957857  0.61378612  0.26176269  1
  O  O362  1  0.74180265  0.61334150  0.76178843  1
  O  O363  1  0.36417126  0.11501102  0.36322555  1
  O  O364  1  0.35915695  0.12292770  0.88614167  1
  O  O365  1  0.36444294  0.61473915  0.38021328  1
  O  O366  1  0.37370519  0.61946411  0.86946816  1
  O  O367  1  0.87156733  0.11920544  0.36385781  1
  O  O368  1  0.87060084  0.11768677  0.87306407  1
  O  O369  1  0.85876640  0.62655891  0.38316969  1
  O  O370  1  0.85970826  0.62653035  0.88395486  1
  O  O371  1  0.14016765  0.36712581  0.13341727  1
  O  O372  1  0.13306657  0.37908475  0.63400337  1
  O  O373  1  0.12893860  0.87528688  0.13123568  1
  O  O374  1  0.12442614  0.88213338  0.63392081  1
  O  O375  1  0.63048671  0.38681623  0.12065483  1
  O  O376  1  0.62244222  0.39091123  0.61522351  1
  O  O377  1  0.63971709  0.89541969  0.09973324  1
  O  O378  1  0.63939316  0.86666551  0.63911637  1
  O  O379  1  0.12458303  0.26165949  0.25576959  1
  O  O380  1  0.11710195  0.25948317  0.75595753  1
  O  O381  1  0.12120981  0.76053508  0.25760796  1
  O  O382  1  0.11490699  0.76192945  0.74258872  1
  O  O383  1  0.60849920  0.25045846  0.24164386  1
  O  O384  1  0.61390323  0.25571894  0.75150233  1
  O  O385  1  0.62705482  0.75167650  0.26872331  1
  O  O386  1  0.62497619  0.75766835  0.76068298  1
  O  O387  1  0.38337512  0.24200756  0.23893145  1
  O  O388  1  0.38924180  0.25511241  0.75242944  1
  O  O389  1  0.37547645  0.75413584  0.23469937  1
  O  O390  1  0.37819748  0.74278375  0.74077515  1
  O  O391  1  0.87771135  0.24022060  0.25469091  1
  O  O392  1  0.88262680  0.25145718  0.74161190  1
  O  O393  1  0.87422218  0.75634306  0.23564161  1
  O  O394  1  0.88337445  0.75815480  0.74269950  1
  O  O395  1  0.38170900  0.49492744  0.49165286  1
  O  O396  1  0.38165032  0.49155693  0.99503525  1
  O  O397  1  0.36691362  0.99269988  0.47733020  1
  O  O398  1  0.38462654  0.99184828  1.00100554  1
  O  O399  1  0.88218311  0.49158177  0.50192156  1
  O  O400  1  0.88542064  0.49708487  0.99874781  1
  O  O401  1  0.87947654  0.99473277  0.49543678  1
  O  O402  1  0.88571874  0.99444849  0.99776931  1
  O  O403  1  0.11536415  0.00890300  -0.00078071  1
  O  O404  1  0.12027252  0.00085656  0.50605307  1
  O  O405  1  0.11387572  0.49792838  -0.00181998  1
  O  O406  1  0.11806843  0.50798197  0.49869894  1
  O  O407  1  0.62043366  0.01376789  0.00191072  1
  O  O408  1  0.62060455  0.03339836  0.49214913  1
  O  O409  1  0.62153965  0.50650773  0.01000011  1
  O  O410  1  0.61992140  0.51135452  0.50624157  1
  O  O411  1  0.37002570  0.36954823  0.11722318  1
  O  O412  1  0.36258589  0.38271372  0.61094242  1
  O  O413  1  0.36467291  0.86830778  0.11506580  1
  O  O414  1  0.37219754  0.85711189  0.62841256  1
  O  O415  1  0.85897573  0.37758856  0.12734976  1
  O  O416  1  0.88005622  0.36328387  0.61535134  1
  O  O417  1  0.88518425  0.86686561  0.11557353  1
  O  O418  1  0.86579265  0.86706244  0.62127213  1
  O  O419  1  0.12881333  0.13106315  0.37346011  1
  O  O420  1  0.13101335  0.13069782  0.88215850  1
  O  O421  1  0.13410074  0.62970660  0.38389451  1
  O  O422  1  0.14108538  0.62590027  0.87068248  1
  O  O423  1  0.64076403  0.12717255  0.36303413  1
  O  O424  1  0.63366637  0.12599758  0.88455767  1
  O  O425  1  0.63202805  0.63163908  0.38670070  1
  O  O426  1  0.62940196  0.63013239  0.88352936  1
