# generated using pymatgen
data_V85Zn86O256
_symmetry_space_group_name_H-M   'P 1'
_cell_length_a   16.97700027
_cell_length_b   16.99387588
_cell_length_c   16.98368868
_cell_angle_alpha   89.94682422
_cell_angle_beta   89.94647166
_cell_angle_gamma   89.99404518
_symmetry_Int_Tables_number   1
_chemical_formula_structural   V85Zn86O256
_chemical_formula_sum   'V85 Zn86 O256'
_cell_volume   4899.87542911
_cell_formula_units_Z   1
loop_
 _symmetry_equiv_pos_site_id
 _symmetry_equiv_pos_as_xyz
  1  'x, y, z'
loop_
 _atom_site_type_symbol
 _atom_site_label
 _atom_site_symmetry_multiplicity
 _atom_site_fract_x
 _atom_site_fract_y
 _atom_site_fract_z
 _atom_site_occupancy
  V  V0  1  0.74982300  0.37640992  0.12531024  1
  V  V1  1  -0.01774523  0.37561165  0.38108372  1
  V  V2  1  0.37494205  0.50254191  0.86796904  1
  V  V3  1  0.87248882  0.26380349  0.62148804  1
  V  V4  1  0.25412029  0.62605782  0.86804442  1
  V  V5  1  0.74832092  0.12398125  0.37864266  1
  V  V6  1  0.12536687  0.87107628  0.25201755  1
  V  V7  1  0.00799032  0.25066473  0.75121268  1
  V  V8  1  0.24818669  0.25053847  -0.00153369  1
  V  V9  1  -0.00016877  0.12486032  0.12741611  1
  V  V10  1  0.12158364  0.50520407  0.61973419  1
  V  V11  1  0.38211102  0.24744519  0.12594724  1
  V  V12  1  0.37597369  0.37447637  -0.00096325  1
  V  V13  1  0.62150933  0.00609021  0.12307806  1
  V  V14  1  0.37721154  0.12322893  0.74411607  1
  V  V15  1  0.25265172  0.75310815  -0.00142097  1
  V  V16  1  0.12696943  0.62491919  0.00294201  1
  V  V17  1  0.87479992  0.24944295  0.12728507  1
  V  V18  1  0.87802009  0.37410892  0.00242625  1
  V  V19  1  0.37958299  0.38017280  0.49830944  1
  V  V20  1  0.24724619  0.24896723  0.49234176  1
  V  V21  1  0.49990084  0.37955888  0.37600690  1
  V  V22  1  0.37880924  0.11633017  0.24348205  1
  V  V23  1  0.24575367  -0.00096508  0.74399935  1
  V  V24  1  0.00391011  0.62472523  0.12660401  1
  V  V25  1  0.49983307  0.00591416  -0.00075168  1
  V  V26  1  0.12778616  0.50099201  0.12770559  1
  V  V27  1  -0.00196686  0.12454849  0.62391083  1
  V  V28  1  0.63017724  0.75271394  0.87408509  1
  V  V29  1  0.62774739  0.62380976  0.00382085  1
  V  V30  1  0.62278873  0.25141868  0.37678369  1
  V  V31  1  0.50048220  0.50034569  -0.00240897  1
  V  V32  1  0.49016304  0.63135526  0.12918728  1
  V  V33  1  0.37602393  0.50851398  0.37483256  1
  V  V34  1  0.75228252  0.12527242  0.87349247  1
  V  V35  1  0.00510083  0.24934720  0.25744999  1
  V  V36  1  0.61004941  0.87292839  0.24547289  1
  V  V37  1  0.60711615  0.00185724  0.62661235  1
  V  V38  1  0.62507809  0.37515893  0.25026178  1
  V  V39  1  0.75257850  0.50013068  0.25689623  1
  V  V40  1  0.87476683  0.62005034  0.25440023  1
  V  V41  1  0.87837215  0.75191333  0.12720789  1
  V  V42  1  0.12277357  0.12872389  0.49252766  1
  V  V43  1  0.75176325  0.25928564  0.50426368  1
  V  V44  1  0.24558664  0.77211749  0.50585095  1
  V  V45  1  0.00252673  0.74645320  0.73617167  1
  V  V46  1  0.24686884  0.37362880  0.62509614  1
  V  V47  1  0.12726231  0.37204722  0.26254970  1
  V  V48  1  0.24881270  0.12075854  0.36821641  1
  V  V49  1  0.25547845  0.50335932  0.25250035  1
  V  V50  1  0.75522451  0.49472786  0.73604569  1
  V  V51  1  0.49754699  0.73330305  0.75364847  1
  V  V52  1  0.75629205  0.62304237  0.87775349  1
  V  V53  1  0.87443775  -0.00849580  0.87658242  1
  V  V54  1  0.60832079  0.12224832  0.50436797  1
  V  V55  1  0.12324610  0.12926902  -0.00341797  1
  V  V56  1  0.62360014  0.12881475  -0.00400973  1
  V  V57  1  0.37528384  0.87451559  -0.00547538  1
  V  V58  1  0.75420560  0.87594004  0.12383191  1
  V  V59  1  0.74701079  0.00154563  0.25021916  1
  V  V60  1  -0.00450927  0.86797602  0.37616049  1
  V  V61  1  0.38175752  0.24610020  0.62213301  1
  V  V62  1  0.88577699  0.62724334  0.74292678  1
  V  V63  1  -0.01170849  0.50251386  0.49761542  1
  V  V64  1  0.49477329  0.87330012  0.39233493  1
  V  V65  1  0.74757976  0.25185976  -0.00617811  1
  V  V66  1  0.00393192  0.49801627  0.00203189  1
  V  V67  1  0.12353828  0.75275865  0.87572072  1
  V  V68  1  -0.00519131  -0.00751131  0.00065822  1
  V  V69  1  0.62132165  0.74733690  0.37326608  1
  V  V70  1  0.01048379  0.36828765  0.87670116  1
  V  V71  1  0.24999738  0.88129087  0.12901592  1
  V  V72  1  0.61050363  0.49331790  0.62212483  1
  V  V73  1  0.87941166  0.49908833  0.87876905  1
  V  V74  1  0.24407373  0.13256510  0.87239865  1
  V  V75  1  0.87352873  0.12339117  0.25341817  1
  V  V76  1  0.12713071  0.00137300  0.12995416  1
  V  V77  1  0.12467599  0.87615970  0.74472937  1
  V  V78  1  0.37344574  0.00241371  0.87369262  1
  V  V79  1  0.50341964  0.25028851  0.75731489  1
  V  V80  1  0.37745431  -0.00212592  0.39037837  1
  V  V81  1  0.23982606  0.63022151  0.38200205  1
  V  V82  1  -0.00889355  -0.00159125  0.49751526  1
  V  V83  1  0.25100624  0.37467587  0.12638255  1
  V  V84  1  0.75751130  0.75276192  0.00119344  1
  Zn  Zn85  1  0.76219112  0.75998684  0.50492252  1
  Zn  Zn86  1  0.86309988  -0.01285983  0.38371181  1
  Zn  Zn87  1  0.11775152  0.63550135  0.50023951  1
  Zn  Zn88  1  0.61571809  0.61688849  0.50126081  1
  Zn  Zn89  1  0.51114115  0.36935719  0.87811934  1
  Zn  Zn90  1  0.39393220  0.76295101  0.15289822  1
  Zn  Zn91  1  0.48387867  0.61809553  0.61786334  1
  Zn  Zn92  1  0.62422207  0.50087163  0.12649368  1
  Zn  Zn93  1  0.50270354  0.24693234  0.24585072  1
  Zn  Zn94  1  0.75173187  0.00088047  0.74145920  1
  Zn  Zn95  1  0.76168273  0.88391137  0.61327149  1
  Zn  Zn96  1  0.01081007  0.74202673  0.25769219  1
  Zn  Zn97  1  0.25327101  0.50686220  0.74259506  1
  Zn  Zn98  1  0.87594161  0.12593776  0.75098053  1
  Zn  Zn99  1  0.62509445  0.87358365  0.74562574  1
  Zn  Zn100  1  0.75414002  0.62908184  0.37711408  1
  Zn  Zn101  1  0.64247065  0.36168113  0.75390048  1
  Zn  Zn102  1  0.13069019  0.37428264  0.75412457  1
  Zn  Zn103  1  0.50333680  0.87476556  0.87227546  1
  Zn  Zn104  1  0.12646389  -0.00469100  0.61931391  1
  Zn  Zn105  1  0.37004250  0.75011791  0.61838085  1
  Zn  Zn106  1  -0.00735211  0.86960982  0.87813397  1
  Zn  Zn107  1  0.18993210  0.18849944  0.18659790  1
  Zn  Zn108  1  0.18741715  0.18636309  0.68085192  1
  Zn  Zn109  1  0.22190979  0.70618416  0.20570056  1
  Zn  Zn110  1  0.18693428  0.69000743  0.68395012  1
  Zn  Zn111  1  0.68708908  0.18954450  0.18618774  1
  Zn  Zn112  1  0.68694901  0.18176916  0.68362195  1
  Zn  Zn113  1  0.68536749  0.68885825  0.19119098  1
  Zn  Zn114  1  0.69057624  0.67817988  0.68557279  1
  Zn  Zn115  1  0.31584980  0.31109341  0.31047874  1
  Zn  Zn116  1  0.31795704  0.31432503  0.81159340  1
  Zn  Zn117  1  0.31530857  0.81270027  0.31930888  1
  Zn  Zn118  1  0.33360215  0.83221382  0.77573031  1
  Zn  Zn119  1  0.80966146  0.30983519  0.31313885  1
  Zn  Zn120  1  0.82410680  0.31152907  0.81229635  1
  Zn  Zn121  1  0.80798808  0.81166650  0.30909695  1
  Zn  Zn122  1  0.82854811  0.82978552  0.76372803  1
  Zn  Zn123  1  0.18889923  0.43933254  0.43987549  1
  Zn  Zn124  1  0.19139120  0.43945718  0.93808254  1
  Zn  Zn125  1  0.18146657  0.94534404  0.43085607  1
  Zn  Zn126  1  0.18553367  0.94114296  0.93431728  1
  Zn  Zn127  1  0.68919053  0.44174615  0.44050348  1
  Zn  Zn128  1  0.68754300  0.43582610  0.93227402  1
  Zn  Zn129  1  0.67948333  0.93408782  0.44417577  1
  Zn  Zn130  1  0.69193462  0.93800422  0.93719346  1
  Zn  Zn131  1  0.31107904  0.06388744  0.06045503  1
  Zn  Zn132  1  0.31137564  0.06170061  0.56242279  1
  Zn  Zn133  1  0.31311087  0.56258156  0.05971494  1
  Zn  Zn134  1  0.31475419  0.56773744  0.56314191  1
  Zn  Zn135  1  0.81278983  0.06347228  0.06157332  1
  Zn  Zn136  1  0.80706455  0.06655614  0.56424856  1
  Zn  Zn137  1  0.81579564  0.56102599  0.06836219  1
  Zn  Zn138  1  0.82125249  0.59720384  0.54488077  1
  Zn  Zn139  1  0.43906757  0.43889909  0.18693175  1
  Zn  Zn140  1  0.43469401  0.43036781  0.68900791  1
  Zn  Zn141  1  0.43408442  0.94386658  0.18189212  1
  Zn  Zn142  1  0.44887674  0.91941686  0.67565368  1
  Zn  Zn143  1  0.93873843  0.43672540  0.19044693  1
  Zn  Zn144  1  0.94099702  0.43957156  0.68912001  1
  Zn  Zn145  1  0.93818257  0.93794994  0.19294200  1
  Zn  Zn146  1  0.93858610  0.93994826  0.68801537  1
  Zn  Zn147  1  0.05962672  0.05680860  0.31516317  1
  Zn  Zn148  1  0.05922243  0.06181058  0.81345751  1
  Zn  Zn149  1  0.06124407  0.55730587  0.31389913  1
  Zn  Zn150  1  0.06897782  0.55921732  0.81205742  1
  Zn  Zn151  1  0.55877130  0.06048054  0.31522380  1
  Zn  Zn152  1  0.56179260  0.06593807  0.81262210  1
  Zn  Zn153  1  0.55867699  0.56037557  0.30745556  1
  Zn  Zn154  1  0.57226540  0.55622432  0.81436476  1
  Zn  Zn155  1  0.43256754  0.19213083  0.43014537  1
  Zn  Zn156  1  0.43360630  0.18575029  0.93606796  1
  Zn  Zn157  1  0.43606311  0.69429477  0.44462453  1
  Zn  Zn158  1  0.43845441  0.68677635  0.93545240  1
  Zn  Zn159  1  0.93367480  0.18892137  0.43826085  1
  Zn  Zn160  1  0.93662828  0.18555388  0.93813353  1
  Zn  Zn161  1  0.93834472  0.69033950  0.44102139  1
  Zn  Zn162  1  0.93979461  0.68648781  0.93815381  1
  Zn  Zn163  1  0.06455096  0.31244618  0.06938958  1
  Zn  Zn164  1  0.06168560  0.31319146  0.56019905  1
  Zn  Zn165  1  0.06513285  0.81174462  0.06514441  1
  Zn  Zn166  1  0.06570793  0.81295413  0.55722257  1
  Zn  Zn167  1  0.56448287  0.31390216  0.06191569  1
  Zn  Zn168  1  0.56748727  0.31593827  0.56627416  1
  Zn  Zn169  1  0.56462711  0.81442272  0.05922126  1
  Zn  Zn170  1  0.59607599  0.78914733  0.58445461  1
  O  O171  1  0.12183405  0.11806652  0.11962733  1
  O  O172  1  0.11329564  0.12553203  0.61213360  1
  O  O173  1  0.12198430  0.61848365  0.12073977  1
  O  O174  1  0.12981781  0.60758791  0.62202953  1
  O  O175  1  0.63337091  0.11399954  0.11354679  1
  O  O176  1  0.62132998  0.12166876  0.60978079  1
  O  O177  1  0.61851509  0.62645455  0.11443960  1
  O  O178  1  0.62554310  0.60008321  0.62805599  1
  O  O179  1  0.38086558  0.38029466  0.38079884  1
  O  O180  1  0.37739848  0.38422732  0.88318224  1
  O  O181  1  0.38147793  0.88930192  0.37033134  1
  O  O182  1  0.37498781  0.88522873  0.88165842  1
  O  O183  1  0.88364388  0.37516317  0.37299202  1
  O  O184  1  0.88867896  0.37978733  0.88421499  1
  O  O185  1  0.88989148  0.87403718  0.36440990  1
  O  O186  1  0.87360298  0.88822873  0.86709546  1
  O  O187  1  0.26439363  0.00984808  0.37717315  1
  O  O188  1  0.25235895  0.01390642  0.86811818  1
  O  O189  1  0.25753487  0.50283044  0.36956215  1
  O  O190  1  0.25711443  0.50865822  0.87384442  1
  O  O191  1  0.74484187  0.00966298  0.37050377  1
  O  O192  1  0.75905026  0.01100421  0.88072018  1
  O  O193  1  0.74525651  0.50027281  0.35978973  1
  O  O194  1  0.75881334  0.51115026  0.87558947  1
  O  O195  1  0.24923043  0.49527815  0.13324246  1
  O  O196  1  0.24136584  0.48955871  0.62204648  1
  O  O197  1  0.23857101  0.99162471  0.11399304  1
  O  O198  1  0.24427295  1.00946272  0.63960927  1
  O  O199  1  0.74768968  0.49311303  0.13320223  1
  O  O200  1  0.75818643  0.50222947  0.63808854  1
  O  O201  1  0.74236854  0.99357587  0.12675156  1
  O  O202  1  0.73554930  1.00559906  0.62455903  1
  O  O203  1  0.00593239  0.37001348  0.26188668  1
  O  O204  1  0.00128557  0.36804771  0.76058233  1
  O  O205  1  0.00694185  0.87096516  0.25833502  1
  O  O206  1  0.00962324  0.86372062  0.75765302  1
  O  O207  1  0.50638591  0.37409725  0.25739770  1
  O  O208  1  0.49225915  0.35535729  0.75422534  1
  O  O209  1  0.50746386  0.88075175  0.24280589  1
  O  O210  1  0.51238488  0.85736314  0.75783962  1
  O  O211  1  0.48342120  0.12790980  0.25556284  1
  O  O212  1  0.48416780  0.13434056  0.75552760  1
  O  O213  1  0.50060049  0.61789446  0.22708876  1
  O  O214  1  0.51162572  0.63155133  0.75458890  1
  O  O215  1  0.99646454  0.13169848  0.24873214  1
  O  O216  1  1.00307468  0.13338665  0.74037290  1
  O  O217  1  0.99462836  0.62419600  0.24532322  1
  O  O218  1  0.99279557  0.62883468  0.75816780  1
  O  O219  1  0.36895967  0.25283351  0.00672434  1
  O  O220  1  0.36697071  0.25590736  0.50478982  1
  O  O221  1  0.36676188  0.76263149  -0.00732058  1
  O  O222  1  0.35139822  0.75312487  0.49705828  1
  O  O223  1  0.86842868  0.25415245  0.00763824  1
  O  O224  1  0.86840428  0.24635392  0.51370384  1
  O  O225  1  0.86675287  0.74273975  0.01243653  1
  O  O226  1  0.85894841  0.70392962  0.51410310  1
  O  O227  1  0.13495881  0.24004323  0.50252829  1
  O  O228  1  0.13075020  0.23654317  1.01073358  1
  O  O229  1  0.13741826  0.74805307  0.49742087  1
  O  O230  1  0.13095143  0.74658550  0.99261508  1
  O  O231  1  0.63099224  0.24163152  0.49837022  1
  O  O232  1  0.63616843  0.24095888  1.00696225  1
  O  O233  1  0.61723339  0.75674925  0.47417707  1
  O  O234  1  0.63740736  0.74123297  0.99625186  1
  O  O235  1  0.48614575  0.25272450  0.12295789  1
  O  O236  1  0.48538267  0.25565263  0.63134365  1
  O  O237  1  0.49996082  0.73845924  0.11648153  1
  O  O238  1  0.50729711  0.74491218  0.64707121  1
  O  O239  1  0.99442216  0.24532818  0.13663587  1
  O  O240  1  0.99105364  0.24550822  0.62760949  1
  O  O241  1  0.99205435  0.74508125  0.12518696  1
  O  O242  1  1.01182444  0.74647335  0.63774959  1
  O  O243  1  -0.00510630  0.26091733  0.36708888  1
  O  O244  1  -0.00686848  0.25709324  0.86496523  1
  O  O245  1  0.00111337  0.76389845  0.37730527  1
  O  O246  1  0.01289529  0.74813582  0.87317339  1
  O  O247  1  0.50341633  0.26316447  0.37027219  1
  O  O248  1  0.49457948  0.24803659  0.86167893  1
  O  O249  1  0.49978502  0.76787166  0.37042176  1
  O  O250  1  0.51702628  0.74618290  0.87515063  1
  O  O251  1  0.24260703  0.13011407  0.49193102  1
  O  O252  1  0.24271138  0.12922647  0.99147936  1
  O  O253  1  0.24266183  0.61632760  0.48564669  1
  O  O254  1  0.24587607  0.63457091  0.99438937  1
  O  O255  1  0.74146697  0.13450939  0.49047337  1
  O  O256  1  0.74435918  0.13351359  0.99433222  1
  O  O257  1  0.72688557  0.61756344  0.48587031  1
  O  O258  1  0.74680526  0.62988065  0.99878658  1
  O  O259  1  0.25505320  0.37006413  0.00609508  1
  O  O260  1  0.25728599  0.36580242  0.50403461  1
  O  O261  1  0.25760566  0.87375710  0.00192411  1
  O  O262  1  0.23990129  0.87129255  0.49463272  1
  O  O263  1  0.75666810  0.36902580  0.00353110  1
  O  O264  1  0.74574398  0.35785674  0.49416878  1
  O  O265  1  0.74573515  0.86417461  0.01251168  1
  O  O266  1  0.75543431  0.87468324  0.49726491  1
  O  O267  1  0.13362923  0.48901955  0.24675769  1
  O  O268  1  0.12701463  0.49415732  0.73415587  1
  O  O269  1  0.11800255  0.99392503  0.23517456  1
  O  O270  1  0.12858568  0.99357220  0.75114013  1
  O  O271  1  0.63365773  0.49334575  0.24651471  1
  O  O272  1  0.64630120  0.50096826  0.74385315  1
  O  O273  1  0.62648430  0.99672774  0.24016038  1
  O  O274  1  0.62335530  1.01056037  0.73468469  1
  O  O275  1  0.37280524  0.01435998  0.24869679  1
  O  O276  1  0.36436919  0.00938109  0.75466538  1
  O  O277  1  0.36439688  0.49134848  0.26004715  1
  O  O278  1  0.37271141  0.49357497  0.76418804  1
  O  O279  1  0.86501024  0.00729558  0.25218301  1
  O  O280  1  0.87510372  0.00925626  0.76326915  1
  O  O281  1  0.86585241  0.50918652  0.24153778  1
  O  O282  1  0.87356281  0.50863352  0.75842844  1
  O  O283  1  0.12437024  0.37554688  0.36459312  1
  O  O284  1  0.11498683  0.37752730  0.87605194  1
  O  O285  1  0.11237331  0.88763397  0.35962971  1
  O  O286  1  0.12275920  0.86491924  0.87077253  1
  O  O287  1  0.61678737  0.37190138  0.37176539  1
  O  O288  1  0.62296225  0.37774951  0.86459457  1
  O  O289  1  0.60765601  0.87513118  0.36521134  1
  O  O290  1  0.62684443  0.86062658  0.88396882  1
  O  O291  1  0.36657208  0.13162595  0.13617531  1
  O  O292  1  0.36589093  0.13459594  0.63359950  1
  O  O293  1  0.38860275  0.62929879  0.11347138  1
  O  O294  1  0.37171486  0.63457685  0.62944018  1
  O  O295  1  0.87971896  0.12949337  0.13265789  1
  O  O296  1  0.88905876  0.13087558  0.62521437  1
  O  O297  1  0.88312933  0.63234686  0.13233686  1
  O  O298  1  0.87770280  0.61742980  0.64660602  1
  O  O299  1  0.25965180  0.25545300  0.11909902  1
  O  O300  1  0.25783010  0.25531027  0.61364298  1
  O  O301  1  0.24195037  0.76558480  0.10485526  1
  O  O302  1  0.24381142  0.75119459  0.60886590  1
  O  O303  1  0.75594962  0.25544379  0.11643009  1
  O  O304  1  0.76489666  0.24337162  0.62106621  1
  O  O305  1  0.75645845  0.75597827  0.11996346  1
  O  O306  1  0.70768715  0.76184729  0.61276948  1
  O  O307  1  0.26035571  0.23898858  0.38569860  1
  O  O308  1  0.25587781  0.23950196  0.87961352  1
  O  O309  1  0.25008554  0.73436627  0.38467815  1
  O  O310  1  0.23939262  0.74361440  0.88467571  1
  O  O311  1  0.74349990  0.24207537  0.38186632  1
  O  O312  1  0.76124961  0.24316334  0.88712560  1
  O  O313  1  0.73143736  0.75140551  0.36999750  1
  O  O314  1  0.74833154  0.73651567  0.88656802  1
  O  O315  1  0.00699013  0.12004792  0.00718495  1
  O  O316  1  0.00573843  0.12152341  0.50210150  1
  O  O317  1  0.00715647  0.61770301  0.00624972  1
  O  O318  1  0.00710397  0.60479259  0.48474301  1
  O  O319  1  0.50870680  0.11659998  -0.00705216  1
  O  O320  1  0.51049462  0.13402197  0.49155711  1
  O  O321  1  0.51002142  0.61847640  0.00423327  1
  O  O322  1  0.50544357  0.63110331  0.50520066  1
  O  O323  1  0.48903035  0.36700908  0.49035038  1
  O  O324  1  0.49643260  0.38476295  0.99946461  1
  O  O325  1  0.49833385  0.87514622  0.48789969  1
  O  O326  1  0.49076581  0.88433456  0.99778393  1
  O  O327  1  1.00181740  0.37853647  0.48557752  1
  O  O328  1  0.99872171  0.37681377  0.99665595  1
  O  O329  1  1.00772075  0.88431545  0.48521399  1
  O  O330  1  1.00686606  0.88865137  0.99934610  1
  O  O331  1  0.49072430  0.48874516  0.36885581  1
  O  O332  1  0.49338486  0.50374145  0.88554564  1
  O  O333  1  0.48554393  0.99024107  0.37097314  1
  O  O334  1  0.49443919  0.99967761  0.88427325  1
  O  O335  1  1.00183613  0.48396005  0.38387418  1
  O  O336  1  0.99977357  0.49071402  0.88271007  1
  O  O337  1  0.99193984  0.99175238  0.38159877  1
  O  O338  1  0.99184260  1.00074740  0.88485764  1
  O  O339  1  0.00533223  0.00516139  0.11944890  1
  O  O340  1  0.00201884  0.00873859  0.61705667  1
  O  O341  1  0.00743392  0.50324358  0.12137855  1
  O  O342  1  0.01297073  0.48808873  0.61118082  1
  O  O343  1  0.51041448  -0.00209243  0.11118084  1
  O  O344  1  0.50584169  0.00467880  0.63007126  1
  O  O345  1  0.49993373  0.50937773  0.11178445  1
  O  O346  1  0.50767931  0.49930679  0.63618051  1
  O  O347  1  0.24431399  0.37953050  0.24727363  1
  O  O348  1  0.25110371  0.37302840  0.73610074  1
  O  O349  1  0.24155785  0.87766879  0.23495606  1
  O  O350  1  0.23534918  0.89040791  0.76442830  1
  O  O351  1  0.74596783  0.38026042  0.24563646  1
  O  O352  1  0.76183772  0.39155576  0.75680277  1
  O  O353  1  0.73809045  0.88243837  0.24032460  1
  O  O354  1  0.73451453  0.88676771  0.74908767  1
  O  O355  1  0.26056892  0.13348091  0.26083429  1
  O  O356  1  0.25261948  0.12224296  0.75594546  1
  O  O357  1  0.24243399  0.60758829  0.26358253  1
  O  O358  1  0.24342885  0.62677729  0.76484759  1
  O  O359  1  0.75131391  0.12237802  0.25912254  1
  O  O360  1  0.74984732  0.12767862  0.76445241  1
  O  O361  1  0.75627545  0.61682296  0.24923804  1
  O  O362  1  0.76516920  0.61680092  0.75945391  1
  O  O363  1  0.37015077  0.11436452  0.36621534  1
  O  O364  1  0.36350969  0.12116429  0.86600744  1
  O  O365  1  0.36519850  0.61148260  0.38182543  1
  O  O366  1  0.36427413  0.61369974  0.88605553  1
  O  O367  1  0.86123429  0.12572957  0.37150407  1
  O  O368  1  0.86600454  0.11808355  0.87658407  1
  O  O369  1  0.87503951  0.63317750  0.35599399  1
  O  O370  1  0.87097486  0.61784590  0.87515532  1
  O  O371  1  0.13160969  0.38101832  0.13545536  1
  O  O372  1  0.13588609  0.37949945  0.62174170  1
  O  O373  1  0.13033904  0.88452518  0.12891125  1
  O  O374  1  0.11903870  0.87736639  0.64086413  1
  O  O375  1  0.63200528  0.37602712  0.13147901  1
  O  O376  1  0.62216468  0.38600445  0.64013224  1
  O  O377  1  0.63221879  0.88441826  0.12728615  1
  O  O378  1  0.61814511  0.89899373  0.61968478  1
  O  O379  1  0.11410884  0.25795901  0.24343228  1
  O  O380  1  0.11206647  0.25394278  0.73929680  1
  O  O381  1  0.12676884  0.76548602  0.24145715  1
  O  O382  1  0.12145443  0.75532901  0.75805494  1
  O  O383  1  0.62402254  0.25566466  0.25675171  1
  O  O384  1  0.60571243  0.24383879  0.73898974  1
  O  O385  1  0.62587684  0.76477870  0.25535103  1
  O  O386  1  0.62587476  0.74138249  0.76727188  1
  O  O387  1  0.37662075  0.24160399  0.24077850  1
  O  O388  1  0.37941478  0.24163840  0.74129413  1
  O  O389  1  0.33011614  0.74000330  0.23811144  1
  O  O390  1  0.39896135  0.73846084  0.77603931  1
  O  O391  1  0.88334258  0.24405166  0.24681763  1
  O  O392  1  0.88577978  0.24649428  0.73708704  1
  O  O393  1  0.87405853  0.74097489  0.23755026  1
  O  O394  1  0.88866056  0.73286045  0.76125119  1
  O  O395  1  0.36762171  0.48578867  0.49125389  1
  O  O396  1  0.38244376  0.49389066  0.99303663  1
  O  O397  1  0.37720326  1.00521936  0.48896090  1
  O  O398  1  0.38145067  0.99653851  0.99574189  1
  O  O399  1  0.89060901  0.50540264  0.50951560  1
  O  O400  1  0.88403503  0.49394011  0.99913957  1
  O  O401  1  0.88732937  1.00831574  0.49989938  1
  O  O402  1  0.88550467  1.00597798  0.99361328  1
  O  O403  1  0.11679694  0.01052320  0.00768643  1
  O  O404  1  0.11367817  0.01186755  0.50056028  1
  O  O405  1  0.12335134  0.50434961  0.00776629  1
  O  O406  1  0.11985844  0.49678639  0.51105952  1
  O  O407  1  0.61939778  0.00707679  0.00485095  1
  O  O408  1  0.62043648  0.01651968  0.50555379  1
  O  O409  1  0.61893296  0.50866998  0.00007093  1
  O  O410  1  0.62226607  0.48739663  0.51967756  1
  O  O411  1  0.37033344  0.36777009  0.12004486  1
  O  O412  1  0.36636958  0.36794077  0.61569925  1
  O  O413  1  0.36733509  0.87672266  0.11346864  1
  O  O414  1  0.36361659  0.85305858  0.66562289  1
  O  O415  1  0.87141968  0.36913718  0.12143707  1
  O  O416  1  0.88046488  0.36181146  0.62687869  1
  O  O417  1  0.86354427  0.86674914  0.13470443  1
  O  O418  1  0.86595783  0.86310593  0.65757871  1
  O  O419  1  0.13446059  0.11686980  0.38193983  1
  O  O420  1  0.13179877  0.12100409  0.88578485  1
  O  O421  1  0.13714711  0.61782318  0.37522691  1
  O  O422  1  0.13307035  0.63082949  0.88244004  1
  O  O423  1  0.62974607  0.12935200  0.38292847  1
  O  O424  1  0.63653071  0.11931975  0.88801855  1
  O  O425  1  0.61313004  0.64440648  0.36239376  1
  O  O426  1  0.63772661  0.62791882  0.88694320  1
