# generated using pymatgen
data_V85Zn86O256
_symmetry_space_group_name_H-M   'P 1'
_cell_length_a   16.99139869
_cell_length_b   16.98183792
_cell_length_c   16.95730500
_cell_angle_alpha   90.08481003
_cell_angle_beta   89.73760394
_cell_angle_gamma   90.00108616
_symmetry_Int_Tables_number   1
_chemical_formula_structural   V85Zn86O256
_chemical_formula_sum   'V85 Zn86 O256'
_cell_volume   4892.89192728
_cell_formula_units_Z   1
loop_
 _symmetry_equiv_pos_site_id
 _symmetry_equiv_pos_as_xyz
  1  'x, y, z'
loop_
 _atom_site_type_symbol
 _atom_site_label
 _atom_site_symmetry_multiplicity
 _atom_site_fract_x
 _atom_site_fract_y
 _atom_site_fract_z
 _atom_site_occupancy
  V  V0  1  0.87287143  0.62674945  0.25765603  1
  V  V1  1  0.50600233  0.75124477  0.26091687  1
  V  V2  1  0.87627899  0.37244476  0.00441609  1
  V  V3  1  0.12153992  0.12387072  0.50206831  1
  V  V4  1  0.25186133  0.75237979  0.50374807  1
  V  V5  1  0.48862821  0.11854776  0.62907441  1
  V  V6  1  0.38704974  0.88384399  -0.00161033  1
  V  V7  1  0.64503037  0.74982926  0.38117377  1
  V  V8  1  0.88396914  0.14144058  0.24915985  1
  V  V9  1  0.86871345  0.62138602  0.75284183  1
  V  V10  1  0.62749515  0.37705695  0.25036195  1
  V  V11  1  0.00172805  0.24268640  0.74634143  1
  V  V12  1  0.25555503  0.12192104  0.87280994  1
  V  V13  1  -0.00023313  0.62341153  0.62653987  1
  V  V14  1  0.86943953  0.74983730  0.62225758  1
  V  V15  1  0.86528222  0.87260519  0.50122015  1
  V  V16  1  0.00089358  0.49373670  0.49404046  1
  V  V17  1  0.50852629  0.50496737  -0.00198496  1
  V  V18  1  0.12592000  0.50193302  0.12619930  1
  V  V19  1  0.52217444  0.02867655  -0.00317361  1
  V  V20  1  0.37470743  0.75450617  0.62367504  1
  V  V21  1  0.51003040  0.62471089  0.12100269  1
  V  V22  1  0.86979673  0.50116231  0.87098767  1
  V  V23  1  0.12525106  0.49741850  0.62609164  1
  V  V24  1  0.87035049  0.12276179  0.74867800  1
  V  V25  1  0.11030041  0.37754256  0.25419040  1
  V  V26  1  0.62760745  0.49781361  0.62606629  1
  V  V27  1  0.00512649  0.87732446  0.38052403  1
  V  V28  1  0.11897476  0.00130337  0.63318216  1
  V  V29  1  0.25107407  0.49774700  0.25021262  1
  V  V30  1  0.86972213  0.76098223  0.12587178  1
  V  V31  1  0.00348323  0.75259979  0.25148747  1
  V  V32  1  0.50014442  0.37281138  0.87290814  1
  V  V33  1  0.75135304  0.50397705  0.25769229  1
  V  V34  1  0.12614355  0.00716632  0.12446751  1
  V  V35  1  0.12478787  0.75399350  0.87374519  1
  V  V36  1  0.37770462  0.62280380  0.24958213  1
  V  V37  1  0.12582720  0.62622147  0.00055812  1
  V  V38  1  0.38070896  0.37605663  0.50183323  1
  V  V39  1  0.00353520  0.75422945  0.75090949  1
  V  V40  1  0.00084467  0.50151494  -0.00082299  1
  V  V41  1  0.74779155  0.24707097  -0.01346740  1
  V  V42  1  0.75230412  0.12017838  0.37303544  1
  V  V43  1  0.37488107  0.49948628  0.87648360  1
  V  V44  1  0.24863443  0.49821311  0.75089037  1
  V  V45  1  0.25108006  0.11596661  0.36518312  1
  V  V46  1  0.49966187  0.75128737  0.75456094  1
  V  V47  1  0.25188788  0.37384946  0.62582750  1
  V  V48  1  0.25033165  0.75296912  0.00045858  1
  V  V49  1  0.61855186  -0.00674891  0.61699654  1
  V  V50  1  0.37996323  0.49907477  0.37817584  1
  V  V51  1  0.75415107  0.36867648  0.12645424  1
  V  V52  1  0.37754013  0.75065583  0.12533615  1
  V  V53  1  0.24362507  0.24389458  0.00344250  1
  V  V54  1  0.37531357  0.62420065  0.74990922  1
  V  V55  1  0.11644661  0.25742326  0.36999715  1
  V  V56  1  0.74997594  0.24882835  0.50801412  1
  V  V57  1  0.00039893  0.62881156  0.12511109  1
  V  V58  1  0.12693158  0.75090308  0.37719833  1
  V  V59  1  0.00055148  0.37312340  0.87410709  1
  V  V60  1  0.87931527  0.00092908  0.37436988  1
  V  V61  1  0.61917204  0.11879198  0.50103640  1
  V  V62  1  0.24902172  0.62478086  0.87598857  1
  V  V63  1  0.74899566  -0.00525765  0.75054701  1
  V  V64  1  0.37883972  0.12099204  0.24444580  1
  V  V65  1  0.62721377  0.25035347  0.37592469  1
  V  V66  1  0.49947159  0.61880624  0.61641254  1
  V  V67  1  0.87235869  0.00051671  0.87486109  1
  V  V68  1  0.12443981  0.62420397  0.50097259  1
  V  V69  1  0.38240268  0.25257395  0.12621831  1
  V  V70  1  0.74457890  0.75008634  -0.00258881  1
  V  V71  1  0.25841769  0.00146769  0.75340518  1
  V  V72  1  0.25353261  0.25025938  0.49641855  1
  V  V73  1  0.63356251  0.01132691  0.12535562  1
  V  V74  1  0.62989012  0.37205052  0.75192435  1
  V  V75  1  0.50132938  0.37387338  0.37647142  1
  V  V76  1  0.12328279  0.24141661  0.88007940  1
  V  V77  1  0.61779649  0.86817344  0.75696150  1
  V  V78  1  0.00286816  0.87674786  0.87675864  1
  V  V79  1  0.64151765  0.61934304  0.49414662  1
  V  V80  1  0.24351151  0.87279006  0.63600532  1
  V  V81  1  0.87858602  0.37333129  0.49470533  1
  V  V82  1  0.88117186  0.24219332  0.62332273  1
  V  V83  1  0.24730031  0.87979304  0.12973807  1
  V  V84  1  0.00057599  0.13895405  0.12223494  1
  Zn  Zn85  1  0.25192663  0.62487618  0.37712326  1
  Zn  Zn86  1  0.74524375  0.86780043  0.62059831  1
  Zn  Zn87  1  0.50898074  0.24910249  0.24157139  1
  Zn  Zn88  1  0.63435634  0.88098903  0.24712581  1
  Zn  Zn89  1  0.12495126  0.37171489  0.74987194  1
  Zn  Zn90  1  0.61229163  0.74219398  0.89020527  1
  Zn  Zn91  1  0.76172614  -0.00893626  0.23271463  1
  Zn  Zn92  1  0.63227825  0.50348993  0.12018087  1
  Zn  Zn93  1  0.75325660  0.37945310  0.62947397  1
  Zn  Zn94  1  0.38938471  -0.00229987  0.86807452  1
  Zn  Zn95  1  0.13213963  0.88429309  0.25667190  1
  Zn  Zn96  1  -0.00242837  0.00558935  0.50810787  1
  Zn  Zn97  1  0.49181236  0.24034625  0.75722112  1
  Zn  Zn98  1  0.73737112  0.61665714  0.88454308  1
  Zn  Zn99  1  0.87160235  0.88471384  0.00885165  1
  Zn  Zn100  1  0.37112407  0.24015279  0.63457537  1
  Zn  Zn101  1  0.87595882  0.50086865  0.37693410  1
  Zn  Zn102  1  0.37350201  0.37712459  0.00174380  1
  Zn  Zn103  1  0.59813485  0.19457150  0.91358500  1
  Zn  Zn104  1  0.00302255  0.00710978  -0.00235257  1
  Zn  Zn105  1  0.24732707  0.37394179  0.12310983  1
  Zn  Zn106  1  0.39678455  -0.01850480  0.39384570  1
  Zn  Zn107  1  0.18574875  0.18974109  0.18779277  1
  Zn  Zn108  1  0.18975145  0.18451343  0.68909181  1
  Zn  Zn109  1  0.18985829  0.68957864  0.18934116  1
  Zn  Zn110  1  0.18561905  0.68342145  0.68944849  1
  Zn  Zn111  1  0.69309912  0.18611064  0.18592349  1
  Zn  Zn112  1  0.66297665  0.16885509  0.72539153  1
  Zn  Zn113  1  0.69069427  0.68807315  0.18873421  1
  Zn  Zn114  1  0.68641107  0.68076321  0.68927267  1
  Zn  Zn115  1  0.30918369  0.31219166  0.31115994  1
  Zn  Zn116  1  0.31373974  0.31056700  0.81272867  1
  Zn  Zn117  1  0.31300735  0.81082478  0.31811792  1
  Zn  Zn118  1  0.31476458  0.81562831  0.81425527  1
  Zn  Zn119  1  0.81071908  0.31409816  0.31578354  1
  Zn  Zn120  1  0.81535658  0.31355143  0.81161738  1
  Zn  Zn121  1  0.81310495  0.81879054  0.31304112  1
  Zn  Zn122  1  0.81202642  0.81297542  0.81339564  1
  Zn  Zn123  1  0.19068611  0.43739717  0.43776870  1
  Zn  Zn124  1  0.18712576  0.43170753  0.93707595  1
  Zn  Zn125  1  0.19447922  0.93805283  0.44593179  1
  Zn  Zn126  1  0.18638918  0.93973311  0.94362700  1
  Zn  Zn127  1  0.68826319  0.43796665  0.44216733  1
  Zn  Zn128  1  0.68798075  0.43157514  0.93617693  1
  Zn  Zn129  1  0.56280383  0.92833618  0.43064323  1
  Zn  Zn130  1  0.69057219  0.92978390  0.94022812  1
  Zn  Zn131  1  0.31358012  0.06351091  0.06370325  1
  Zn  Zn132  1  0.30198828  0.05906380  0.55853378  1
  Zn  Zn133  1  0.31637917  0.56372619  0.06294171  1
  Zn  Zn134  1  0.31227623  0.56262938  0.56299806  1
  Zn  Zn135  1  0.81753485  0.07029480  0.06164376  1
  Zn  Zn136  1  0.80715903  0.05834887  0.56286799  1
  Zn  Zn137  1  0.81315448  0.56514520  0.06663806  1
  Zn  Zn138  1  0.81412500  0.56018572  0.56652463  1
  Zn  Zn139  1  0.44043024  0.43628297  0.18617978  1
  Zn  Zn140  1  0.43957313  0.43743857  0.68779275  1
  Zn  Zn141  1  0.41730580  0.91644998  0.22052050  1
  Zn  Zn142  1  0.43059768  0.93283525  0.56016876  1
  Zn  Zn143  1  0.93506755  0.44197137  0.18613158  1
  Zn  Zn144  1  0.93771147  0.43277882  0.68537361  1
  Zn  Zn145  1  0.94767385  0.94412551  0.19278292  1
  Zn  Zn146  1  0.93803284  0.93339684  0.68870809  1
  Zn  Zn147  1  0.06506031  0.06534094  0.30867814  1
  Zn  Zn148  1  0.06192777  0.06376127  0.81201290  1
  Zn  Zn149  1  0.06260507  0.56636792  0.31323922  1
  Zn  Zn150  1  0.05984229  0.56405559  0.81241188  1
  Zn  Zn151  1  0.56262809  0.06640498  0.30319593  1
  Zn  Zn152  1  0.55568361  0.04854009  0.80964186  1
  Zn  Zn153  1  0.56453148  0.56327701  0.31281431  1
  Zn  Zn154  1  0.56410385  0.56136661  0.80816239  1
  Zn  Zn155  1  0.43794052  0.18496681  0.43278214  1
  Zn  Zn156  1  0.42663889  0.19032887  0.93747669  1
  Zn  Zn157  1  0.43783211  0.68742811  0.44057187  1
  Zn  Zn158  1  0.43413721  0.68723537  0.94051905  1
  Zn  Zn159  1  0.93981893  0.18913521  0.43629760  1
  Zn  Zn160  1  0.93291444  0.18604356  0.93623316  1
  Zn  Zn161  1  0.93955476  0.68834518  0.44010139  1
  Zn  Zn162  1  0.93477745  0.68837901  0.93869490  1
  Zn  Zn163  1  0.06423370  0.31696470  0.06408714  1
  Zn  Zn164  1  0.06464787  0.31157833  0.56145747  1
  Zn  Zn165  1  0.06106858  0.81826464  0.06111272  1
  Zn  Zn166  1  0.06164584  0.81401918  0.56434828  1
  Zn  Zn167  1  0.56663423  0.31844843  0.06020286  1
  Zn  Zn168  1  0.56107780  0.30559730  0.56806489  1
  Zn  Zn169  1  0.56645318  0.82004617  0.07405568  1
  Zn  Zn170  1  0.56668847  0.80246269  0.56297137  1
  O  O171  1  0.11298992  0.11733060  0.13329342  1
  O  O172  1  0.13522814  0.11190963  0.61482124  1
  O  O173  1  0.12084596  0.62189987  0.12036709  1
  O  O174  1  0.11903699  0.61735301  0.62054561  1
  O  O175  1  0.62622871  0.11493414  0.12982032  1
  O  O176  1  0.61600679  0.11275792  0.62094805  1
  O  O177  1  0.61380650  0.62304589  0.12944484  1
  O  O178  1  0.62027867  0.61919972  0.61566325  1
  O  O179  1  0.38156761  0.37903859  0.38052032  1
  O  O180  1  0.38382559  0.38196466  0.87686163  1
  O  O181  1  0.38174001  0.89414203  0.32699842  1
  O  O182  1  0.36639094  0.88016927  0.89468119  1
  O  O183  1  0.87389533  0.37397225  0.39124957  1
  O  O184  1  0.88146333  0.38335761  0.88039468  1
  O  O185  1  0.88541764  0.88203047  0.38278828  1
  O  O186  1  0.88493455  0.88648133  0.87163835  1
  O  O187  1  0.24054512  0.01705097  0.37308855  1
  O  O188  1  0.24028560  0.00890476  0.86886628  1
  O  O189  1  0.26070034  0.50072683  0.36716268  1
  O  O190  1  0.25357191  0.50477862  0.87167734  1
  O  O191  1  0.76649090  0.01636838  0.37841431  1
  O  O192  1  0.75942543  -0.01061557  0.86051594  1
  O  O193  1  0.75428816  0.49266206  0.36205626  1
  O  O194  1  0.76602474  0.49945111  0.88246888  1
  O  O195  1  0.24544225  0.50113676  0.13422237  1
  O  O196  1  0.24517953  0.49444311  0.63053553  1
  O  O197  1  0.23661203  0.99547753  0.11999048  1
  O  O198  1  0.24178891  0.99125875  0.63504949  1
  O  O199  1  0.75128812  0.49056168  0.13437127  1
  O  O200  1  0.73493413  0.49669822  0.62178117  1
  O  O201  1  0.74086282  1.00747571  0.11715537  1
  O  O202  1  0.73969142  0.99507504  0.63419836  1
  O  O203  1  0.01123313  0.38607433  0.25139114  1
  O  O204  1  -0.00106441  0.36026744  0.75563498  1
  O  O205  1  0.00327946  0.87087570  0.26669174  1
  O  O206  1  -0.00374004  0.86284304  0.76039576  1
  O  O207  1  0.50797009  0.37196105  0.25849426  1
  O  O208  1  0.50510059  0.37837414  0.76237956  1
  O  O209  1  0.51419428  0.85162843  0.24113087  1
  O  O210  1  0.51487943  0.86508328  0.74759312  1
  O  O211  1  0.48188629  0.13724113  0.25685648  1
  O  O212  1  0.49403552  0.11565386  0.73128268  1
  O  O213  1  0.49604450  0.62859908  0.24170025  1
  O  O214  1  0.49377043  0.63167423  0.73857008  1
  O  O215  1  0.99004154  0.12657677  0.24443490  1
  O  O216  1  0.98931568  0.13572401  0.75129885  1
  O  O217  1  0.99443475  0.63209808  0.24516833  1
  O  O218  1  0.99147788  0.63337148  0.74605064  1
  O  O219  1  0.36473302  0.25143567  0.01373646  1
  O  O220  1  0.36601017  0.25752856  0.49726768  1
  O  O221  1  0.36914074  0.75932154  0.00604047  1
  O  O222  1  0.36335315  0.73964420  0.51271333  1
  O  O223  1  0.86841867  0.26742674  -0.00813578  1
  O  O224  1  0.87213496  0.25292212  0.50551841  1
  O  O225  1  0.87421374  0.75118202  0.01718775  1
  O  O226  1  0.88608903  0.75824679  0.51259201  1
  O  O227  1  0.13398947  0.24597286  0.49093207  1
  O  O228  1  0.13121076  0.25535927  0.99065537  1
  O  O229  1  0.13096514  0.74350506  0.49840340  1
  O  O230  1  0.13007144  0.74550767  0.99514104  1
  O  O231  1  0.63423093  0.24246020  0.49727668  1
  O  O232  1  0.64103663  0.25716623  0.99799286  1
  O  O233  1  0.62869343  0.73450280  0.49031551  1
  O  O234  1  0.63974435  0.75788924  1.00478332  1
  O  O235  1  0.48577540  0.25700624  0.12135731  1
  O  O236  1  0.49584166  0.22914448  0.62370915  1
  O  O237  1  0.49838729  0.74015014  0.13230837  1
  O  O238  1  0.49030414  0.74163117  0.63397894  1
  O  O239  1  1.00932914  0.23784252  0.12643724  1
  O  O240  1  0.99231623  0.25353173  0.63327990  1
  O  O241  1  0.99430364  0.74742234  0.13114149  1
  O  O242  1  0.99533135  0.74498040  0.63372284  1
  O  O243  1  0.01831612  0.24982734  0.37913135  1
  O  O244  1  0.00513177  0.25167257  0.86853153  1
  O  O245  1  0.00719660  0.75930573  0.37346281  1
  O  O246  1  0.00272440  0.75671922  0.86997123  1
  O  O247  1  0.50709666  0.26045381  0.37264202  1
  O  O248  1  0.49965613  0.26154867  0.87921575  1
  O  O249  1  0.49997253  0.74323359  0.36235472  1
  O  O250  1  0.49549262  0.74338596  0.85919426  1
  O  O251  1  0.24202145  0.13336051  0.48684481  1
  O  O252  1  0.25147883  0.13663332  0.99312601  1
  O  O253  1  0.24254049  0.63405220  0.50223076  1
  O  O254  1  0.24579760  0.63130801  0.99561174  1
  O  O255  1  0.74300650  0.13114414  0.49445964  1
  O  O256  1  0.76358057  0.15027789  1.00322561  1
  O  O257  1  0.74057917  0.62057094  0.50005149  1
  O  O258  1  0.75732552  0.64160043  1.00289020  1
  O  O259  1  0.25267408  0.36162341  0.00045636  1
  O  O260  1  0.25920277  0.36751622  0.50381381  1
  O  O261  1  0.25768194  0.87193984  0.01181327  1
  O  O262  1  0.24406772  0.85767810  0.51395433  1
  O  O263  1  0.75799756  0.37077470  0.00720999  1
  O  O264  1  0.75779535  0.36422890  0.50256197  1
  O  O265  1  0.75984317  0.85826640  -0.00192872  1
  O  O266  1  0.76675828  0.87431926  0.50107741  1
  O  O267  1  0.13243587  0.49709314  0.24826889  1
  O  O268  1  0.12980102  0.49854918  0.74446246  1
  O  O269  1  0.12049899  0.99795888  0.23412458  1
  O  O270  1  0.13027101  1.00698075  0.73654259  1
  O  O271  1  0.63532377  0.49484634  0.25032195  1
  O  O272  1  0.62019483  0.48548561  0.73824434  1
  O  O273  1  0.63129400  1.00432456  0.23686282  1
  O  O274  1  0.62906618  0.98261622  0.74078047  1
  O  O275  1  0.37697688  0.02395488  0.22923265  1
  O  O276  1  0.35762549  -0.00546986  0.75548110  1
  O  O277  1  0.36898471  0.50141465  0.25709374  1
  O  O278  1  0.36875569  0.50535501  0.75558187  1
  O  O279  1  0.87778626  0.00775465  0.26279276  1
  O  O280  1  0.86892253  0.00369871  0.75156405  1
  O  O281  1  0.87018671  0.50933826  0.25342630  1
  O  O282  1  0.88473187  0.50762181  0.75894270  1
  O  O283  1  0.13048424  0.36463574  0.37093178  1
  O  O284  1  0.11807191  0.36249172  0.87188520  1
  O  O285  1  0.12130973  0.87133624  0.37877069  1
  O  O286  1  0.11331458  0.86865117  0.88273405  1
  O  O287  1  0.61869841  0.37133352  0.37327068  1
  O  O288  1  0.61697740  0.38036869  0.86032254  1
  O  O289  1  0.62614440  0.85018657  0.37284080  1
  O  O290  1  0.63067586  0.86412266  0.85926891  1
  O  O291  1  0.36596659  0.14259006  0.13401219  1
  O  O292  1  0.38703896  0.11918050  0.60876953  1
  O  O293  1  0.38424793  0.63078756  0.13065264  1
  O  O294  1  0.38036835  0.63003748  0.63020959  1
  O  O295  1  0.88690146  0.12345438  0.14149666  1
  O  O296  1  0.87393988  0.13415153  0.62950434  1
  O  O297  1  0.88300450  0.63512850  0.13613706  1
  O  O298  1  0.88113424  0.62997829  0.63192748  1
  O  O299  1  0.25198962  0.25230702  0.11731568  1
  O  O300  1  0.25031532  0.25245545  0.61247191  1
  O  O301  1  0.25570467  0.75606817  0.11900341  1
  O  O302  1  0.25340748  0.75302901  0.62466598  1
  O  O303  1  0.75010912  0.26521222  0.11935618  1
  O  O304  1  0.76044726  0.24851668  0.61329281  1
  O  O305  1  0.76443749  0.74868077  0.12116973  1
  O  O306  1  0.76629248  0.74795948  0.63187568  1
  O  O307  1  0.24401680  0.24507423  0.38331580  1
  O  O308  1  0.24254928  0.24168732  0.88092680  1
  O  O309  1  0.24744532  0.74803832  0.38653284  1
  O  O310  1  0.24510478  0.74484497  0.87932418  1
  O  O311  1  0.74830143  0.24088615  0.38630983  1
  O  O312  1  0.75149513  0.25558579  0.88589126  1
  O  O313  1  0.74296921  0.74383600  0.36966421  1
  O  O314  1  0.75709374  0.74537875  0.89076200  1
  O  O315  1  -0.01214890  0.12620869  0.01787657  1
  O  O316  1  0.01714483  0.12448729  0.49397511  1
  O  O317  1  0.00666349  0.62158187  0.00447404  1
  O  O318  1  0.00447542  0.61582638  0.50756928  1
  O  O319  1  0.51579451  0.13071976  -0.01575032  1
  O  O320  1  0.51508348  0.13084603  0.50267272  1
  O  O321  1  0.49519399  0.61755658  0.00892077  1
  O  O322  1  0.50631484  0.63099929  0.51342116  1
  O  O323  1  0.48989271  0.36645873  0.49101955  1
  O  O324  1  0.49912902  0.38499484  0.98955535  1
  O  O325  1  0.50068399  0.86722296  0.50186897  1
  O  O326  1  0.48544152  0.86708334  1.00367099  1
  O  O327  1  0.99205843  0.38352636  0.50764529  1
  O  O328  1  0.99382997  0.38051238  0.99599804  1
  O  O329  1  0.99704648  0.87898616  0.49025921  1
  O  O330  1  0.99178084  0.87776140  0.98814404  1
  O  O331  1  0.48970214  0.48748557  0.36846806  1
  O  O332  1  0.49445604  0.49585322  0.88055551  1
  O  O333  1  0.50536757  1.00726350  0.37749055  1
  O  O334  1  0.50115099  0.99622693  0.89367181  1
  O  O335  1  0.99976202  0.50496141  0.39070597  1
  O  O336  1  0.99471550  0.49370300  0.88074991  1
  O  O337  1  0.99497125  0.99477222  0.37690231  1
  O  O338  1  0.99373039  0.99330153  0.87313761  1
  O  O339  1  0.00945889  0.00897693  0.12186643  1
  O  O340  1  0.01519064  -0.00473928  0.62707817  1
  O  O341  1  0.00622945  0.50845674  0.11894704  1
  O  O342  1  0.00546022  0.50341905  0.61773695  1
  O  O343  1  0.51410711  0.01173984  0.09747878  1
  O  O344  1  0.50810492  0.00758560  0.61651166  1
  O  O345  1  0.50149229  0.50703025  0.11623891  1
  O  O346  1  0.50871577  0.51062996  0.62848941  1
  O  O347  1  0.24247936  0.38813329  0.25036949  1
  O  O348  1  0.24837712  0.38116338  0.74404860  1
  O  O349  1  0.24815557  0.86582100  0.23276320  1
  O  O350  1  0.24761650  0.87952421  0.74250335  1
  O  O351  1  0.74924666  0.38177954  0.24442371  1
  O  O352  1  0.73426106  0.36683972  0.74790628  1
  O  O353  1  0.74774265  0.88062220  0.25057066  1
  O  O354  1  0.74230344  0.87854253  0.74424753  1
  O  O355  1  0.25768957  0.13327468  0.26064917  1
  O  O356  1  0.24646639  0.11636616  0.76152884  1
  O  O357  1  0.25736430  0.61468714  0.25203416  1
  O  O358  1  0.25500087  0.61844122  0.75616180  1
  O  O359  1  0.76683192  0.12500114  0.25811559  1
  O  O360  1  0.76343432  0.11091664  0.74121328  1
  O  O361  1  0.76113518  0.61436632  0.24273260  1
  O  O362  1  0.76722910  0.62894443  0.75301023  1
  O  O363  1  0.36205015  0.12614337  0.36394970  1
  O  O364  1  0.36013061  0.11592949  0.88180769  1
  O  O365  1  0.37683515  0.61322098  0.37106942  1
  O  O366  1  0.36778216  0.61987603  0.86994896  1
  O  O367  1  0.87499260  0.12119350  0.36832572  1
  O  O368  1  0.87978578  0.11204997  0.86167721  1
  O  O369  1  0.88147324  0.62735820  0.36146987  1
  O  O370  1  0.87848816  0.61563102  0.86830708  1
  O  O371  1  0.12611687  0.38411786  0.13618462  1
  O  O372  1  0.13392436  0.37936588  0.62588265  1
  O  O373  1  0.13024951  0.88546659  0.12636740  1
  O  O374  1  0.13290131  0.88860469  0.62073506  1
  O  O375  1  0.63523780  0.37951495  0.13286719  1
  O  O376  1  0.62133181  0.38244762  0.63060192  1
  O  O377  1  0.62117551  0.90078759  0.12697311  1
  O  O378  1  0.62731440  0.87890654  0.62956298  1
  O  O379  1  0.13088731  0.26153488  0.26302369  1
  O  O380  1  0.11641027  0.24812331  0.75665384  1
  O  O381  1  0.12061733  0.75219651  0.25915328  1
  O  O382  1  0.11172922  0.74130154  0.75730422  1
  O  O383  1  0.62957548  0.25755919  0.25772599  1
  O  O384  1  0.60874577  0.26978139  0.73745823  1
  O  O385  1  0.61688620  0.73562712  0.26526766  1
  O  O386  1  0.61712130  0.75902529  0.73971321  1
  O  O387  1  0.37233361  0.24848249  0.23657765  1
  O  O388  1  0.37899370  0.24986248  0.74662108  1
  O  O389  1  0.38801670  0.74230714  0.24574277  1
  O  O390  1  0.37950658  0.74498853  0.74310886  1
  O  O391  1  0.87695865  0.24011210  0.25792508  1
  O  O392  1  0.87976779  0.24185972  0.74327853  1
  O  O393  1  0.88117268  0.74578316  0.24257713  1
  O  O394  1  0.88545232  0.74297934  0.74431498  1
  O  O395  1  0.36748694  0.48863072  0.48934007  1
  O  O396  1  0.38476428  0.49913234  0.99396779  1
  O  O397  1  0.35212798  0.98218965  0.49587994  1
  O  O398  1  0.38609707  0.99145861  1.00559820  1
  O  O399  1  0.88266943  0.49108581  0.50164960  1
  O  O400  1  0.88219402  0.49369737  0.99316975  1
  O  O401  1  0.87938199  0.99449308  0.49357472  1
  O  O402  1  0.87530316  1.00241272  0.98645158  1
  O  O403  1  0.12042638  0.00062337  0.01654659  1
  O  O404  1  0.12751578  0.00847018  0.51129140  1
  O  O405  1  0.12129356  0.50536466  0.00497720  1
  O  O406  1  0.11997311  0.50242539  0.50528915  1
  O  O407  1  0.62527415  0.00516796  -0.00153849  1
  O  O408  1  0.63120730  0.00783331  0.50865386  1
  O  O409  1  0.61290747  0.49598736  -0.00110453  1
  O  O410  1  0.62450669  0.51197084  0.50575502  1
  O  O411  1  0.36951361  0.36444257  0.12573630  1
  O  O412  1  0.37149073  0.37619108  0.61392509  1
  O  O413  1  0.36817730  0.87101736  0.11938258  1
  O  O414  1  0.36188631  0.85922242  0.62708013  1
  O  O415  1  0.86897312  0.38239037  0.11413255  1
  O  O416  1  0.87184888  0.36242470  0.61752180  1
  O  O417  1  0.88504371  0.86322031  0.13070694  1
  O  O418  1  0.87706107  0.86656080  0.61816355  1
  O  O419  1  0.13524698  0.13755807  0.37578144  1
  O  O420  1  0.12975414  0.13625458  0.87408885  1
  O  O421  1  0.12778522  0.63268578  0.38309630  1
  O  O422  1  0.12966646  0.63125921  0.88142159  1
  O  O423  1  0.63564706  0.13028699  0.38046483  1
  O  O424  1  0.62778305  0.13150258  0.82943493  1
  O  O425  1  0.62126376  0.62900083  0.38895465  1
  O  O426  1  0.62988848  0.63460761  0.85907881  1
