# generated using pymatgen
data_V85Zn86O256
_symmetry_space_group_name_H-M   'P 1'
_cell_length_a   17.00145951
_cell_length_b   17.00491832
_cell_length_c   16.97076663
_cell_angle_alpha   90.12375323
_cell_angle_beta   90.06611877
_cell_angle_gamma   90.08232400
_symmetry_Int_Tables_number   1
_chemical_formula_structural   V85Zn86O256
_chemical_formula_sum   'V85 Zn86 O256'
_cell_volume   4906.37191012
_cell_formula_units_Z   1
loop_
 _symmetry_equiv_pos_site_id
 _symmetry_equiv_pos_as_xyz
  1  'x, y, z'
loop_
 _atom_site_type_symbol
 _atom_site_label
 _atom_site_symmetry_multiplicity
 _atom_site_fract_x
 _atom_site_fract_y
 _atom_site_fract_z
 _atom_site_occupancy
  V  V0  1  0.49475189  -0.00343562  0.00099186  1
  V  V1  1  0.75960503  0.25257843  0.50479477  1
  V  V2  1  0.37094205  -0.00422819  0.37297245  1
  V  V3  1  0.37262062  0.37355635  0.50605710  1
  V  V4  1  0.24935248  0.12327593  0.87617381  1
  V  V5  1  0.11234655  0.61272750  0.00304694  1
  V  V6  1  0.87429985  -0.00424934  0.38136616  1
  V  V7  1  0.87152343  0.00267459  0.87242101  1
  V  V8  1  0.62727271  0.12369603  0.00265491  1
  V  V9  1  0.87013106  0.49953699  0.37061040  1
  V  V10  1  0.75591027  0.37662592  0.62778475  1
  V  V11  1  0.37657268  0.12539616  0.24714428  1
  V  V12  1  0.63295091  0.74911452  0.87310954  1
  V  V13  1  0.00188984  0.00466021  0.50282400  1
  V  V14  1  0.24840248  0.38452354  0.13950332  1
  V  V15  1  0.88804159  0.12940616  0.74510466  1
  V  V16  1  0.49195513  0.62745522  0.12524625  1
  V  V17  1  0.24898759  0.61785326  0.87197702  1
  V  V18  1  0.37371262  0.37436995  -0.00059966  1
  V  V19  1  0.87343827  0.74693127  0.12289727  1
  V  V20  1  0.12373819  0.74600106  0.37533169  1
  V  V21  1  0.12637836  0.51840902  0.63557327  1
  V  V22  1  0.50020920  0.01334377  0.50558219  1
  V  V23  1  0.89065108  0.37906223  0.00033568  1
  V  V24  1  -0.00335001  0.87536061  0.37859782  1
  V  V25  1  0.01763532  0.37565003  0.37671057  1
  V  V26  1  -0.00004434  0.87574035  0.87283598  1
  V  V27  1  0.50168707  0.37299639  0.37455850  1
  V  V28  1  0.37349437  0.24710652  0.62613497  1
  V  V29  1  0.12511745  0.87791273  0.23561078  1
  V  V30  1  0.24758970  0.87688524  0.62442593  1
  V  V31  1  0.00551852  0.37267100  0.85256180  1
  V  V32  1  0.50096456  0.49976026  -0.00021385  1
  V  V33  1  0.24425645  -0.00516232  0.23437537  1
  V  V34  1  0.36819684  0.50118839  0.36837676  1
  V  V35  1  0.49247810  0.87447751  0.87909968  1
  V  V36  1  0.12391822  0.12471106  0.00529260  1
  V  V37  1  0.13085956  0.11776180  0.50386142  1
  V  V38  1  0.76179023  0.75313054  0.50885905  1
  V  V39  1  0.00356005  0.00232771  0.00712305  1
  V  V40  1  0.11580077  0.49974976  0.13735254  1
  V  V41  1  0.37797056  0.12027329  0.74991916  1
  V  V42  1  0.50142097  0.37294297  0.87665959  1
  V  V43  1  0.62985611  0.62656301  -0.00536864  1
  V  V44  1  0.87726907  0.12510691  0.25500674  1
  V  V45  1  0.62424547  0.87441142  0.25304732  1
  V  V46  1  0.49860021  0.74835531  0.74924598  1
  V  V47  1  0.37327990  0.74768685  0.62378519  1
  V  V48  1  -0.00201822  0.74195021  0.73919407  1
  V  V49  1  0.62874727  0.49898594  0.62683485  1
  V  V50  1  0.50073868  0.87353052  0.37557607  1
  V  V51  1  0.37468966  0.87156299  0.49861070  1
  V  V52  1  0.87234798  0.87507241  -0.00198504  1
  V  V53  1  0.62896175  0.37534052  0.75337572  1
  V  V54  1  0.63487908  0.37994276  0.24943458  1
  V  V55  1  0.62349174  0.75127653  0.37593804  1
  V  V56  1  0.62561387  0.88629996  0.74238235  1
  V  V57  1  0.87829738  0.38079739  0.50329675  1
  V  V58  1  0.75290968  0.50376317  0.76393516  1
  V  V59  1  0.75263454  0.12305665  0.86981101  1
  V  V60  1  0.86787075  0.63002764  0.74723333  1
  V  V61  1  0.24787705  0.24581931  0.49713306  1
  V  V62  1  -0.00198992  0.74781332  0.24434050  1
  V  V63  1  0.24656160  0.12621767  0.37281363  1
  V  V64  1  0.24376599  0.74160308  0.49388183  1
  V  V65  1  0.87076423  0.62172105  0.24385170  1
  V  V66  1  0.62624370  0.25025871  0.87864612  1
  V  V67  1  0.75404525  0.25232178  0.00476561  1
  V  V68  1  0.01331686  0.25217897  0.26289509  1
  V  V69  1  0.88118563  0.24900517  0.12929126  1
  V  V70  1  0.12285006  0.74806338  0.87833188  1
  V  V71  1  0.74851288  0.87411274  0.12332342  1
  V  V72  1  0.50317057  0.49691455  0.50308694  1
  V  V73  1  0.37239873  0.49589433  0.86996723  1
  V  V74  1  0.50590980  0.24158503  0.74354653  1
  V  V75  1  0.62743038  0.24685392  0.38056832  1
  V  V76  1  0.74980521  -0.00066312  0.25170740  1
  V  V77  1  0.62602809  0.00072801  0.12495034  1
  V  V78  1  0.62553562  0.62363986  0.50126752  1
  V  V79  1  0.24580439  0.25360329  -0.00052063  1
  V  V80  1  0.74811320  0.12523959  0.38172766  1
  V  V81  1  0.25690626  0.75623249  0.00600659  1
  V  V82  1  0.00843656  0.51904799  0.49975706  1
  V  V83  1  0.74668340  0.62224767  0.36921419  1
  V  V84  1  0.37061570  0.61986669  0.74740716  1
  Zn  Zn85  1  0.00930489  0.12010499  0.13543617  1
  Zn  Zn86  1  0.75349068  0.74557737  -0.01032932  1
  Zn  Zn87  1  0.75734794  0.89094453  0.61667141  1
  Zn  Zn88  1  0.37577237  0.25295847  0.12736176  1
  Zn  Zn89  1  0.50111409  0.12714016  0.12453715  1
  Zn  Zn90  1  0.62967874  0.50834730  0.13226692  1
  Zn  Zn91  1  0.49481169  0.74908744  0.24914140  1
  Zn  Zn92  1  0.11736795  -0.00123818  0.63216194  1
  Zn  Zn93  1  0.36283529  0.62725025  0.24516252  1
  Zn  Zn94  1  0.50002093  0.62272648  0.62549892  1
  Zn  Zn95  1  0.37194938  -0.00662621  0.87758565  1
  Zn  Zn96  1  0.22856800  0.60289800  0.36780614  1
  Zn  Zn97  1  0.62617868  0.03527443  0.62449788  1
  Zn  Zn98  1  0.26867752  0.44616962  0.70386777  1
  Zn  Zn99  1  0.12535389  0.87510758  0.74993889  1
  Zn  Zn100  1  0.75892025  0.38340466  0.13392442  1
  Zn  Zn101  1  0.12442874  0.25570713  0.84562936  1
  Zn  Zn102  1  0.94003418  0.28117824  0.67512330  1
  Zn  Zn103  1  0.50251636  0.24720074  0.24784769  1
  Zn  Zn104  1  0.88220343  0.51014788  0.88721372  1
  Zn  Zn105  1  0.24829258  -0.00454085  0.75259129  1
  Zn  Zn106  1  0.36852588  0.77776491  0.12900037  1
  Zn  Zn107  1  0.19355327  0.18902395  0.18564367  1
  Zn  Zn108  1  0.19423858  0.18197020  0.68555770  1
  Zn  Zn109  1  0.18760110  0.68323741  0.18825999  1
  Zn  Zn110  1  0.18520120  0.68753891  0.68551602  1
  Zn  Zn111  1  0.68937670  0.18999147  0.19130264  1
  Zn  Zn112  1  0.69632259  0.18913233  0.68705327  1
  Zn  Zn113  1  0.68345116  0.68879953  0.18437110  1
  Zn  Zn114  1  0.68636866  0.68718486  0.68827197  1
  Zn  Zn115  1  0.31296801  0.31284726  0.31607733  1
  Zn  Zn116  1  0.31428568  0.30671699  0.81363723  1
  Zn  Zn117  1  0.30876578  0.80975452  0.30573211  1
  Zn  Zn118  1  0.30960354  0.80660725  0.81298813  1
  Zn  Zn119  1  0.81747947  0.31037747  0.31716391  1
  Zn  Zn120  1  0.81501129  0.31241812  0.81778347  1
  Zn  Zn121  1  0.80859873  0.81015804  0.31459945  1
  Zn  Zn122  1  0.82502386  0.83315794  0.77887893  1
  Zn  Zn123  1  0.16633046  0.41531503  0.48854980  1
  Zn  Zn124  1  0.18412162  0.43478492  0.93217842  1
  Zn  Zn125  1  0.18496114  0.93048833  0.43214095  1
  Zn  Zn126  1  0.18640203  0.93809093  0.94279310  1
  Zn  Zn127  1  0.68910753  0.43645105  0.43729964  1
  Zn  Zn128  1  0.68959527  0.43726007  0.94553528  1
  Zn  Zn129  1  0.69065990  0.94596878  0.45695741  1
  Zn  Zn130  1  0.68395021  0.93406296  0.93394844  1
  Zn  Zn131  1  0.31296887  0.06027161  0.06200011  1
  Zn  Zn132  1  0.31765126  0.06110925  0.56380059  1
  Zn  Zn133  1  0.30663741  0.56244698  0.05602961  1
  Zn  Zn134  1  0.31260377  0.56497938  0.55446303  1
  Zn  Zn135  1  0.81523772  0.06243809  0.06314407  1
  Zn  Zn136  1  0.81029632  0.06243227  0.56529945  1
  Zn  Zn137  1  0.80775649  0.55907110  0.06429180  1
  Zn  Zn138  1  0.81414548  0.56756987  0.56396884  1
  Zn  Zn139  1  0.44133012  0.43860923  0.18565303  1
  Zn  Zn140  1  0.44427718  0.43239005  0.68865586  1
  Zn  Zn141  1  0.43819776  0.93779643  0.18680585  1
  Zn  Zn142  1  0.43921354  0.93716629  0.68548355  1
  Zn  Zn143  1  0.94239617  0.43479677  0.19125042  1
  Zn  Zn144  1  0.93960820  0.45794279  0.68303241  1
  Zn  Zn145  1  0.93585876  0.93422572  0.18872746  1
  Zn  Zn146  1  0.93387831  0.93902043  0.68430636  1
  Zn  Zn147  1  0.06469312  0.06036086  0.31475991  1
  Zn  Zn148  1  0.06582388  0.06327100  0.81449427  1
  Zn  Zn149  1  0.05410496  0.56287883  0.30934627  1
  Zn  Zn150  1  0.05580036  0.56064472  0.81703039  1
  Zn  Zn151  1  0.56174087  0.05997432  0.31665199  1
  Zn  Zn152  1  0.56393389  0.06189249  0.81729827  1
  Zn  Zn153  1  0.55689852  0.56185489  0.31270439  1
  Zn  Zn154  1  0.56171935  0.56267729  0.81382405  1
  Zn  Zn155  1  0.43352761  0.18852044  0.43249135  1
  Zn  Zn156  1  0.43718722  0.18602077  0.93875281  1
  Zn  Zn157  1  0.43814782  0.68508975  0.43848819  1
  Zn  Zn158  1  0.43770473  0.68529705  0.93624634  1
  Zn  Zn159  1  0.98480184  0.22706874  0.49436500  1
  Zn  Zn160  1  0.94323186  0.19163048  0.93334287  1
  Zn  Zn161  1  0.93315777  0.69158156  0.43001387  1
  Zn  Zn162  1  0.93405167  0.68647119  0.93289740  1
  Zn  Zn163  1  0.06824959  0.31091794  0.07017002  1
  Zn  Zn164  1  0.10105512  0.32056586  0.65378129  1
  Zn  Zn165  1  0.06039523  0.80716787  0.05701079  1
  Zn  Zn166  1  0.06265326  0.81345855  0.55984939  1
  Zn  Zn167  1  0.56080845  0.30988281  0.06620901  1
  Zn  Zn168  1  0.56819636  0.30465620  0.56557513  1
  Zn  Zn169  1  0.55962388  0.81068068  0.06234912  1
  Zn  Zn170  1  0.56338832  0.81289967  0.56066452  1
  O  O171  1  0.12484636  0.13025671  0.11091591  1
  O  O172  1  0.14498172  0.11075531  0.60693225  1
  O  O173  1  0.12929354  0.61163620  0.11153619  1
  O  O174  1  0.12256596  0.61941835  0.62043122  1
  O  O175  1  0.62946636  0.11902077  0.12052632  1
  O  O176  1  0.61164336  0.14346879  0.63652114  1
  O  O177  1  0.61310245  0.62769136  0.11442102  1
  O  O178  1  0.62340492  0.61587660  0.61996302  1
  O  O179  1  0.38530479  0.37938211  0.38350395  1
  O  O180  1  0.38291326  0.37634319  0.88041523  1
  O  O181  1  0.37795610  0.88072687  0.37745277  1
  O  O182  1  0.38807345  0.87377420  0.86726895  1
  O  O183  1  0.87172760  0.38889395  0.38195210  1
  O  O184  1  0.88644618  0.37055162  0.89022467  1
  O  O185  1  0.88236699  0.88646186  0.36557756  1
  O  O186  1  0.88113572  0.88345466  0.87640605  1
  O  O187  1  0.25965909  0.00383485  0.37112947  1
  O  O188  1  0.25282374  0.01005114  0.87851728  1
  O  O189  1  0.26900000  0.49488638  0.38523723  1
  O  O190  1  0.25581124  0.50980981  0.87918622  1
  O  O191  1  0.75611159  0.00617322  0.37482034  1
  O  O192  1  0.76017147  0.01150515  0.88658525  1
  O  O193  1  0.75744748  0.51190768  0.37967772  1
  O  O194  1  0.75474553  0.49248918  0.86603253  1
  O  O195  1  0.24415161  0.48816002  0.12106492  1
  O  O196  1  0.23885269  0.51814281  0.62582242  1
  O  O197  1  0.24794616  1.00368710  0.13569176  1
  O  O198  1  0.25545471  0.98386196  0.62448548  1
  O  O199  1  0.73936738  0.49181583  0.11986352  1
  O  O200  1  0.74654173  0.49526180  0.63568509  1
  O  O201  1  0.74716749  0.99418425  0.13070745  1
  O  O202  1  0.72277308  0.99276565  0.57787403  1
  O  O203  1  -0.00302339  0.36733903  0.26891838  1
  O  O204  1  -0.01097270  0.37167872  0.74884758  1
  O  O205  1  0.00323030  0.86782405  0.25705080  1
  O  O206  1  -0.00099220  0.86467554  0.76251733  1
  O  O207  1  0.50771351  0.37042681  0.26275741  1
  O  O208  1  0.50874927  0.36311413  0.75721780  1
  O  O209  1  0.50808332  0.87692198  0.25919373  1
  O  O210  1  0.50498757  0.86485128  0.75519991  1
  O  O211  1  0.48859572  0.12292343  0.25228907  1
  O  O212  1  0.49121329  0.13546284  0.76343877  1
  O  O213  1  0.49838048  0.62430251  0.23615255  1
  O  O214  1  0.49164523  0.63307996  0.74965693  1
  O  O215  1  0.99235711  0.13113072  0.25602062  1
  O  O216  1  0.98718351  0.12557850  0.75773521  1
  O  O217  1  0.98419048  0.63952658  0.25397647  1
  O  O218  1  0.99324187  0.63748170  0.75224369  1
  O  O219  1  0.36341069  0.25443699  0.00113165  1
  O  O220  1  0.37342308  0.25447252  0.50754596  1
  O  O221  1  0.35859325  0.74314651  -0.00378741  1
  O  O222  1  0.36697770  0.75334906  0.50242036  1
  O  O223  1  0.87334486  0.25533885  0.01120026  1
  O  O224  1  0.86912897  0.26933205  0.49264595  1
  O  O225  1  0.87382338  0.75434931  0.00662392  1
  O  O226  1  0.86079522  0.74611087  0.49622145  1
  O  O227  1  0.14613788  0.23553703  0.50145249  1
  O  O228  1  0.13544146  0.24365093  1.00118031  1
  O  O229  1  0.13173816  0.75650550  0.48752760  1
  O  O230  1  0.12928365  0.73743733  0.99322963  1
  O  O231  1  0.64184411  0.26016554  0.48795215  1
  O  O232  1  0.63531872  0.24577837  0.99897200  1
  O  O233  1  0.62910347  0.74145343  0.49340916  1
  O  O234  1  0.62463958  0.74399468  0.98994301  1
  O  O235  1  0.49352780  0.24416320  0.12954484  1
  O  O236  1  0.49009391  0.25621104  0.63645790  1
  O  O237  1  0.49348890  0.73752216  0.12231874  1
  O  O238  1  0.49331369  0.74941020  0.63468178  1
  O  O239  1  0.99275967  0.24892251  0.13945677  1
  O  O240  1  1.01193993  0.27022186  0.59536584  1
  O  O241  1  0.98475214  0.75613157  0.13299378  1
  O  O242  1  1.00428579  0.75751458  0.64150886  1
  O  O243  1  0.00133463  0.26914761  0.38021765  1
  O  O244  1  0.00298469  0.26768251  0.87518416  1
  O  O245  1  0.00151203  0.75879635  0.36522659  1
  O  O246  1  0.00750786  0.75859494  0.87354552  1
  O  O247  1  0.51005961  0.25694337  0.37858462  1
  O  O248  1  0.50739460  0.25415885  0.86959759  1
  O  O249  1  0.50623654  0.75569093  0.37531235  1
  O  O250  1  0.50352681  0.75589822  0.86620893  1
  O  O251  1  0.25287974  0.12604807  0.48995009  1
  O  O252  1  0.24433030  0.13146231  0.99569121  1
  O  O253  1  0.25528598  0.63920361  0.48470377  1
  O  O254  1  0.23979652  0.63207220  0.98725285  1
  O  O255  1  0.76344731  0.13978308  0.48879391  1
  O  O256  1  0.74989612  0.13581630  0.99560380  1
  O  O257  1  0.74529992  0.63190474  0.49011609  1
  O  O258  1  0.73449700  0.62765308  1.00267835  1
  O  O259  1  0.25424778  0.36668532  -0.00116460  1
  O  O260  1  0.26631278  0.36003527  0.49027634  1
  O  O261  1  0.24182680  0.85465793  -0.00664807  1
  O  O262  1  0.25515125  0.86617268  0.50515238  1
  O  O263  1  0.76128276  0.36033775  -0.00002483  1
  O  O264  1  0.76030117  0.37337336  0.50569969  1
  O  O265  1  0.75540983  0.87244660  0.00453140  1
  O  O266  1  0.74613000  0.85515512  0.49770101  1
  O  O267  1  0.12397283  0.50982436  0.23666416  1
  O  O268  1  0.11572744  0.50693391  0.73438324  1
  O  O269  1  0.13206636  0.99040130  0.25492306  1
  O  O270  1  0.12854897  0.99435223  0.74873032  1
  O  O271  1  0.62117122  0.48249282  0.25547030  1
  O  O272  1  0.63360752  0.49558472  0.74911275  1
  O  O273  1  0.63164333  0.99537291  0.24684725  1
  O  O274  1  0.60892153  0.98867903  0.74138256  1
  O  O275  1  0.36493335  0.00492104  0.25707279  1
  O  O276  1  0.37605899  0.00938185  0.75303354  1
  O  O277  1  0.38087599  0.49469807  0.26637988  1
  O  O278  1  0.37305360  0.50073648  0.75144875  1
  O  O279  1  0.87029709  0.00678023  0.25705651  1
  O  O280  1  0.88194991  0.01172251  0.76793725  1
  O  O281  1  0.88195681  0.51042357  0.25744822  1
  O  O282  1  0.86727012  0.51180416  0.75426643  1
  O  O283  1  0.11501985  0.38414457  0.38557169  1
  O  O284  1  0.10822286  0.37447012  0.87208141  1
  O  O285  1  0.11280888  0.86596815  0.36308345  1
  O  O286  1  0.11552201  0.86500634  0.87735718  1
  O  O287  1  0.62063077  0.36794313  0.36914077  1
  O  O288  1  0.62158769  0.36938078  0.87397014  1
  O  O289  1  0.62050998  0.87031601  0.37181682  1
  O  O290  1  0.61067347  0.86861399  0.86551322  1
  O  O291  1  0.37363467  0.12540019  0.13806247  1
  O  O292  1  0.37207188  0.13239209  0.63900678  1
  O  O293  1  0.38696409  0.61419426  0.12280232  1
  O  O294  1  0.37690346  0.63093935  0.62906561  1
  O  O295  1  0.87644252  0.13247967  0.13878450  1
  O  O296  1  0.87037097  0.11339484  0.64669042  1
  O  O297  1  0.86532346  0.63479191  0.13261154  1
  O  O298  1  0.87417462  0.62116367  0.64607118  1
  O  O299  1  0.25101628  0.26480305  0.11701213  1
  O  O300  1  0.26658813  0.24453230  0.61326354  1
  O  O301  1  0.24995091  0.74146579  0.10875755  1
  O  O302  1  0.25273394  0.75539800  0.61466113  1
  O  O303  1  0.76370914  0.25193961  0.12159610  1
  O  O304  1  0.75277139  0.26038353  0.61317812  1
  O  O305  1  0.75970528  0.75668547  0.12422279  1
  O  O306  1  0.74650796  0.74456555  0.60967374  1
  O  O307  1  0.26176765  0.23505121  0.38342809  1
  O  O308  1  0.24660954  0.23881666  0.88471370  1
  O  O309  1  0.23632253  0.75918839  0.38170529  1
  O  O310  1  0.23850416  0.74105457  0.88134692  1
  O  O311  1  0.74690549  0.24356104  0.38235031  1
  O  O312  1  0.74712236  0.24295155  0.88613247  1
  O  O313  1  0.74413525  0.73975292  0.38246045  1
  O  O314  1  0.73340481  0.75854175  0.86975993  1
  O  O315  1  0.00746684  0.11928412  -0.00021868  1
  O  O316  1  0.01856878  0.11540192  0.49215703  1
  O  O317  1  0.01422067  0.62702949  -0.00580918  1
  O  O318  1  -0.01211202  0.61572670  0.49112375  1
  O  O319  1  0.51051392  0.11692098  -0.00148983  1
  O  O320  1  0.48278939  0.11159019  0.49875971  1
  O  O321  1  0.50509506  0.61927491  0.00611115  1
  O  O322  1  0.50801701  0.61551944  0.50254128  1
  O  O323  1  0.49485510  0.37505175  0.49362056  1
  O  O324  1  0.49581807  0.37881537  0.99651609  1
  O  O325  1  0.49249654  0.87923563  0.49286665  1
  O  O326  1  0.50855368  0.88500065  0.98975364  1
  O  O327  1  0.98906861  0.39407616  0.48323544  1
  O  O328  1  0.99030252  0.36932736  1.00512408  1
  O  O329  1  1.00455698  0.88298785  0.48408485  1
  O  O330  1  0.99405562  0.88082867  0.99130137  1
  O  O331  1  0.49735948  0.48714216  0.38391021  1
  O  O332  1  0.49308344  0.49198947  0.87782305  1
  O  O333  1  0.48419791  0.99481891  0.37806939  1
  O  O334  1  0.50009772  0.99097136  0.88397610  1
  O  O335  1  0.98979521  0.49496343  0.37799995  1
  O  O336  1  0.99430551  0.47896015  0.86891800  1
  O  O337  1  0.99253960  0.99334577  0.37978224  1
  O  O338  1  0.99346390  0.99221045  0.88476769  1
  O  O339  1  -0.00990705  0.00254750  0.11170210  1
  O  O340  1  -0.00049355  -0.01107367  0.60705493  1
  O  O341  1  0.01691116  0.49038502  0.12570040  1
  O  O342  1  0.01007876  0.50515054  0.60667191  1
  O  O343  1  0.51021100  0.00514677  0.11714413  1
  O  O344  1  0.50303692  -0.00559721  0.60806587  1
  O  O345  1  0.50782524  0.50647890  0.11755769  1
  O  O346  1  0.51073411  0.49741602  0.62076685  1
  O  O347  1  0.25396472  0.37205595  0.23775023  1
  O  O348  1  0.23688514  0.36325647  0.76211574  1
  O  O349  1  0.23683672  0.88383821  0.25358060  1
  O  O350  1  0.24862089  0.87116054  0.73945893  1
  O  O351  1  0.73830341  0.36926659  0.25481268  1
  O  O352  1  0.74906566  0.38235825  0.74837696  1
  O  O353  1  0.74476236  0.88072030  0.24567323  1
  O  O354  1  0.72284208  0.88166338  0.76433251  1
  O  O355  1  0.25451578  0.11680239  0.25579567  1
  O  O356  1  0.26039412  0.12191080  0.76054155  1
  O  O357  1  0.25144239  0.62851609  0.26052710  1
  O  O358  1  0.25536099  0.63457584  0.76385995  1
  O  O359  1  0.75796886  0.12026508  0.25936806  1
  O  O360  1  0.75910971  0.13012486  0.76660559  1
  O  O361  1  0.75675766  0.63196695  0.25911960  1
  O  O362  1  0.75845138  0.61921562  0.75141353  1
  O  O363  1  0.36648807  0.11452100  0.36624118  1
  O  O364  1  0.36494958  0.12637694  0.86743885  1
  O  O365  1  0.38514709  0.60477559  0.37514977  1
  O  O366  1  0.36766937  0.61643365  0.86819258  1
  O  O367  1  0.86510035  0.11448755  0.36399350  1
  O  O368  1  0.87024782  0.12124329  0.87241353  1
  O  O369  1  0.86509015  0.61864209  0.36397088  1
  O  O370  1  0.87918364  0.62069148  0.86156869  1
  O  O371  1  0.13860536  0.38715341  0.12177798  1
  O  O372  1  0.13591595  0.41031090  0.60050899  1
  O  O373  1  0.11412997  0.86954728  0.13659360  1
  O  O374  1  0.13612615  0.87593290  0.62567841  1
  O  O375  1  0.62429233  0.36851012  0.14491965  1
  O  O376  1  0.63405717  0.37894296  0.63357993  1
  O  O377  1  0.62945938  0.87978732  0.13145193  1
  O  O378  1  0.62808310  0.86755371  0.63972848  1
  O  O379  1  0.11126264  0.24135533  0.24920210  1
  O  O380  1  0.11706133  0.24423700  0.73338231  1
  O  O381  1  0.11340862  0.75651024  0.25215545  1
  O  O382  1  0.11261310  0.74806296  0.76170395  1
  O  O383  1  0.62534929  0.25774635  0.26476966  1
  O  O384  1  0.62235504  0.25694270  0.75976705  1
  O  O385  1  0.62203966  0.75707834  0.25766236  1
  O  O386  1  0.61357841  0.75270710  0.75504499  1
  O  O387  1  0.37592297  0.23682342  0.25268104  1
  O  O388  1  0.38562008  0.24191909  0.74411472  1
  O  O389  1  0.37809367  0.74645184  0.24307049  1
  O  O390  1  0.38236720  0.74208474  0.74532931  1
  O  O391  1  0.88364148  0.24283982  0.24879759  1
  O  O392  1  0.87154639  0.23708644  0.75090078  1
  O  O393  1  0.87843557  0.74465526  0.24301525  1
  O  O394  1  0.88778381  0.73804063  0.76006447  1
  O  O395  1  0.38299402  0.48906222  0.49629635  1
  O  O396  1  0.38134069  0.49344746  0.99067024  1
  O  O397  1  0.38009786  0.99154704  0.49116387  1
  O  O398  1  0.39112889  1.01065440  0.99600309  1
  O  O399  1  0.87903219  0.49809438  0.49098936  1
  O  O400  1  0.87186735  0.48161932  1.00362538  1
  O  O401  1  0.88578671  1.00936351  0.48711779  1
  O  O402  1  0.88294652  0.99646429  0.99160342  1
  O  O403  1  0.11378233  0.01080923  -0.00644135  1
  O  O404  1  0.11769226  0.00201775  0.49553331  1
  O  O405  1  0.12648771  0.51091095  0.00078739  1
  O  O406  1  0.10959161  0.51715671  0.48826048  1
  O  O407  1  0.62010147  0.00487928  0.00513095  1
  O  O408  1  0.59787755  0.00628870  0.48055152  1
  O  O409  1  0.61579882  0.51000441  -0.00574329  1
  O  O410  1  0.62311391  0.50277850  0.50594648  1
  O  O411  1  0.36304881  0.37812937  0.11855150  1
  O  O412  1  0.37792999  0.36648641  0.61577317  1
  O  O413  1  0.38027466  0.88529599  0.11166558  1
  O  O414  1  0.36793690  0.86614724  0.61946562  1
  O  O415  1  0.87772921  0.36552669  0.11979824  1
  O  O416  1  0.87319848  0.38399039  0.61589909  1
  O  O417  1  0.86825962  0.86704923  0.11935812  1
  O  O418  1  0.85061959  0.86953053  0.67114612  1
  O  O419  1  0.14136160  0.11619975  0.38331199  1
  O  O420  1  0.13481498  0.13019129  0.88380659  1
  O  O421  1  0.11656428  0.64270465  0.36674743  1
  O  O422  1  0.12870612  0.62832596  0.88242736  1
  O  O423  1  0.63822517  0.13332841  0.36913643  1
  O  O424  1  0.63532249  0.12919730  0.88178184  1
  O  O425  1  0.63041245  0.62793017  0.37836041  1
  O  O426  1  0.61495812  0.63649187  0.88383946  1
