# generated using pymatgen
data_V85Zn86O256
_symmetry_space_group_name_H-M   'P 1'
_cell_length_a   16.96556068
_cell_length_b   16.95298084
_cell_length_c   16.94819429
_cell_angle_alpha   89.98127439
_cell_angle_beta   89.99946405
_cell_angle_gamma   89.98263559
_symmetry_Int_Tables_number   1
_chemical_formula_structural   V85Zn86O256
_chemical_formula_sum   'V85 Zn86 O256'
_cell_volume   4874.58534974
_cell_formula_units_Z   1
loop_
 _symmetry_equiv_pos_site_id
 _symmetry_equiv_pos_as_xyz
  1  'x, y, z'
loop_
 _atom_site_type_symbol
 _atom_site_label
 _atom_site_symmetry_multiplicity
 _atom_site_fract_x
 _atom_site_fract_y
 _atom_site_fract_z
 _atom_site_occupancy
  V  V0  1  -0.00366051  0.75103604  0.24436258  1
  V  V1  1  0.25160201  0.36901957  0.61950596  1
  V  V2  1  0.12409919  0.87456956  0.24937771  1
  V  V3  1  0.74842258  0.49832926  0.24828978  1
  V  V4  1  0.50282108  0.37573146  0.87329038  1
  V  V5  1  0.37614578  0.75225738  0.12637130  1
  V  V6  1  0.73612054  0.61435985  0.87689094  1
  V  V7  1  0.50457583  0.36209547  0.37103199  1
  V  V8  1  0.12148989  0.50039351  0.11865570  1
  V  V9  1  0.62382530  -0.00287269  0.62922415  1
  V  V10  1  0.50159904  0.75171120  0.25272234  1
  V  V11  1  0.37266176  0.11643852  0.76174001  1
  V  V12  1  0.87544195  0.75048238  0.62991350  1
  V  V13  1  0.74839145  0.74975180  0.00236249  1
  V  V14  1  0.00722064  -0.00388536  0.50231521  1
  V  V15  1  0.88740620  0.49541953  0.87847443  1
  V  V16  1  0.62598725  0.38818675  0.74433456  1
  V  V17  1  0.24837882  0.49456334  0.74884898  1
  V  V18  1  0.25158153  0.37704742  0.12678034  1
  V  V19  1  -0.00313785  0.62177111  0.12049457  1
  V  V20  1  0.12299101  0.74512364  0.37827947  1
  V  V21  1  0.37505474  0.36904047  0.49937699  1
  V  V22  1  0.01344638  0.86995611  0.87431067  1
  V  V23  1  0.37514743  0.74759003  0.62341933  1
  V  V24  1  0.74932534  0.37170195  0.11614344  1
  V  V25  1  0.24943486  0.12866512  0.38082136  1
  V  V26  1  0.87164229  0.62106274  0.75409504  1
  V  V27  1  0.24690198  0.24980594  -0.00681798  1
  V  V28  1  0.74802894  0.74799489  0.50266518  1
  V  V29  1  0.12580405  0.63219988  -0.00484576  1
  V  V30  1  0.74563888  0.87449584  0.63295779  1
  V  V31  1  0.50492935  0.76164023  0.74806182  1
  V  V32  1  0.50367709  0.00281843  -0.01028248  1
  V  V33  1  0.87329235  0.24964842  0.11923571  1
  V  V34  1  -0.00184297  0.00521326  0.00497471  1
  V  V35  1  0.63036979  0.24764694  0.88445713  1
  V  V36  1  0.12046215  0.00761803  0.12305929  1
  V  V37  1  0.25029348  0.50120919  0.25152945  1
  V  V38  1  0.00080681  0.24686300  0.24530516  1
  V  V39  1  0.88594758  0.37771448  -0.00236790  1
  V  V40  1  0.87256888  0.62898191  0.24293801  1
  V  V41  1  0.74938405  0.00316530  0.75155665  1
  V  V42  1  0.37492362  0.37659968  0.00108862  1
  V  V43  1  0.62441599  0.74778554  0.38084928  1
  V  V44  1  0.87619939  0.87581512  0.50114532  1
  V  V45  1  0.50132992  0.25100665  0.74815261  1
  V  V46  1  0.87580306  0.49980467  0.37414630  1
  V  V47  1  0.12645787  0.49956293  0.62626469  1
  V  V48  1  0.50039816  0.12962305  0.12773461  1
  V  V49  1  0.38751219  0.87552109  -0.01285336  1
  V  V50  1  0.87913673  0.12554985  0.24765675  1
  V  V51  1  0.51331034  0.50291732  0.50000414  1
  V  V52  1  0.75133287  0.24905693  0.50613427  1
  V  V53  1  0.62551623  0.12841532  0.49703640  1
  V  V54  1  0.00543630  0.62767468  0.62132160  1
  V  V55  1  0.24655220  0.74726384  0.50009511  1
  V  V56  1  0.12564849  0.24894340  0.37943712  1
  V  V57  1  0.00545063  0.50535413  0.49828061  1
  V  V58  1  0.37962622  0.13291045  0.24704691  1
  V  V59  1  0.62530164  0.00237590  0.12469104  1
  V  V60  1  0.24345687  0.88051739  0.63699138  1
  V  V61  1  0.37719810  0.49974223  0.37550562  1
  V  V62  1  0.25018718  0.00271232  0.24690909  1
  V  V63  1  0.74574881  0.12703582  0.89176695  1
  V  V64  1  0.12574160  0.12811615  0.50383146  1
  V  V65  1  0.12531915  0.37542827  0.25171201  1
  V  V66  1  0.37573209  0.62520938  0.24970807  1
  V  V67  1  0.62228906  0.36115860  0.25109568  1
  V  V68  1  0.50350013  0.50816753  -0.00100482  1
  V  V69  1  -0.00022273  0.37504703  0.37839532  1
  V  V70  1  0.74531776  0.62371685  0.37984255  1
  V  V71  1  0.74965657  -0.00137181  0.25149929  1
  V  V72  1  0.61951664  0.76729497  0.87358698  1
  V  V73  1  0.62382294  0.50449307  0.12031065  1
  V  V74  1  0.37265312  0.50368956  0.87258400  1
  V  V75  1  0.74747468  0.13270443  0.37427282  1
  V  V76  1  0.25173130  0.87572358  0.12320638  1
  V  V77  1  0.01194392  0.75152353  0.75570012  1
  V  V78  1  0.87136825  -0.00683685  0.87839296  1
  V  V79  1  0.24826468  0.62508235  0.37719640  1
  V  V80  1  0.49912011  0.12561827  0.62432814  1
  V  V81  1  0.74288816  0.39574293  0.62488375  1
  V  V82  1  0.51617427  0.62126290  0.62104332  1
  V  V83  1  -0.00655556  0.12305383  0.63153001  1
  V  V84  1  0.37672373  -0.00137383  0.37593031  1
  Zn  Zn85  1  -0.00182325  0.28239145  0.76751729  1
  Zn  Zn86  1  0.87602773  0.25855384  0.63173383  1
  Zn  Zn87  1  0.87486329  0.13437812  0.75731928  1
  Zn  Zn88  1  0.37847714  0.25147814  0.12765657  1
  Zn  Zn89  1  0.21811109  0.07198730  0.83039852  1
  Zn  Zn90  1  0.23867234  0.63054724  0.86560501  1
  Zn  Zn91  1  0.11907635  0.25591197  0.86699649  1
  Zn  Zn92  1  0.12798807  -0.00185082  0.66059209  1
  Zn  Zn93  1  0.37476307  0.62617074  0.74785481  1
  Zn  Zn94  1  0.37494352  0.87650273  0.50017452  1
  Zn  Zn95  1  0.00034284  0.87429573  0.37500106  1
  Zn  Zn96  1  0.50244093  0.87683283  0.37894798  1
  Zn  Zn97  1  0.87648362  0.00131478  0.37621889  1
  Zn  Zn98  1  0.36721315  0.24557343  0.62277574  1
  Zn  Zn99  1  0.50434984  0.62985043  0.11929920  1
  Zn  Zn100  1  0.75299328  0.86683168  0.12888856  1
  Zn  Zn101  1  0.12400577  0.12741028  -0.00274421  1
  Zn  Zn102  1  0.62549084  0.87568877  0.25209546  1
  Zn  Zn103  1  0.50082636  -0.00218398  0.49887576  1
  Zn  Zn104  1  0.87470529  0.37495502  0.50084830  1
  Zn  Zn105  1  0.24643368  0.75462715  -0.01047394  1
  Zn  Zn106  1  0.87769462  0.86595387  0.01045677  1
  Zn  Zn107  1  0.19284300  0.18971882  0.18611753  1
  Zn  Zn108  1  0.17974373  0.18820024  0.68948580  1
  Zn  Zn109  1  0.18613447  0.68784066  0.18632254  1
  Zn  Zn110  1  0.19042042  0.68472453  0.68625908  1
  Zn  Zn111  1  0.68993565  0.18406785  0.17991311  1
  Zn  Zn112  1  0.68627073  0.18904269  0.69094743  1
  Zn  Zn113  1  0.68423577  0.68523898  0.19042357  1
  Zn  Zn114  1  0.68807634  0.68719937  0.69430770  1
  Zn  Zn115  1  0.31329827  0.31269105  0.31580989  1
  Zn  Zn116  1  0.31319066  0.31266929  0.80876239  1
  Zn  Zn117  1  0.31067634  0.81375294  0.31208525  1
  Zn  Zn118  1  0.31417239  0.81020222  0.81096490  1
  Zn  Zn119  1  0.81104553  0.31299973  0.31075647  1
  Zn  Zn120  1  0.80939193  0.31303416  0.80906270  1
  Zn  Zn121  1  0.81267501  0.81156445  0.31487164  1
  Zn  Zn122  1  0.81173131  0.80738934  0.81652740  1
  Zn  Zn123  1  0.18658842  0.43780618  0.44125198  1
  Zn  Zn124  1  0.18334422  0.43589105  0.93372426  1
  Zn  Zn125  1  0.19010466  0.93452494  0.43904413  1
  Zn  Zn126  1  0.18726674  0.93340609  0.93538374  1
  Zn  Zn127  1  0.68716285  0.43336590  0.43375762  1
  Zn  Zn128  1  0.68784817  0.43382151  0.93489921  1
  Zn  Zn129  1  0.68844789  0.93766927  0.43851656  1
  Zn  Zn130  1  0.68504868  0.93679113  0.93946746  1
  Zn  Zn131  1  0.29928241  0.04571422  0.01727859  1
  Zn  Zn132  1  0.31230054  0.06164218  0.56535039  1
  Zn  Zn133  1  0.31068613  0.56449717  0.06206317  1
  Zn  Zn134  1  0.31717080  0.56092022  0.55925259  1
  Zn  Zn135  1  0.81595095  0.05946778  0.06582296  1
  Zn  Zn136  1  0.81220166  0.05986788  0.56123174  1
  Zn  Zn137  1  0.80861408  0.56230107  0.05666272  1
  Zn  Zn138  1  0.81828672  0.56441794  0.56093752  1
  Zn  Zn139  1  0.44152362  0.43757841  0.18883825  1
  Zn  Zn140  1  0.43755373  0.43904329  0.68447813  1
  Zn  Zn141  1  0.43884961  0.94128547  0.18796369  1
  Zn  Zn142  1  0.43053516  0.93765317  0.68721922  1
  Zn  Zn143  1  0.93714903  0.43657666  0.18792499  1
  Zn  Zn144  1  0.92797603  0.44321266  0.68684925  1
  Zn  Zn145  1  0.93273230  0.93420287  0.18519239  1
  Zn  Zn146  1  0.93834350  0.93894161  0.69204174  1
  Zn  Zn147  1  0.06236468  0.05972117  0.31598753  1
  Zn  Zn148  1  0.05776196  0.07073443  0.82301412  1
  Zn  Zn149  1  0.06202941  0.56373949  0.30893747  1
  Zn  Zn150  1  0.06085512  0.55776982  0.80881195  1
  Zn  Zn151  1  0.56272026  0.06664158  0.31102368  1
  Zn  Zn152  1  0.56528249  0.06515706  0.81095957  1
  Zn  Zn153  1  0.56257254  0.55798065  0.30969697  1
  Zn  Zn154  1  0.55496789  0.56741345  0.80863378  1
  Zn  Zn155  1  0.43678117  0.18534611  0.43700114  1
  Zn  Zn156  1  0.44166729  0.18864816  0.94062920  1
  Zn  Zn157  1  0.43671722  0.68549616  0.44025465  1
  Zn  Zn158  1  0.43495891  0.69269606  0.93299382  1
  Zn  Zn159  1  0.93711632  0.18766109  0.44060573  1
  Zn  Zn160  1  0.93391411  0.18611404  0.93477021  1
  Zn  Zn161  1  0.93375646  0.68825645  0.43526396  1
  Zn  Zn162  1  0.93476718  0.68540353  0.93821163  1
  Zn  Zn163  1  0.06293306  0.31517017  0.06021568  1
  Zn  Zn164  1  0.04814729  0.32598602  0.59228615  1
  Zn  Zn165  1  0.06007747  0.81385388  0.06181923  1
  Zn  Zn166  1  0.06593516  0.81263760  0.56708809  1
  Zn  Zn167  1  0.56178764  0.31638959  0.06369457  1
  Zn  Zn168  1  0.56345237  0.31402631  0.55887932  1
  Zn  Zn169  1  0.56928172  0.81478667  0.06267124  1
  Zn  Zn170  1  0.56017747  0.81331656  0.56015922  1
  O  O171  1  0.13305920  0.11102747  0.12143653  1
  O  O172  1  0.11657828  0.11600327  0.61753550  1
  O  O173  1  0.11710118  0.61857609  0.11968433  1
  O  O174  1  0.11286454  0.61797816  0.62633107  1
  O  O175  1  0.61551101  0.11376989  0.12998226  1
  O  O176  1  0.61803142  0.11718494  0.61952447  1
  O  O177  1  0.62355231  0.60837052  0.12872194  1
  O  O178  1  0.61494709  0.62889797  0.62620096  1
  O  O179  1  0.38309942  0.38003935  0.37987561  1
  O  O180  1  0.38074484  0.38515536  0.88134069  1
  O  O181  1  0.37293627  0.88825064  0.37330917  1
  O  O182  1  0.37871641  0.87228811  0.88954128  1
  O  O183  1  0.88072795  0.38233360  0.37483987  1
  O  O184  1  0.86379741  0.38894130  0.88130289  1
  O  O185  1  0.87552315  0.87358659  0.39113499  1
  O  O186  1  0.87299966  0.88557361  0.87929849  1
  O  O187  1  0.25541402  0.00889904  0.36839843  1
  O  O188  1  0.26036908  0.01211706  0.91450446  1
  O  O189  1  0.25505835  0.50487764  0.37099732  1
  O  O190  1  0.25691112  0.50143927  0.86658527  1
  O  O191  1  0.75313730  0.01049159  0.36834218  1
  O  O192  1  0.75076472  0.00523004  0.87014112  1
  O  O193  1  0.75404954  0.50648168  0.37003371  1
  O  O194  1  0.75296639  0.51246815  0.87825245  1
  O  O195  1  0.24286593  0.49658916  0.13206762  1
  O  O196  1  0.24494735  0.49803071  0.62856551  1
  O  O197  1  0.24270494  0.98977682  0.12424185  1
  O  O198  1  0.25102979  0.98336192  0.62168625  1
  O  O199  1  0.74299174  0.49243761  0.12705355  1
  O  O200  1  0.74428620  0.49461796  0.61630325  1
  O  O201  1  0.74113967  1.00591284  0.13703623  1
  O  O202  1  0.74403779  0.99406366  0.63192733  1
  O  O203  1  0.00530440  0.36762403  0.25729487  1
  O  O204  1  0.00332610  0.36452101  0.69243596  1
  O  O205  1  0.00336804  0.86547163  0.25127615  1
  O  O206  1  -0.00434776  0.86773532  0.76539673  1
  O  O207  1  0.50920388  0.37913078  0.25847555  1
  O  O208  1  0.50533243  0.36858270  0.75133555  1
  O  O209  1  0.49949966  0.86167436  0.25445318  1
  O  O210  1  0.49915721  0.86079767  0.73758126  1
  O  O211  1  0.49150803  0.12282530  0.24163780  1
  O  O212  1  0.49530425  0.13210950  0.74190643  1
  O  O213  1  0.49431601  0.63524043  0.24813124  1
  O  O214  1  0.49659693  0.63219495  0.73322540  1
  O  O215  1  0.99061462  0.13464489  0.25865264  1
  O  O216  1  0.99474571  0.11335697  0.73473739  1
  O  O217  1  0.99135328  0.63125712  0.24236501  1
  O  O218  1  0.99141121  0.63056502  0.74351855  1
  O  O219  1  0.37099259  0.26566591  -0.00067584  1
  O  O220  1  0.38105268  0.26405460  0.50253924  1
  O  O221  1  0.38549935  0.76295777  0.01256610  1
  O  O222  1  0.36595645  0.75181262  0.50613841  1
  O  O223  1  0.88055815  0.25662521  0.01397858  1
  O  O224  1  0.86532891  0.25341347  0.50504412  1
  O  O225  1  0.85361763  0.74887387  -0.01048507  1
  O  O226  1  0.87007521  0.75728566  0.50842281  1
  O  O227  1  0.11551689  0.23246754  0.49466858  1
  O  O228  1  0.14049730  0.25109033  1.00746909  1
  O  O229  1  0.13145852  0.75384154  0.48877528  1
  O  O230  1  0.12692034  0.73660675  1.00551849  1
  O  O231  1  0.63462070  0.23588454  0.50603806  1
  O  O232  1  0.62148592  0.26020640  0.98328868  1
  O  O233  1  0.63194053  0.75224187  0.48951574  1
  O  O234  1  0.62876214  0.75156105  0.98283575  1
  O  O235  1  0.49809019  0.23499890  0.11299256  1
  O  O236  1  0.50371998  0.24007951  0.63154097  1
  O  O237  1  0.49547442  0.75030338  0.13422647  1
  O  O238  1  0.49606389  0.74004050  0.62611087  1
  O  O239  1  0.99228356  0.25703485  0.13884744  1
  O  O240  1  0.99550015  0.22461742  0.61269285  1
  O  O241  1  1.00488804  0.73971187  0.13729805  1
  O  O242  1  0.99603369  0.74537088  0.63399452  1
  O  O243  1  0.00468084  0.25497445  0.36758804  1
  O  O244  1  -0.00030096  0.25039326  0.87551424  1
  O  O245  1  0.00644368  0.74862491  0.36534339  1
  O  O246  1  -0.00808097  0.76313630  0.87141413  1
  O  O247  1  0.49922148  0.26286418  0.37918514  1
  O  O248  1  0.50802494  0.25580030  0.86723309  1
  O  O249  1  0.50805052  0.74664873  0.36956836  1
  O  O250  1  0.51194155  0.74419700  0.86460732  1
  O  O251  1  0.24055202  0.11762337  0.49064734  1
  O  O252  1  0.26022241  0.15076120  1.01152540  1
  O  O253  1  0.25474379  0.63768046  0.49352874  1
  O  O254  1  0.23391820  0.62665417  1.00204296  1
  O  O255  1  0.74600426  0.12925945  0.49366950  1
  O  O256  1  0.75043881  0.11953916  0.99098922  1
  O  O257  1  0.75984909  0.63161177  0.48714793  1
  O  O258  1  0.75004214  0.63403394  0.98448606  1
  O  O259  1  0.25876961  0.37247266  0.00698705  1
  O  O260  1  0.26434253  0.38350101  0.50602861  1
  O  O261  1  0.26636836  0.87227658  0.01033054  1
  O  O262  1  0.25200876  0.86171381  0.50724129  1
  O  O263  1  0.75829642  0.37913532  0.01195118  1
  O  O264  1  0.74412152  0.36669971  0.51016512  1
  O  O265  1  0.74711317  0.85936318  -0.00060984  1
  O  O266  1  0.75829830  0.87076895  0.51104353  1
  O  O267  1  0.13081208  0.49542250  0.24284475  1
  O  O268  1  0.13400449  0.50353531  0.73718327  1
  O  O269  1  0.12870496  0.99528978  0.24282276  1
  O  O270  1  0.13895726  1.01157736  0.77037638  1
  O  O271  1  0.63016413  0.49130720  0.23942309  1
  O  O272  1  0.61587935  0.48672203  0.75233482  1
  O  O273  1  0.63466891  1.00012236  0.24592516  1
  O  O274  1  0.63419687  1.00403726  0.73834273  1
  O  O275  1  0.36966335  0.00954560  0.25713359  1
  O  O276  1  0.38130034  0.01666077  0.75029656  1
  O  O277  1  0.37023861  0.50516671  0.25453184  1
  O  O278  1  0.36906083  0.50001091  0.75737255  1
  O  O279  1  0.86841008  0.01034251  0.25062752  1
  O  O280  1  0.86493736  0.00023930  0.76127884  1
  O  O281  1  0.86939341  0.50818797  0.25426908  1
  O  O282  1  0.87526336  0.51023158  0.76200242  1
  O  O283  1  0.12085937  0.36993332  0.37150881  1
  O  O284  1  0.11749809  0.37010999  0.87842330  1
  O  O285  1  0.12518434  0.86357889  0.36755504  1
  O  O286  1  0.11208201  0.86999012  0.88024076  1
  O  O287  1  0.61720110  0.37829424  0.36269251  1
  O  O288  1  0.62342710  0.36809030  0.86354183  1
  O  O289  1  0.62577155  0.86289564  0.37336298  1
  O  O290  1  0.62466191  0.86585866  0.86973781  1
  O  O291  1  0.38479790  0.12414356  0.13664998  1
  O  O292  1  0.38604937  0.12697891  0.62916559  1
  O  O293  1  0.37488102  0.63746522  0.12912199  1
  O  O294  1  0.37905659  0.63778478  0.62324453  1
  O  O295  1  0.86820610  0.13543060  0.13808653  1
  O  O296  1  0.88738892  0.11624971  0.62584530  1
  O  O297  1  0.88082790  0.61621991  0.13412648  1
  O  O298  1  0.88199162  0.62898874  0.63526595  1
  O  O299  1  0.25515095  0.26295988  0.11974309  1
  O  O300  1  0.24890188  0.26553349  0.62869034  1
  O  O301  1  0.25955222  0.75900794  0.12570209  1
  O  O302  1  0.25478391  0.75466663  0.61875185  1
  O  O303  1  0.76183494  0.26053507  0.13046028  1
  O  O304  1  0.75278773  0.24644431  0.61487833  1
  O  O305  1  0.73514237  0.74358094  0.10591229  1
  O  O306  1  0.75421168  0.75625936  0.62457664  1
  O  O307  1  0.24259024  0.23704098  0.37115429  1
  O  O308  1  0.25266888  0.26014491  0.89110198  1
  O  O309  1  0.24287776  0.74618059  0.38013677  1
  O  O310  1  0.27385570  0.73573289  0.88230144  1
  O  O311  1  0.75468672  0.24043635  0.38545127  1
  O  O312  1  0.74233421  0.23863889  0.86801868  1
  O  O313  1  0.74342154  0.74228320  0.37969049  1
  O  O314  1  0.73482619  0.74252803  0.87876103  1
  O  O315  1  -0.00116973  0.10797192  -0.00269501  1
  O  O316  1  0.00454651  0.11163056  0.50593160  1
  O  O317  1  0.00824996  0.63178683  0.01227020  1
  O  O318  1  -0.00987513  0.62003217  0.51111751  1
  O  O319  1  0.49017313  0.10833358  0.01053848  1
  O  O320  1  0.50825843  0.12435926  0.50764371  1
  O  O321  1  0.49291435  0.61156526  -0.00041008  1
  O  O322  1  0.49797090  0.61882946  0.51230692  1
  O  O323  1  0.49594572  0.38269610  0.49271087  1
  O  O324  1  0.49122077  0.38471551  0.99445298  1
  O  O325  1  0.49386075  0.88031001  0.49648935  1
  O  O326  1  0.49401438  0.88304478  1.00295664  1
  O  O327  1  0.99811333  0.38705559  0.49664321  1
  O  O328  1  0.98499590  0.37899411  1.00752412  1
  O  O329  1  0.99272425  0.87932953  0.50349580  1
  O  O330  1  0.99637927  0.87856491  0.98878063  1
  O  O331  1  0.49466887  0.49593142  0.38158406  1
  O  O332  1  0.49395796  0.49486909  0.88033960  1
  O  O333  1  0.48953888  1.00110902  0.37418534  1
  O  O334  1  0.50905059  1.00424098  0.89079777  1
  O  O335  1  0.99764545  0.49767714  0.38013896  1
  O  O336  1  0.98611395  0.49783461  0.87295843  1
  O  O337  1  0.99636268  0.99456691  0.38596954  1
  O  O338  1  0.99068546  0.98709070  0.88316083  1
  O  O339  1  0.00971964  -0.00932309  0.11759117  1
  O  O340  1  0.00644606  0.00191093  0.61856742  1
  O  O341  1  0.00975902  0.51026071  0.13402942  1
  O  O342  1  0.00595974  0.51084048  0.61743724  1
  O  O343  1  0.51006659  0.00693609  0.12441600  1
  O  O344  1  0.50768890  0.00894739  0.62585296  1
  O  O345  1  0.50661651  0.50115525  0.11593967  1
  O  O346  1  0.49618100  0.51468810  0.61777707  1
  O  O347  1  0.24514435  0.38117963  0.24753764  1
  O  O348  1  0.25949773  0.38755087  0.73653089  1
  O  O349  1  0.24519127  0.88115334  0.24104533  1
  O  O350  1  0.25508768  0.86988429  0.73581341  1
  O  O351  1  0.74405993  0.38038725  0.24126139  1
  O  O352  1  0.74061812  0.37391035  0.73258043  1
  O  O353  1  0.75177566  0.88837864  0.25389665  1
  O  O354  1  0.75676041  0.88310985  0.73939437  1
  O  O355  1  0.25663850  0.12029519  0.25819778  1
  O  O356  1  0.26979384  0.13537056  0.74592336  1
  O  O357  1  0.25579724  0.62100673  0.25506159  1
  O  O358  1  0.25384932  0.61071063  0.74860283  1
  O  O359  1  0.75655375  0.12038721  0.25748122  1
  O  O360  1  0.75269302  0.11270647  0.75278373  1
  O  O361  1  0.75673176  0.62056669  0.25642135  1
  O  O362  1  0.76198337  0.63249700  0.76536240  1
  O  O363  1  0.36799104  0.11957548  0.36981821  1
  O  O364  1  0.38329817  0.13103597  0.86076637  1
  O  O365  1  0.36901302  0.62000270  0.36940282  1
  O  O366  1  0.37976620  0.60882618  0.87315999  1
  O  O367  1  0.86629495  0.12547350  0.36575292  1
  O  O368  1  0.86423111  0.11101008  0.87606607  1
  O  O369  1  0.86628890  0.62048746  0.36392911  1
  O  O370  1  0.87071342  0.61280408  0.87132502  1
  O  O371  1  0.12952060  0.38362504  0.13149257  1
  O  O372  1  0.14159037  0.39189346  0.60895710  1
  O  O373  1  0.13436064  0.87925422  0.12863404  1
  O  O374  1  0.13831205  0.87764748  0.62626655  1
  O  O375  1  0.63157935  0.38178950  0.13008171  1
  O  O376  1  0.63467985  0.37177556  0.62955048  1
  O  O377  1  0.63183440  0.88645911  0.13178555  1
  O  O378  1  0.63582167  0.88458544  0.61742110  1
  O  O379  1  0.11812307  0.25387821  0.25510344  1
  O  O380  1  0.11184938  0.24916483  0.75061792  1
  O  O381  1  0.11675648  0.75424795  0.25611924  1
  O  O382  1  0.11088912  0.73934175  0.75131273  1
  O  O383  1  0.63074248  0.26225445  0.24167849  1
  O  O384  1  0.61432942  0.25673101  0.75510152  1
  O  O385  1  0.61771215  0.75068319  0.25960464  1
  O  O386  1  0.61859502  0.74656574  0.76296256  1
  O  O387  1  0.37035837  0.23782383  0.24943127  1
  O  O388  1  0.39000357  0.24677232  0.74654410  1
  O  O389  1  0.38152230  0.74604402  0.24494609  1
  O  O390  1  0.38594391  0.74735415  0.73891685  1
  O  O391  1  0.88213776  0.24525857  0.24372287  1
  O  O392  1  0.88117781  0.24948525  0.74686971  1
  O  O393  1  0.88247762  0.73897822  0.25607481  1
  O  O394  1  0.88356107  0.74086562  0.74881404  1
  O  O395  1  0.38559894  0.49125457  0.49334911  1
  O  O396  1  0.37912472  0.49323884  0.99401285  1
  O  O397  1  0.37558945  1.00197513  0.48709628  1
  O  O398  1  0.39332219  0.98249066  1.01230649  1
  O  O399  1  0.88691333  0.49957379  0.49237574  1
  O  O400  1  0.87233198  0.49505391  0.98665157  1
  O  O401  1  0.88422008  0.98954524  0.50163180  1
  O  O402  1  0.88094107  0.99565899  0.99474703  1
  O  O403  1  0.11425876  -0.00265997  0.00918286  1
  O  O404  1  0.11610292  0.00719091  0.49459186  1
  O  O405  1  0.12989749  0.50860641  0.01434489  1
  O  O406  1  0.11285234  0.50418110  0.50521730  1
  O  O407  1  0.61221793  -0.00761773  0.01105415  1
  O  O408  1  0.62793395  0.01077584  0.51101179  1
  O  O409  1  0.61430483  0.48979877  0.00767080  1
  O  O410  1  0.61237962  0.49747433  0.49459877  1
  O  O411  1  0.37185226  0.37768481  0.11681998  1
  O  O412  1  0.36972749  0.37514262  0.61534549  1
  O  O413  1  0.36863551  0.86690752  0.12817551  1
  O  O414  1  0.36524883  0.86327257  0.62235981  1
  O  O415  1  0.86797013  0.37095822  0.11958094  1
  O  O416  1  0.85161494  0.37926601  0.62022012  1
  O  O417  1  0.86547830  0.87243561  0.12311844  1
  O  O418  1  0.86751232  0.87111762  0.61954021  1
  O  O419  1  0.13203599  0.12790331  0.38116029  1
  O  O420  1  0.12997307  0.13725175  0.88366695  1
  O  O421  1  0.13137865  0.63707439  0.36631773  1
  O  O422  1  0.11903020  0.61579189  0.89264492  1
  O  O423  1  0.63522034  0.11901028  0.38562566  1
  O  O424  1  0.63447106  0.13521883  0.86918883  1
  O  O425  1  0.63727785  0.63212104  0.36690533  1
  O  O426  1  0.63542131  0.62288650  0.86987675  1
