# generated using pymatgen
data_V85Zn86O256
_symmetry_space_group_name_H-M   'P 1'
_cell_length_a   16.95642213
_cell_length_b   16.95758039
_cell_length_c   16.95437289
_cell_angle_alpha   90.09206660
_cell_angle_beta   90.03524841
_cell_angle_gamma   89.96858796
_symmetry_Int_Tables_number   1
_chemical_formula_structural   V85Zn86O256
_chemical_formula_sum   'V85 Zn86 O256'
_cell_volume   4875.05059444
_cell_formula_units_Z   1
loop_
 _symmetry_equiv_pos_site_id
 _symmetry_equiv_pos_as_xyz
  1  'x, y, z'
loop_
 _atom_site_type_symbol
 _atom_site_label
 _atom_site_symmetry_multiplicity
 _atom_site_fract_x
 _atom_site_fract_y
 _atom_site_fract_z
 _atom_site_occupancy
  V  V0  1  0.25601197  0.12468743  0.87721502  1
  V  V1  1  0.87445967  0.12522711  0.75257794  1
  V  V2  1  -0.00122381  0.87518676  0.37550153  1
  V  V3  1  0.74328871  0.87755528  0.62593212  1
  V  V4  1  0.74528260  -0.00289696  0.75158977  1
  V  V5  1  0.62779499  0.25496103  0.38158238  1
  V  V6  1  0.24625636  0.37574801  0.62934997  1
  V  V7  1  0.37577302  -0.00685588  0.88053378  1
  V  V8  1  0.87781899  -0.01173437  0.87977092  1
  V  V9  1  0.37471630  0.50340128  0.37510563  1
  V  V10  1  0.61638878  0.12966144  0.50599495  1
  V  V11  1  0.24760648  0.75049187  0.50101774  1
  V  V12  1  0.00257947  0.36977671  0.38043277  1
  V  V13  1  0.49868481  -0.01008634  0.00082375  1
  V  V14  1  -0.00170675  0.12800841  0.12609445  1
  V  V15  1  0.62682734  0.00045626  0.12508953  1
  V  V16  1  0.63547745  0.62740314  -0.00776711  1
  V  V17  1  0.26398782  0.86524013  0.11760025  1
  V  V18  1  0.63088426  0.38277167  0.24876189  1
  V  V19  1  0.12670742  -0.00226990  0.12466997  1
  V  V20  1  0.87125388  0.61520565  0.24852680  1
  V  V21  1  0.63092157  0.74864712  0.86613140  1
  V  V22  1  0.87117527  0.75555734  0.12176197  1
  V  V23  1  0.74942174  0.13021759  0.38334982  1
  V  V24  1  0.37074018  0.26377805  0.12555865  1
  V  V25  1  -0.00209350  -0.01391314  -0.00247369  1
  V  V26  1  0.37045727  0.50411919  0.87968655  1
  V  V27  1  0.00034896  0.25260996  0.75775840  1
  V  V28  1  0.11946533  0.87529150  0.76283760  1
  V  V29  1  0.11493161  0.50054636  0.62031254  1
  V  V30  1  0.37365100  0.62659249  0.24465373  1
  V  V31  1  0.62435857  0.75158693  0.37068773  1
  V  V32  1  -0.00020400  0.12505369  0.62704610  1
  V  V33  1  0.00044831  0.74619051  0.25083628  1
  V  V34  1  0.12397988  -0.00198673  0.62734584  1
  V  V35  1  0.25209631  0.51725285  0.74991139  1
  V  V36  1  0.25517452  0.26571738  0.00524831  1
  V  V37  1  0.12630804  0.87187059  0.25017183  1
  V  V38  1  0.12043946  0.37629989  0.75352467  1
  V  V39  1  0.25003498  -0.00078681  0.75260696  1
  V  V40  1  0.61595313  0.62608801  0.50016388  1
  V  V41  1  0.25045204  0.49204729  0.24513741  1
  V  V42  1  0.13284170  0.62583830  -0.00509264  1
  V  V43  1  0.62512948  0.13059094  -0.00250438  1
  V  V44  1  0.49647905  0.73361072  0.74268135  1
  V  V45  1  -0.00496766  0.74963144  0.76058034  1
  V  V46  1  0.74781264  0.75105526  0.49923282  1
  V  V47  1  0.12490437  0.49165103  0.12449434  1
  V  V48  1  0.24992803  0.12378986  0.37655232  1
  V  V49  1  0.11663993  0.62295768  0.49837371  1
  V  V50  1  0.37633970  0.12149957  0.25674358  1
  V  V51  1  0.87332103  0.51768492  0.87091124  1
  V  V52  1  0.87371755  0.00068133  0.37670191  1
  V  V53  1  0.87135600  0.37417458  0.50256621  1
  V  V54  1  0.50014772  0.74703781  0.24055242  1
  V  V55  1  0.13065534  0.25200770  0.87476723  1
  V  V56  1  0.62107200  0.37585587  0.76468191  1
  V  V57  1  0.12347624  0.12845446  0.49671791  1
  V  V58  1  0.61537630  0.00529675  0.62545267  1
  V  V59  1  0.12673367  0.12444925  0.00077746  1
  V  V60  1  0.49569075  0.50666409  0.50831690  1
  V  V61  1  0.50318136  0.87470175  0.86068543  1
  V  V62  1  0.25474315  -0.00227205  0.25477527  1
  V  V63  1  0.49884847  0.12462388  0.12659908  1
  V  V64  1  0.88042393  0.49942035  0.38163135  1
  V  V65  1  0.50354401  0.48653859  -0.00946284  1
  V  V66  1  0.38034197  0.24734506  0.63408500  1
  V  V67  1  0.47298995  0.64338567  0.09512854  1
  V  V68  1  0.62485297  0.50173077  0.62459228  1
  V  V69  1  0.37208156  0.37818083  0.50107863  1
  V  V70  1  0.87314012  0.87499894  0.50058922  1
  V  V71  1  0.86827071  0.25126032  0.62384643  1
  V  V72  1  0.75060603  0.00082328  0.25095353  1
  V  V73  1  0.74784183  0.13269281  0.87751418  1
  V  V74  1  0.75312261  0.51428612  0.75134380  1
  V  V75  1  0.24377155  0.25180948  0.49597610  1
  V  V76  1  0.74796520  0.61616898  0.36928011  1
  V  V77  1  0.37328423  0.73551377  0.62940435  1
  V  V78  1  -0.00927695  0.62749930  0.62677555  1
  V  V79  1  0.00095917  0.49445977  -0.00755842  1
  V  V80  1  0.62868043  0.50562135  0.12557125  1
  V  V81  1  0.12367140  0.36699273  0.25460908  1
  V  V82  1  0.87746298  0.36735939  -0.01084373  1
  V  V83  1  0.49965374  0.25358024  0.25132349  1
  V  V84  1  0.62632332  0.87477342  0.24788633  1
  Zn  Zn85  1  0.52064041  0.24227927  0.78282407  1
  Zn  Zn86  1  0.87136941  0.25458816  0.12927700  1
  Zn  Zn87  1  0.50103048  0.37875847  0.37545416  1
  Zn  Zn88  1  0.75698928  0.88199837  0.11096829  1
  Zn  Zn89  1  0.74761713  0.37370486  0.62491157  1
  Zn  Zn90  1  0.87035802  0.74680620  0.62998728  1
  Zn  Zn91  1  0.40005929  0.11216387  0.73917627  1
  Zn  Zn92  1  0.00076903  0.24710797  0.25513019  1
  Zn  Zn93  1  0.74177701  0.25493216  0.00152836  1
  Zn  Zn94  1  0.14822025  0.74184592  0.87418834  1
  Zn  Zn95  1  0.24350539  0.62514659  0.37139378  1
  Zn  Zn96  1  0.75458704  0.37879501  0.12685447  1
  Zn  Zn97  1  -0.00106664  0.62123608  0.12439926  1
  Zn  Zn98  1  0.48793718  0.88705943  0.37217818  1
  Zn  Zn99  1  0.12381945  0.74755162  0.37591644  1
  Zn  Zn100  1  0.87495619  0.12995368  0.25148355  1
  Zn  Zn101  1  -0.00040431  -0.00094257  0.50078521  1
  Zn  Zn102  1  0.25273313  0.87444378  0.62666219  1
  Zn  Zn103  1  0.37705087  0.88024452  0.49963765  1
  Zn  Zn104  1  0.48822419  0.00609883  0.48877313  1
  Zn  Zn105  1  0.76571270  0.75364507  -0.01700145  1
  Zn  Zn106  1  0.29211078  0.72910800  0.00359772  1
  Zn  Zn107  1  0.18936250  0.18683666  0.18559480  1
  Zn  Zn108  1  0.19114279  0.18687443  0.68720989  1
  Zn  Zn109  1  0.18937075  0.68283413  0.17927017  1
  Zn  Zn110  1  0.17759670  0.69198783  0.68263266  1
  Zn  Zn111  1  0.68888271  0.19197632  0.18814237  1
  Zn  Zn112  1  0.68420605  0.18726731  0.69208967  1
  Zn  Zn113  1  0.68687227  0.68308613  0.18150623  1
  Zn  Zn114  1  0.68276491  0.68936296  0.68435400  1
  Zn  Zn115  1  0.31289308  0.31211586  0.31383977  1
  Zn  Zn116  1  0.35722450  0.30046771  0.84375563  1
  Zn  Zn117  1  0.31050210  0.81097622  0.31272245  1
  Zn  Zn118  1  0.31372894  0.80843090  0.81678312  1
  Zn  Zn119  1  0.81403622  0.31338932  0.31132518  1
  Zn  Zn120  1  0.80757016  0.31981242  0.80976798  1
  Zn  Zn121  1  0.81239299  0.81089185  0.31034620  1
  Zn  Zn122  1  0.81311977  0.81377826  0.80756718  1
  Zn  Zn123  1  0.18634992  0.44033087  0.43603326  1
  Zn  Zn124  1  0.18963398  0.44065270  0.93156971  1
  Zn  Zn125  1  0.18701957  0.93650626  0.43771078  1
  Zn  Zn126  1  0.18788323  0.93457932  0.94117508  1
  Zn  Zn127  1  0.68921460  0.43727451  0.43909314  1
  Zn  Zn128  1  0.69542014  0.44152400  0.93777087  1
  Zn  Zn129  1  0.67999587  0.94097391  0.43996646  1
  Zn  Zn130  1  0.68803057  0.93476425  0.93556006  1
  Zn  Zn131  1  0.31446804  0.06292493  0.06743236  1
  Zn  Zn132  1  0.31282629  0.06416827  0.56372639  1
  Zn  Zn133  1  0.30987072  0.54556514  0.06046775  1
  Zn  Zn134  1  0.30539862  0.56542045  0.56451519  1
  Zn  Zn135  1  0.81540060  0.06345399  0.06078206  1
  Zn  Zn136  1  0.80968090  0.06368397  0.56323438  1
  Zn  Zn137  1  0.81378363  0.56413186  0.05900699  1
  Zn  Zn138  1  0.80762380  0.56167276  0.55928218  1
  Zn  Zn139  1  0.44771087  0.44491560  0.18319086  1
  Zn  Zn140  1  0.43319296  0.43579121  0.69615650  1
  Zn  Zn141  1  0.44011038  0.93635319  0.18983954  1
  Zn  Zn142  1  0.43148910  0.92874871  0.68150263  1
  Zn  Zn143  1  0.94051241  0.43302087  0.18462430  1
  Zn  Zn144  1  0.93541775  0.43801355  0.69030333  1
  Zn  Zn145  1  0.93922605  0.93978558  0.18840563  1
  Zn  Zn146  1  0.93452410  0.93460740  0.69030097  1
  Zn  Zn147  1  0.06400976  0.06002978  0.31205952  1
  Zn  Zn148  1  0.06162949  0.06433387  0.81690799  1
  Zn  Zn149  1  0.05968606  0.55723808  0.31228545  1
  Zn  Zn150  1  0.06050186  0.56410086  0.81112072  1
  Zn  Zn151  1  0.56505576  0.06567154  0.31476586  1
  Zn  Zn152  1  0.56448963  0.06220730  0.81376145  1
  Zn  Zn153  1  0.55599138  0.56696847  0.30936772  1
  Zn  Zn154  1  0.56306840  0.56114932  0.81133557  1
  Zn  Zn155  1  0.43630994  0.19229744  0.44030802  1
  Zn  Zn156  1  0.43802588  0.18161685  0.94426884  1
  Zn  Zn157  1  0.42239131  0.71400386  0.42121286  1
  Zn  Zn158  1  0.44349579  0.67721513  0.92141012  1
  Zn  Zn159  1  0.93657807  0.18905315  0.44003310  1
  Zn  Zn160  1  0.93925135  0.17929813  0.93687953  1
  Zn  Zn161  1  0.93451809  0.68810536  0.43872682  1
  Zn  Zn162  1  0.94836157  0.68618985  0.94153375  1
  Zn  Zn163  1  0.06333194  0.31168099  0.06106644  1
  Zn  Zn164  1  0.05505468  0.31288710  0.56378414  1
  Zn  Zn165  1  0.06666337  0.80883058  0.06843407  1
  Zn  Zn166  1  0.06030900  0.81164040  0.56682499  1
  Zn  Zn167  1  0.56064575  0.31201481  0.06767685  1
  Zn  Zn168  1  0.55889329  0.31872819  0.56403285  1
  Zn  Zn169  1  0.57243952  0.81467213  0.05617831  1
  Zn  Zn170  1  0.55735463  0.81753258  0.56144907  1
  O  O171  1  0.12007537  0.11765923  0.12065407  1
  O  O172  1  0.12127547  0.11663327  0.62034790  1
  O  O173  1  0.12192736  0.60879214  0.11729433  1
  O  O174  1  0.11343036  0.61805363  0.61711974  1
  O  O175  1  0.61893889  0.11920718  0.11990037  1
  O  O176  1  0.63417833  0.11939856  0.61498006  1
  O  O177  1  0.61935089  0.62071505  0.11116218  1
  O  O178  1  0.62819162  0.61485511  0.61103069  1
  O  O179  1  0.37399676  0.38712710  0.38212109  1
  O  O180  1  0.38365374  0.40992059  0.84113763  1
  O  O181  1  0.38900093  0.83043229  0.38995901  1
  O  O182  1  0.38521068  0.88751457  0.87211694  1
  O  O183  1  0.87932599  0.38136990  0.38204446  1
  O  O184  1  0.87420516  0.38155341  0.88605273  1
  O  O185  1  0.87793037  0.87991592  0.38020931  1
  O  O186  1  0.87119611  0.88913467  0.87150179  1
  O  O187  1  0.24628467  0.00355990  0.36204895  1
  O  O188  1  0.25685850  0.00391185  0.87212509  1
  O  O189  1  0.25950838  0.50412185  0.36787521  1
  O  O190  1  0.25898242  0.50136900  0.86145835  1
  O  O191  1  0.75159635  0.00836618  0.36930021  1
  O  O192  1  0.75582503  0.00596036  0.86834344  1
  O  O193  1  0.75822528  0.51053799  0.37773759  1
  O  O194  1  0.76494973  0.50309527  0.86845798  1
  O  O195  1  0.24076567  0.49440376  0.13626263  1
  O  O196  1  0.23520381  0.49591614  0.63134699  1
  O  O197  1  0.24648724  0.99421957  0.13707557  1
  O  O198  1  0.23920768  1.00286881  0.63788166  1
  O  O199  1  0.73298623  0.50151178  0.11615202  1
  O  O200  1  0.74171995  0.49946338  0.63103026  1
  O  O201  1  0.74727077  1.00227800  0.13482282  1
  O  O202  1  0.74414232  0.99606100  0.63271340  1
  O  O203  1  0.00805973  0.37381245  0.25966489  1
  O  O204  1  0.01075604  0.36515605  0.74451194  1
  O  O205  1  0.00499911  0.86592000  0.25434921  1
  O  O206  1  0.00838429  0.86140841  0.74394152  1
  O  O207  1  0.51027453  0.37180999  0.25243790  1
  O  O208  1  0.52002033  0.38354090  0.74551845  1
  O  O209  1  0.50653740  0.86195347  0.24997768  1
  O  O210  1  0.49907609  0.86923573  0.75808997  1
  O  O211  1  0.49388357  0.13244402  0.24647940  1
  O  O212  1  0.50819849  0.13440494  0.75170770  1
  O  O213  1  0.49096715  0.63065467  0.23379017  1
  O  O214  1  0.50012762  0.63503319  0.74642174  1
  O  O215  1  1.00210399  0.12466322  0.23998638  1
  O  O216  1  0.99549750  0.13291047  0.74634147  1
  O  O217  1  0.99065698  0.63087388  0.25060008  1
  O  O218  1  1.00909910  0.64014114  0.74003168  1
  O  O219  1  0.36503720  0.24071336  0.01524190  1
  O  O220  1  0.36333496  0.25704399  0.50932054  1
  O  O221  1  0.40254033  0.70095549  0.02556793  1
  O  O222  1  0.36185491  0.73935621  0.51589473  1
  O  O223  1  0.88131396  0.26238712  -0.00346675  1
  O  O224  1  0.87993857  0.25784559  0.51458956  1
  O  O225  1  0.88073787  0.74032689  0.01783794  1
  O  O226  1  0.86447397  0.75715101  0.50089966  1
  O  O227  1  0.13186509  0.23955244  0.51146332  1
  O  O228  1  0.13578644  0.24586275  0.99511199  1
  O  O229  1  0.13068907  0.74127778  0.50298362  1
  O  O230  1  0.11673302  0.72853333  1.00282243  1
  O  O231  1  0.61894325  0.24879086  0.49018151  1
  O  O232  1  0.61990102  0.23428637  1.00456788  1
  O  O233  1  0.62643526  0.74350286  0.49104177  1
  O  O234  1  0.61926649  0.74123898  0.98063818  1
  O  O235  1  0.49127740  0.24360385  0.13156510  1
  O  O236  1  0.48004790  0.26066873  0.62383886  1
  O  O237  1  0.51110377  0.74363823  0.13068559  1
  O  O238  1  0.49053817  0.75211139  0.63500857  1
  O  O239  1  1.00190399  0.23698347  0.12448177  1
  O  O240  1  0.99238801  0.24421418  0.63781272  1
  O  O241  1  0.99078322  0.74614473  0.13630361  1
  O  O242  1  0.99711799  0.74244220  0.63484600  1
  O  O243  1  -0.00368661  0.26391570  0.37534632  1
  O  O244  1  0.01028572  0.24093880  0.86345947  1
  O  O245  1  -0.00191447  0.75477376  0.36435152  1
  O  O246  1  0.00602226  0.74355989  0.86177122  1
  O  O247  1  0.50885861  0.25462686  0.36970644  1
  O  O248  1  0.46105301  0.26253722  0.87363931  1
  O  O249  1  0.51724612  0.73589692  0.35650316  1
  O  O250  1  0.50141201  0.75515967  0.85839394  1
  O  O251  1  0.24185294  0.13337953  0.49743822  1
  O  O252  1  0.24571699  0.12338065  0.99092647  1
  O  O253  1  0.23503407  0.63277462  0.50057951  1
  O  O254  1  0.23643730  0.61879935  1.00897615  1
  O  O255  1  0.74008723  0.12290451  0.48885509  1
  O  O256  1  0.74202833  0.12510877  0.99391993  1
  O  O257  1  0.73852713  0.63019304  0.48950236  1
  O  O258  1  0.74003296  0.63437438  0.99970198  1
  O  O259  1  0.25074752  0.36482025  -0.00547367  1
  O  O260  1  0.24908884  0.37124593  0.50880898  1
  O  O261  1  0.25295652  0.88431043  0.01873526  1
  O  O262  1  0.24562176  0.86022894  0.50232949  1
  O  O263  1  0.76475675  0.37340931  -0.00046850  1
  O  O264  1  0.76544756  0.37765961  0.50245394  1
  O  O265  1  0.74228188  0.86310970  0.00111291  1
  O  O266  1  0.75272851  0.87153190  0.50514174  1
  O  O267  1  0.13112890  0.49335239  0.24354958  1
  O  O268  1  0.12920780  0.49319289  0.74403260  1
  O  O269  1  0.13436750  0.99281204  0.24478432  1
  O  O270  1  0.12860450  0.99537456  0.74723374  1
  O  O271  1  0.61224860  0.49605125  0.23727988  1
  O  O272  1  0.63154877  0.49683941  0.74270354  1
  O  O273  1  0.63302625  0.99620762  0.24485349  1
  O  O274  1  0.63999729  1.00613893  0.74330491  1
  O  O275  1  0.36699758  0.01042345  0.24607386  1
  O  O276  1  0.36534077  -0.00096460  0.75598893  1
  O  O277  1  0.37031517  0.50318835  0.25701173  1
  O  O278  1  0.35200228  0.50945968  0.73294517  1
  O  O279  1  0.86582787  0.00271402  0.25714519  1
  O  O280  1  0.86786934  0.00613206  0.75683692  1
  O  O281  1  0.87905611  0.50996498  0.25733715  1
  O  O282  1  0.87023986  0.49761752  0.76359799  1
  O  O283  1  0.11330885  0.38451443  0.36822611  1
  O  O284  1  0.13241235  0.36819991  0.86132374  1
  O  O285  1  0.11748753  0.87193763  0.36798322  1
  O  O286  1  0.12629180  0.87454019  0.86534589  1
  O  O287  1  0.62445549  0.37125705  0.36961342  1
  O  O288  1  0.62908359  0.38290092  0.86377118  1
  O  O289  1  0.62863264  0.86149360  0.36752856  1
  O  O290  1  0.61413677  0.85968758  0.87593867  1
  O  O291  1  0.38016385  0.13063093  0.13881877  1
  O  O292  1  0.36442194  0.14267899  0.63028753  1
  O  O293  1  0.37556709  0.60579310  0.13672240  1
  O  O294  1  0.37159730  0.63568537  0.62802850  1
  O  O295  1  0.88743286  0.12666465  0.12620298  1
  O  O296  1  0.87887388  0.13154393  0.63115785  1
  O  O297  1  0.87544803  0.63002981  0.13446717  1
  O  O298  1  0.88605424  0.62491885  0.61702046  1
  O  O299  1  0.25793157  0.24612797  0.11689656  1
  O  O300  1  0.25248149  0.25989165  0.61655423  1
  O  O301  1  0.25041072  0.76004032  0.11677259  1
  O  O302  1  0.25732184  0.74911280  0.62170938  1
  O  O303  1  0.75241469  0.25597230  0.11917551  1
  O  O304  1  0.76567346  0.25234581  0.63688823  1
  O  O305  1  0.76623920  0.75037098  0.12932034  1
  O  O306  1  0.74798566  0.75966431  0.62010666  1
  O  O307  1  0.25173912  0.24616299  0.39010274  1
  O  O308  1  0.25546372  0.24094887  0.88518773  1
  O  O309  1  0.24374134  0.74311858  0.38487244  1
  O  O310  1  0.25801745  0.75941033  0.89943505  1
  O  O311  1  0.73842935  0.24192783  0.36842880  1
  O  O312  1  0.75617010  0.23615964  0.87703093  1
  O  O313  1  0.74099284  0.74055898  0.37736522  1
  O  O314  1  0.73408895  0.75326172  0.86436374  1
  O  O315  1  0.00862411  0.11832020  0.00859257  1
  O  O316  1  0.00855882  0.12392532  0.50724232  1
  O  O317  1  0.01114648  0.60913908  0.00346563  1
  O  O318  1  0.00846225  0.63343601  0.50941304  1
  O  O319  1  0.50755142  0.11336040  0.00546190  1
  O  O320  1  0.51215859  0.12684950  0.49768314  1
  O  O321  1  0.51677813  0.61377488  -0.00344646  1
  O  O322  1  0.51041118  0.62006441  0.49026453  1
  O  O323  1  0.49062573  0.39019944  0.49735492  1
  O  O324  1  0.50749847  0.38848128  1.00103717  1
  O  O325  1  0.49962906  0.88270349  0.49288060  1
  O  O326  1  0.50535922  0.88619152  0.99133295  1
  O  O327  1  0.98768681  0.37384803  0.49309995  1
  O  O328  1  0.99078000  0.38403132  1.00074295  1
  O  O329  1  0.99285858  0.87527673  0.49471691  1
  O  O330  1  1.00870595  0.88721981  1.00670136  1
  O  O331  1  0.48800146  0.50279967  0.38320200  1
  O  O332  1  0.49770650  0.50282695  0.88685028  1
  O  O333  1  0.50099733  0.99868911  0.37250393  1
  O  O334  1  0.49597094  0.99269460  0.88019713  1
  O  O335  1  0.98719106  0.48952457  0.37251086  1
  O  O336  1  0.98765369  0.50301221  0.88044248  1
  O  O337  1  0.99264078  0.99304136  0.37610117  1
  O  O338  1  0.99081254  1.00724783  0.88509697  1
  O  O339  1  0.00560698  0.00670357  0.11877099  1
  O  O340  1  0.00879952  0.00548926  0.62779507  1
  O  O341  1  0.00813862  0.49958668  0.11438811  1
  O  O342  1  0.00894578  0.50961826  0.63572818  1
  O  O343  1  0.50467386  0.00343161  0.11901945  1
  O  O344  1  0.51554084  -0.00510290  0.63513658  1
  O  O345  1  0.50348783  0.51412175  0.10572143  1
  O  O346  1  0.50490129  0.49978078  0.61402168  1
  O  O347  1  0.23989734  0.38533931  0.26132510  1
  O  O348  1  0.23646109  0.38464874  0.73583855  1
  O  O349  1  0.24752693  0.87943239  0.24429493  1
  O  O350  1  0.24115931  0.88673718  0.75242184  1
  O  O351  1  0.73461199  0.37627574  0.25006926  1
  O  O352  1  0.73932473  0.38967523  0.74654406  1
  O  O353  1  0.74579085  0.88790143  0.25060495  1
  O  O354  1  0.75494491  0.88679311  0.73854381  1
  O  O355  1  0.25559656  0.11750033  0.25558814  1
  O  O356  1  0.24517255  0.11361058  0.76316342  1
  O  O357  1  0.25657901  0.61345794  0.24840922  1
  O  O358  1  0.23346498  0.61454895  0.74689399  1
  O  O359  1  0.74662213  0.11483512  0.26117088  1
  O  O360  1  0.75464922  0.11785703  0.75892012  1
  O  O361  1  0.75821592  0.63017140  0.25981956  1
  O  O362  1  0.74554760  0.61401013  0.74392238  1
  O  O363  1  0.36822320  0.13391306  0.36353603  1
  O  O364  1  0.36694142  0.11085369  0.87072822  1
  O  O365  1  0.37404386  0.61801411  0.36277724  1
  O  O366  1  0.38322999  0.60333927  0.85956670  1
  O  O367  1  0.86564194  0.12068861  0.37706756  1
  O  O368  1  0.86584793  0.11595984  0.87125901  1
  O  O369  1  0.86809545  0.61803343  0.37033659  1
  O  O370  1  0.87618519  0.61631118  0.87992394  1
  O  O371  1  0.11746011  0.38460613  0.13581467  1
  O  O372  1  0.12648195  0.38209646  0.62940398  1
  O  O373  1  0.13609405  0.87857277  0.13265539  1
  O  O374  1  0.12697329  0.88632087  0.63431943  1
  O  O375  1  0.62318017  0.38677776  0.13233165  1
  O  O376  1  0.62763614  0.39124262  0.62328891  1
  O  O377  1  0.62854608  0.88265437  0.13203845  1
  O  O378  1  0.63781673  0.88621459  0.61721867  1
  O  O379  1  0.12682684  0.26349055  0.24661780  1
  O  O380  1  0.12059406  0.25624178  0.75282622  1
  O  O381  1  0.11499088  0.75005902  0.24747862  1
  O  O382  1  0.11940199  0.75930901  0.75523910  1
  O  O383  1  0.61858007  0.25962012  0.25816005  1
  O  O384  1  0.62764760  0.27057412  0.74606103  1
  O  O385  1  0.62152095  0.75258472  0.25205655  1
  O  O386  1  0.61070266  0.74588134  0.75663169  1
  O  O387  1  0.37769787  0.24292487  0.24550435  1
  O  O388  1  0.36488145  0.25665218  0.73396511  1
  O  O389  1  0.38494319  0.73588548  0.25015396  1
  O  O390  1  0.38446468  0.75198289  0.74084160  1
  O  O391  1  0.88084256  0.24747851  0.24692429  1
  O  O392  1  0.88351914  0.24777755  0.74747379  1
  O  O393  1  0.88228700  0.73963995  0.24422580  1
  O  O394  1  0.89036439  0.75376296  0.74932050  1
  O  O395  1  0.37675481  0.50127925  0.49534335  1
  O  O396  1  0.38574425  0.49880327  0.98735871  1
  O  O397  1  0.37532969  0.99547772  0.50742652  1
  O  O398  1  0.38704218  1.00778690  0.99171245  1
  O  O399  1  0.87282263  0.49344142  0.48970566  1
  O  O400  1  0.88078551  0.49529093  0.98851398  1
  O  O401  1  0.87528682  0.99394981  0.49459491  1
  O  O402  1  0.88526150  1.00339180  0.99232504  1
  O  O403  1  0.11836407  0.00553519  0.00446849  1
  O  O404  1  0.12620961  0.00834752  0.51164153  1
  O  O405  1  0.12089188  0.50054040  0.00401045  1
  O  O406  1  0.12849606  0.50867926  0.51130137  1
  O  O407  1  0.61738719  0.00722553  0.00529045  1
  O  O408  1  0.62229761  0.01266163  0.50997466  1
  O  O409  1  0.61886024  0.50572079  0.00111640  1
  O  O410  1  0.61645189  0.50666856  0.50377337  1
  O  O411  1  0.38073883  0.36296696  0.13374769  1
  O  O412  1  0.36229004  0.37228590  0.62062549  1
  O  O413  1  0.36285132  0.87530858  0.13223977  1
  O  O414  1  0.36870790  0.85796666  0.62008044  1
  O  O415  1  0.87389970  0.37726870  0.10962604  1
  O  O416  1  0.87639554  0.36900816  0.61940825  1
  O  O417  1  0.87594431  0.85918635  0.13301969  1
  O  O418  1  0.86222024  0.87562692  0.61807727  1
  O  O419  1  0.13000570  0.11843617  0.38968778  1
  O  O420  1  0.13653079  0.13166214  0.88011444  1
  O  O421  1  0.12107276  0.62286175  0.38538429  1
  O  O422  1  0.12485754  0.62019447  0.89087544  1
  O  O423  1  0.63102853  0.13602417  0.38370955  1
  O  O424  1  0.63634106  0.11725768  0.88676843  1
  O  O425  1  0.63180782  0.62884997  0.37766324  1
  O  O426  1  0.62019178  0.63844434  0.87765795  1
