# generated using pymatgen
data_V85Zn86O256
_symmetry_space_group_name_H-M   'P 1'
_cell_length_a   16.98435969
_cell_length_b   16.97082727
_cell_length_c   16.97460496
_cell_angle_alpha   90.14982201
_cell_angle_beta   89.96783596
_cell_angle_gamma   89.77761525
_symmetry_Int_Tables_number   1
_chemical_formula_structural   V85Zn86O256
_chemical_formula_sum   'V85 Zn86 O256'
_cell_volume   4892.68257599
_cell_formula_units_Z   1
loop_
 _symmetry_equiv_pos_site_id
 _symmetry_equiv_pos_as_xyz
  1  'x, y, z'
loop_
 _atom_site_type_symbol
 _atom_site_label
 _atom_site_symmetry_multiplicity
 _atom_site_fract_x
 _atom_site_fract_y
 _atom_site_fract_z
 _atom_site_occupancy
  V  V0  1  0.37518063  0.24461613  0.11991140  1
  V  V1  1  0.49796678  0.49331568  -0.00266396  1
  V  V2  1  0.12437493  -0.00013272  0.12424911  1
  V  V3  1  0.75009033  0.25205603  0.00545305  1
  V  V4  1  0.87120092  0.37489646  0.00752688  1
  V  V5  1  0.50107550  0.00875005  0.49148901  1
  V  V6  1  0.87975487  0.74969103  0.62546068  1
  V  V7  1  0.86900405  0.62189678  0.25119249  1
  V  V8  1  0.25152715  0.50402869  0.75765201  1
  V  V9  1  0.12558705  0.50019245  0.62347294  1
  V  V10  1  0.87445461  0.24902272  0.62899347  1
  V  V11  1  0.12988707  0.63522227  -0.00719566  1
  V  V12  1  0.00062272  0.37320958  0.87668503  1
  V  V13  1  0.12713709  0.37697458  0.24908683  1
  V  V14  1  0.12410739  0.62638371  0.49948709  1
  V  V15  1  0.25551111  0.37167792  0.62608695  1
  V  V16  1  0.87482113  0.37729008  0.50102105  1
  V  V17  1  0.25347879  0.25073984  0.50078256  1
  V  V18  1  0.76168132  0.11324689  0.86523836  1
  V  V19  1  0.87868176  0.88210477  -0.00811855  1
  V  V20  1  0.37305631  0.88365673  0.50649068  1
  V  V21  1  0.62233227  0.00800513  0.62274940  1
  V  V22  1  0.00152704  0.24913175  0.24925149  1
  V  V23  1  -0.00027201  0.12527648  0.62310628  1
  V  V24  1  0.36897710  0.13327346  0.74637836  1
  V  V25  1  0.87664537  0.75218604  0.13338594  1
  V  V26  1  0.26464748  0.62425425  0.37152977  1
  V  V27  1  0.12658762  0.50201326  0.12524562  1
  V  V28  1  0.49665936  0.62585328  0.13394821  1
  V  V29  1  0.00221769  0.62966956  0.13383091  1
  V  V30  1  0.86746617  0.50058333  0.37297425  1
  V  V31  1  -0.00065968  0.50055023  0.50017968  1
  V  V32  1  0.00227083  0.74842551  0.77411158  1
  V  V33  1  0.37391531  0.74758487  0.13483965  1
  V  V34  1  0.87201894  0.62372141  0.75026378  1
  V  V35  1  0.74870479  0.75080807  0.00030363  1
  V  V36  1  0.49838217  0.25090109  0.74537818  1
  V  V37  1  0.87234748  0.00078769  0.37282821  1
  V  V38  1  0.62054755  0.25285376  0.87577060  1
  V  V39  1  0.37927246  0.63109067  0.73741832  1
  V  V40  1  0.74653422  0.50128784  0.75138160  1
  V  V41  1  0.25559867  0.75507603  0.51343564  1
  V  V42  1  -0.00258009  0.12310250  0.12285768  1
  V  V43  1  -0.00353246  0.24787535  0.74944975  1
  V  V44  1  0.62542416  0.88154270  0.74941417  1
  V  V45  1  0.61992361  -0.00053150  0.12579455  1
  V  V46  1  0.12105635  0.74864345  0.36781642  1
  V  V47  1  0.49353453  0.37911371  0.36975779  1
  V  V48  1  0.49923134  0.87239044  0.87269182  1
  V  V49  1  0.87555424  0.87606661  0.50006363  1
  V  V50  1  0.87266504  0.12554855  0.24940403  1
  V  V51  1  0.74847995  0.74951932  0.49937653  1
  V  V52  1  0.36481366  0.00501728  0.87284584  1
  V  V53  1  0.62480124  0.62664635  0.00230907  1
  V  V54  1  -0.00106157  0.87060133  0.36645526  1
  V  V55  1  0.36996623  0.86579568  -0.00308403  1
  V  V56  1  0.00153445  0.00299399  0.49695964  1
  V  V57  1  0.63688848  0.49918974  0.13016827  1
  V  V58  1  0.49852988  0.24717176  0.24249520  1
  V  V59  1  0.49543151  0.50305105  0.49737088  1
  V  V60  1  0.74409351  0.87598254  0.12791759  1
  V  V61  1  0.24682425  -0.00372013  0.74147751  1
  V  V62  1  0.24906321  0.86954995  0.12107582  1
  V  V63  1  0.12570045  0.37625663  0.75063129  1
  V  V64  1  0.37454115  0.12276254  0.25048801  1
  V  V65  1  0.87319196  0.49797801  0.87547650  1
  V  V66  1  0.74417053  0.00043090  0.24889839  1
  V  V67  1  0.61990321  0.75971787  0.37015148  1
  V  V68  1  0.49770653  0.75058892  0.72962013  1
  V  V69  1  0.24749968  0.24522820  -0.00751428  1
  V  V70  1  0.61793863  0.50620644  0.62579129  1
  V  V71  1  0.25429314  -0.00106698  0.25467174  1
  V  V72  1  0.61619031  0.37860712  0.75746952  1
  V  V73  1  0.74817600  0.37687938  0.62716991  1
  V  V74  1  0.61854133  0.62714975  0.50231403  1
  V  V75  1  0.49705448  0.00301761  0.00154623  1
  V  V76  1  0.74905768  0.62661895  0.87705037  1
  V  V77  1  0.12732820  0.24817476  0.37453390  1
  V  V78  1  0.26546043  0.50301540  0.25321219  1
  V  V79  1  0.63671567  0.37753875  0.24762503  1
  V  V80  1  0.37451358  0.37681333  0.49778666  1
  V  V81  1  0.62250692  0.12364941  0.00035796  1
  V  V82  1  0.12601891  0.12114434  -0.00916611  1
  V  V83  1  0.74147358  0.24468793  0.50012607  1
  V  V84  1  0.75183482  0.88331333  0.63038446  1
  Zn  Zn85  1  0.62532588  0.75101472  0.87251671  1
  Zn  Zn86  1  0.48428280  -0.11259983  0.36327007  1
  Zn  Zn87  1  0.00079954  0.50115551  0.00106934  1
  Zn  Zn88  1  0.50160710  0.13251883  0.61912663  1
  Zn  Zn89  1  0.12868910  0.23762294  0.86865964  1
  Zn  Zn90  1  0.25454154  0.11731140  0.37847463  1
  Zn  Zn91  1  -0.00018307  0.37589881  0.37549769  1
  Zn  Zn92  1  0.37476482  0.36967306  -0.00850148  1
  Zn  Zn93  1  0.25436432  0.37635431  0.12235159  1
  Zn  Zn94  1  0.74424474  0.62092109  0.36931783  1
  Zn  Zn95  1  -0.00010025  0.62479648  0.62732075  1
  Zn  Zn96  1  0.38247719  0.49981791  0.87224695  1
  Zn  Zn97  1  0.12302053  0.87133898  0.24694220  1
  Zn  Zn98  1  0.13643456  -0.00831936  0.61719638  1
  Zn  Zn99  1  0.00387607  -0.00966749  -0.01057292  1
  Zn  Zn100  1  0.12867697  0.86212415  0.74916409  1
  Zn  Zn101  1  0.26199188  0.65197871  0.88149916  1
  Zn  Zn102  1  0.61849115  0.24686615  0.37881275  1
  Zn  Zn103  1  0.86858553  0.25605836  0.12964244  1
  Zn  Zn104  1  0.12903565  0.12395308  0.49897406  1
  Zn  Zn105  1  0.74224591  0.12103504  0.38214128  1
  Zn  Zn106  1  0.50368806  0.75967021  0.24851957  1
  Zn  Zn107  1  0.19052799  0.18563246  0.18265404  1
  Zn  Zn108  1  0.18338974  0.18534361  0.68586688  1
  Zn  Zn109  1  0.19194376  0.68533712  0.18810275  1
  Zn  Zn110  1  0.18656781  0.68512605  0.69388766  1
  Zn  Zn111  1  0.68198759  0.18541360  0.18771073  1
  Zn  Zn112  1  0.68869419  0.18840146  0.69072617  1
  Zn  Zn113  1  0.68762083  0.68597198  0.18648435  1
  Zn  Zn114  1  0.68617288  0.69234948  0.68761723  1
  Zn  Zn115  1  0.31309818  0.31274317  0.31115146  1
  Zn  Zn116  1  0.31513235  0.31781036  0.81903075  1
  Zn  Zn117  1  0.31083437  0.81394134  0.31692866  1
  Zn  Zn118  1  0.31519660  0.81616579  0.80395933  1
  Zn  Zn119  1  0.81581555  0.31155467  0.31702671  1
  Zn  Zn120  1  0.80764670  0.31034681  0.81724494  1
  Zn  Zn121  1  0.80854290  0.81376272  0.31269294  1
  Zn  Zn122  1  0.81430847  0.81324742  0.81135777  1
  Zn  Zn123  1  0.18948957  0.43972031  0.43378097  1
  Zn  Zn124  1  0.18730323  0.43464436  0.94033306  1
  Zn  Zn125  1  0.18611539  0.93202088  0.43593762  1
  Zn  Zn126  1  0.18045915  0.82126503  0.93719739  1
  Zn  Zn127  1  0.68425325  0.43255026  0.43669181  1
  Zn  Zn128  1  0.68625088  0.43906988  0.94181676  1
  Zn  Zn129  1  0.68569139  0.93921716  0.43979017  1
  Zn  Zn130  1  0.68988784  0.93723307  0.93694914  1
  Zn  Zn131  1  0.30951533  0.06115796  0.06316379  1
  Zn  Zn132  1  0.31945034  0.06807241  0.56424139  1
  Zn  Zn133  1  0.31162987  0.56573512  0.06351151  1
  Zn  Zn134  1  0.30999611  0.56217293  0.56219638  1
  Zn  Zn135  1  0.81066754  0.06398599  0.05731301  1
  Zn  Zn136  1  0.81593937  0.06375279  0.56644887  1
  Zn  Zn137  1  0.81527751  0.56314991  0.06225173  1
  Zn  Zn138  1  0.80853517  0.56355533  0.56219578  1
  Zn  Zn139  1  0.44266161  0.43215908  0.17634775  1
  Zn  Zn140  1  0.43493340  0.43972807  0.68628056  1
  Zn  Zn141  1  0.43634976  0.93454979  0.18763120  1
  Zn  Zn142  1  0.43666029  0.94148113  0.68244689  1
  Zn  Zn143  1  0.94052389  0.44079720  0.19022961  1
  Zn  Zn144  1  0.93760235  0.43743911  0.68706075  1
  Zn  Zn145  1  0.93293748  0.93926626  0.18482215  1
  Zn  Zn146  1  0.95724102  0.93396977  0.69013657  1
  Zn  Zn147  1  0.06440889  0.06207119  0.31017694  1
  Zn  Zn148  1  0.04901978  0.04615294  0.80896091  1
  Zn  Zn149  1  0.06047633  0.56215580  0.31443527  1
  Zn  Zn150  1  0.05977855  0.56230176  0.81213740  1
  Zn  Zn151  1  0.56442081  0.06973525  0.31190891  1
  Zn  Zn152  1  0.55962977  0.06629833  0.81439044  1
  Zn  Zn153  1  0.56310448  0.56380951  0.31450889  1
  Zn  Zn154  1  0.56001186  0.56956061  0.81404100  1
  Zn  Zn155  1  0.43560515  0.19048221  0.43166456  1
  Zn  Zn156  1  0.43671864  0.18681478  0.93140577  1
  Zn  Zn157  1  0.43789220  0.69453290  0.44275967  1
  Zn  Zn158  1  0.43937207  0.68170895  0.93532061  1
  Zn  Zn159  1  0.93364050  0.18890697  0.43614004  1
  Zn  Zn160  1  0.93781515  0.18662622  0.93918486  1
  Zn  Zn161  1  0.93752467  0.68631973  0.43615450  1
  Zn  Zn162  1  0.93424970  0.68374871  0.94908888  1
  Zn  Zn163  1  0.06389447  0.30989337  0.06194736  1
  Zn  Zn164  1  0.06449824  0.31462440  0.56198026  1
  Zn  Zn165  1  0.05782758  0.81092739  0.06801560  1
  Zn  Zn166  1  0.06759331  0.81657969  0.56276285  1
  Zn  Zn167  1  0.56588757  0.31299306  0.06680139  1
  Zn  Zn168  1  0.56057799  0.31990357  0.56645516  1
  Zn  Zn169  1  0.55853716  0.81267787  0.06194730  1
  Zn  Zn170  1  0.56190279  0.82437412  0.55618214  1
  O  O171  1  0.11527582  0.11914624  0.11988894  1
  O  O172  1  0.11107832  0.12164867  0.61907795  1
  O  O173  1  0.12028581  0.62141114  0.12118575  1
  O  O174  1  0.12621890  0.61983730  0.61270319  1
  O  O175  1  0.62790478  0.11385542  0.10981780  1
  O  O176  1  0.62519088  0.11151409  0.63282072  1
  O  O177  1  0.61795396  0.61927053  0.12212554  1
  O  O178  1  0.62932986  0.61672413  0.61621541  1
  O  O179  1  0.38282176  0.37513206  0.38344448  1
  O  O180  1  0.37687311  0.38659454  0.88003187  1
  O  O181  1  0.37444089  0.86484015  0.39502485  1
  O  O182  1  0.38161195  0.88344698  0.87971862  1
  O  O183  1  0.87798474  0.38423153  0.38132244  1
  O  O184  1  0.88170141  0.37808153  0.88260414  1
  O  O185  1  0.88020513  0.87907732  0.37944546  1
  O  O186  1  0.86894725  0.86901333  0.89370240  1
  O  O187  1  0.24190862  -0.00172760  0.35933334  1
  O  O188  1  0.26488541  0.00279089  0.85992217  1
  O  O189  1  0.24803815  0.51552329  0.36955940  1
  O  O190  1  0.24430070  0.49908152  0.86018898  1
  O  O191  1  0.75227984  -0.00232683  0.36569395  1
  O  O192  1  0.74579128  0.01378488  0.87689708  1
  O  O193  1  0.76285972  0.50169891  0.38521391  1
  O  O194  1  0.75298920  0.50584367  0.87055933  1
  O  O195  1  0.24068374  0.50302523  0.13479978  1
  O  O196  1  0.24512613  0.49203302  0.63323383  1
  O  O197  1  0.24333379  0.98984069  0.13168355  1
  O  O198  1  0.25247940  1.00796054  0.63594840  1
  O  O199  1  0.73614497  0.50604553  0.12209599  1
  O  O200  1  0.73885416  0.49705015  0.63104501  1
  O  O201  1  0.74154277  0.99410161  0.12870510  1
  O  O202  1  0.74301254  0.98932868  0.61650793  1
  O  O203  1  0.01212192  0.36939876  0.25059811  1
  O  O204  1  0.00457239  0.36861205  0.75606970  1
  O  O205  1  -0.00108028  0.88154193  0.26291590  1
  O  O206  1  -0.01197561  0.84643657  0.75728971  1
  O  O207  1  0.50137323  0.36811224  0.25616449  1
  O  O208  1  0.50954469  0.37077423  0.74583685  1
  O  O209  1  0.50128447  0.87415703  0.25343108  1
  O  O210  1  0.50306519  0.86913101  0.75418317  1
  O  O211  1  0.49091284  0.13916033  0.25253907  1
  O  O212  1  0.49455643  0.13552626  0.74785805  1
  O  O213  1  0.50512407  0.62795627  0.23726225  1
  O  O214  1  0.48856421  0.63460035  0.75103248  1
  O  O215  1  0.99396455  0.12884997  0.24274075  1
  O  O216  1  1.00780844  0.14462841  0.73865879  1
  O  O217  1  0.99044960  0.62240031  0.24093020  1
  O  O218  1  0.99119175  0.63231605  0.74738091  1
  O  O219  1  0.36746508  0.24294453  0.00343428  1
  O  O220  1  0.36418320  0.26293097  0.49462696  1
  O  O221  1  0.38131569  0.76265783  0.00417001  1
  O  O222  1  0.35999897  0.75307248  0.50483826  1
  O  O223  1  0.86686379  0.25804501  0.00255472  1
  O  O224  1  0.86779518  0.25748669  0.51037903  1
  O  O225  1  0.86749483  0.75611331  0.01478704  1
  O  O226  1  0.86596356  0.75381138  0.50528522  1
  O  O227  1  0.13420245  0.25276069  0.49023210  1
  O  O228  1  0.12978919  0.23898804  0.99698239  1
  O  O229  1  0.13383806  0.74533226  0.49217350  1
  O  O230  1  0.12236003  0.74029488  1.00275741  1
  O  O231  1  0.63874430  0.25934306  0.50475264  1
  O  O232  1  0.62798583  0.24448598  0.99549371  1
  O  O233  1  0.62938455  0.74530572  0.49581398  1
  O  O234  1  0.63120630  0.74537855  0.99987399  1
  O  O235  1  0.49065042  0.25451578  0.13286077  1
  O  O236  1  0.50696150  0.25056795  0.63922750  1
  O  O237  1  0.49305446  0.74359741  0.12628081  1
  O  O238  1  0.50532060  0.75608092  0.63104870  1
  O  O239  1  1.00033585  0.23769861  0.13012260  1
  O  O240  1  0.99343270  0.24781096  0.62856580  1
  O  O241  1  0.98802330  0.74135304  0.12628089  1
  O  O242  1  0.98438144  0.74774280  0.61785732  1
  O  O243  1  0.00989261  0.25153822  0.36894948  1
  O  O244  1  -0.00170480  0.25850699  0.86640408  1
  O  O245  1  0.00798795  0.76037220  0.38349654  1
  O  O246  1  -0.00423452  0.74085644  0.87304915  1
  O  O247  1  0.49875798  0.26232490  0.36452998  1
  O  O248  1  0.51413105  0.24705404  0.86640761  1
  O  O249  1  0.51402441  0.74814908  0.37574450  1
  O  O250  1  0.50021971  0.76414344  0.87040308  1
  O  O251  1  0.25178724  0.13654349  0.49852836  1
  O  O252  1  0.23668140  0.13141365  1.00575387  1
  O  O253  1  0.24390268  0.63189048  0.49095692  1
  O  O254  1  0.23452862  0.62282243  0.99779449  1
  O  O255  1  0.75434500  0.14158046  0.50507004  1
  O  O256  1  0.74042912  0.13177694  0.99109298  1
  O  O257  1  0.73955638  0.63648777  0.50048738  1
  O  O258  1  0.74560873  0.63101092  0.99678601  1
  O  O259  1  0.24808385  0.36188698  0.00409133  1
  O  O260  1  0.25623076  0.37323291  0.50514503  1
  O  O261  1  0.25743530  0.87615004  0.01009905  1
  O  O262  1  0.25650120  0.86414748  0.49889264  1
  O  O263  1  0.76000985  0.36554644  -0.00673727  1
  O  O264  1  0.75446588  0.36824840  0.50834261  1
  O  O265  1  0.75860389  0.87232388  0.00969255  1
  O  O266  1  0.75422306  0.86734171  0.50891430  1
  O  O267  1  0.13051827  0.49472988  0.24443648  1
  O  O268  1  0.13199193  0.49782177  0.74386726  1
  O  O269  1  0.13352247  0.99946364  0.23866637  1
  O  O270  1  0.14639651  1.01466921  0.74902791  1
  O  O271  1  0.62060426  0.48612550  0.24646639  1
  O  O272  1  0.62468000  0.49777099  0.74527869  1
  O  O273  1  0.63115916  1.00881559  0.23535838  1
  O  O274  1  0.61265329  0.98713834  0.74119372  1
  O  O275  1  0.36559544  0.01079791  0.23828733  1
  O  O276  1  0.36964388  0.00930444  0.75277787  1
  O  O277  1  0.36316464  0.49093184  0.24088747  1
  O  O278  1  0.36926841  0.51206506  0.74879538  1
  O  O279  1  0.86408913  0.00554085  0.25349319  1
  O  O280  1  0.94928192  0.00979550  0.77233813  1
  O  O281  1  0.87986518  0.50792320  0.26130616  1
  O  O282  1  0.86679116  0.50344367  0.75427971  1
  O  O283  1  0.12478846  0.36808857  0.36570217  1
  O  O284  1  0.11263852  0.37522732  0.86989837  1
  O  O285  1  0.11612723  0.86562808  0.37195834  1
  O  O286  1  0.11159137  0.89021422  0.86723559  1
  O  O287  1  0.61460781  0.37128425  0.36370198  1
  O  O288  1  0.63082488  0.36776208  0.86605842  1
  O  O289  1  0.62305236  0.86043346  0.38334948  1
  O  O290  1  0.61716107  0.87630054  0.86666143  1
  O  O291  1  0.37081815  0.13563532  0.13293725  1
  O  O292  1  0.38299366  0.12438799  0.64265356  1
  O  O293  1  0.38327757  0.63817462  0.11720112  1
  O  O294  1  0.37140590  0.62279621  0.63835416  1
  O  O295  1  0.88375973  0.12465038  0.12885830  1
  O  O296  1  0.88593956  0.13861646  0.62120595  1
  O  O297  1  0.88184869  0.63069533  0.13136451  1
  O  O298  1  0.87155599  0.63396960  0.63066522  1
  O  O299  1  0.25753263  0.25150560  0.11480301  1
  O  O300  1  0.24084979  0.26204126  0.61364686  1
  O  O301  1  0.25717044  0.76054368  0.12999967  1
  O  O302  1  0.23976646  0.74670766  0.61097313  1
  O  O303  1  0.74850710  0.24323900  0.10981338  1
  O  O304  1  0.75608774  0.25545880  0.62007185  1
  O  O305  1  0.75428972  0.75840759  0.12197061  1
  O  O306  1  0.75762547  0.75925699  0.61807503  1
  O  O307  1  0.24203850  0.25300337  0.38362492  1
  O  O308  1  0.24643245  0.25090103  0.88672741  1
  O  O309  1  0.24110205  0.73776576  0.38193703  1
  O  O310  1  0.23892279  0.76052439  0.86324417  1
  O  O311  1  0.75198018  0.25289713  0.39451066  1
  O  O312  1  0.73833287  0.24335339  0.88485950  1
  O  O313  1  0.74121032  0.75092622  0.38644348  1
  O  O314  1  0.74915127  0.74422033  0.88181724  1
  O  O315  1  0.00426767  0.11731057  0.00828119  1
  O  O316  1  0.00072327  0.11948852  0.50297336  1
  O  O317  1  0.00995435  0.62206664  0.01483387  1
  O  O318  1  0.00994183  0.62064623  0.50181516  1
  O  O319  1  0.50917801  0.11252224  -0.01025428  1
  O  O320  1  0.48705182  0.11337754  0.50141451  1
  O  O321  1  0.50713829  0.61906863  0.01112785  1
  O  O322  1  0.50835395  0.61659970  0.49519806  1
  O  O323  1  0.49319448  0.38067699  0.49204529  1
  O  O324  1  0.50467054  0.39106316  1.00653817  1
  O  O325  1  0.48820804  0.88693497  0.49394212  1
  O  O326  1  0.49183036  0.88272762  0.99138164  1
  O  O327  1  0.99356665  0.38230884  0.49982785  1
  O  O328  1  0.99328783  0.37373101  0.99078579  1
  O  O329  1  0.99468484  0.88508542  0.48948036  1
  O  O330  1  0.98213886  0.87315888  1.01038574  1
  O  O331  1  0.50579753  0.49061514  0.38597931  1
  O  O332  1  0.50570056  0.50768736  0.89474968  1
  O  O333  1  0.50739272  1.00300558  0.38830970  1
  O  O334  1  0.49454784  0.98900330  0.88140787  1
  O  O335  1  0.98940649  0.49935114  0.38281201  1
  O  O336  1  0.99251844  0.48843591  0.87479452  1
  O  O337  1  0.99450201  0.99507111  0.38025106  1
  O  O338  1  1.05383083  0.94796605  0.88176424  1
  O  O339  1  0.00747286  0.00894735  0.12958423  1
  O  O340  1  -0.01004706  0.01258406  0.60663157  1
  O  O341  1  0.01150529  0.50992773  0.12615956  1
  O  O342  1  0.00676937  0.50219710  0.61945275  1
  O  O343  1  0.50717110  -0.00824122  0.11064381  1
  O  O344  1  0.50776413  0.00262382  0.61289089  1
  O  O345  1  0.50909826  0.50878226  0.11805191  1
  O  O346  1  0.51038399  0.49345600  0.61306301  1
  O  O347  1  0.24069769  0.38367126  0.24953219  1
  O  O348  1  0.24725409  0.38165193  0.74237682  1
  O  O349  1  0.25023090  0.88216353  0.23985043  1
  O  O350  1  0.24789544  0.89229505  0.74688283  1
  O  O351  1  0.73471713  0.36727372  0.25632499  1
  O  O352  1  0.73872564  0.38135190  0.74731647  1
  O  O353  1  0.75325255  0.88784643  0.23949714  1
  O  O354  1  0.73983918  0.86852198  0.73996259  1
  O  O355  1  0.25613867  0.11583786  0.24819209  1
  O  O356  1  0.26485352  0.12622321  0.74674572  1
  O  O357  1  0.24881376  0.61875794  0.26414031  1
  O  O358  1  0.26090695  0.62012762  0.75351898  1
  O  O359  1  0.75492718  0.11380102  0.24479294  1
  O  O360  1  0.74897594  0.13159715  0.76634364  1
  O  O361  1  0.76398522  0.62572062  0.25031866  1
  O  O362  1  0.75180631  0.62124486  0.75577926  1
  O  O363  1  0.36952075  0.13319923  0.35621475  1
  O  O364  1  0.38502845  0.11409778  0.85938909  1
  O  O365  1  0.36243234  0.63107283  0.37990664  1
  O  O366  1  0.37291273  0.61905582  0.86613290  1
  O  O367  1  0.86781574  0.11933557  0.36784540  1
  O  O368  1  0.86021605  0.12835138  0.88220558  1
  O  O369  1  0.87283266  0.61970823  0.36785966  1
  O  O370  1  0.86855824  0.61747853  0.87264489  1
  O  O371  1  0.12448555  0.38419856  0.13329757  1
  O  O372  1  0.13448578  0.38113899  0.62994786  1
  O  O373  1  0.13116648  0.87988799  0.12600043  1
  O  O374  1  0.09407427  0.89017642  0.64275493  1
  O  O375  1  0.62178754  0.38368308  0.13966680  1
  O  O376  1  0.62890089  0.38721144  0.63579086  1
  O  O377  1  0.63500394  0.88519775  0.11538304  1
  O  O378  1  0.63292671  0.88379708  0.63033719  1
  O  O379  1  0.12446776  0.25746368  0.25499097  1
  O  O380  1  0.11732308  0.25798270  0.75130049  1
  O  O381  1  0.12890202  0.74909898  0.26369243  1
  O  O382  1  0.10582573  0.74368219  0.74929316  1
  O  O383  1  0.61429889  0.26251630  0.24311152  1
  O  O384  1  0.61916645  0.25997972  0.75695048  1
  O  O385  1  0.63016730  0.74480483  0.26819357  1
  O  O386  1  0.61544078  0.76156666  0.75003692  1
  O  O387  1  0.37860148  0.24595348  0.23978216  1
  O  O388  1  0.38333547  0.24046797  0.75988561  1
  O  O389  1  0.37650108  0.75488518  0.23741448  1
  O  O390  1  0.38265562  0.73930158  0.74928335  1
  O  O391  1  0.88112239  0.24547405  0.24816368  1
  O  O392  1  0.88228683  0.26171871  0.73840454  1
  O  O393  1  0.86840118  0.74310367  0.24001150  1
  O  O394  1  0.88012731  0.74188363  0.74349919  1
  O  O395  1  0.38469844  0.49136049  0.50563142  1
  O  O396  1  0.39134837  0.50198048  1.00629711  1
  O  O397  1  0.38340288  0.99205290  0.50099168  1
  O  O398  1  0.37991757  0.99428663  0.99391626  1
  O  O399  1  0.87922710  0.49791858  0.49553103  1
  O  O400  1  0.87694254  0.49191490  0.99424259  1
  O  O401  1  0.88022373  0.99614674  0.49207699  1
  O  O402  1  0.87874585  0.98664861  1.00383632  1
  O  O403  1  0.12309278  0.00741921  0.01789944  1
  O  O404  1  0.11484835  0.00175001  0.49744920  1
  O  O405  1  0.12497320  0.50742432  0.01275919  1
  O  O406  1  0.12188492  0.50779050  0.50231293  1
  O  O407  1  0.61747234  0.00485176  0.00448454  1
  O  O408  1  0.61032640  -0.00517803  0.50844805  1
  O  O409  1  0.61803368  0.50516653  0.01010464  1
  O  O410  1  0.61811323  0.50648214  0.50643103  1
  O  O411  1  0.37378817  0.36019043  0.11550754  1
  O  O412  1  0.36381344  0.37844454  0.61542028  1
  O  O413  1  0.36760771  0.86803820  0.11486273  1
  O  O414  1  0.37846300  0.87544830  0.60741403  1
  O  O415  1  0.88422410  0.37613537  0.11197267  1
  O  O416  1  0.86850658  0.36950989  0.62106802  1
  O  O417  1  0.86369529  0.86872660  0.12182424  1
  O  O418  1  0.86956283  0.87011563  0.62206042  1
  O  O419  1  0.12939179  0.13766484  0.37416486  1
  O  O420  1  0.10671895  0.11845798  0.88838204  1
  O  O421  1  0.12636521  0.63120454  0.38489338  1
  O  O422  1  0.11942385  0.61910210  0.89336860  1
  O  O423  1  0.63208744  0.13619024  0.36943671  1
  O  O424  1  0.63111098  0.13249464  0.88367403  1
  O  O425  1  0.62771309  0.63231996  0.38685103  1
  O  O426  1  0.63163108  0.62909721  0.88279810  1
