# generated using pymatgen
data_V85Zn86O256
_symmetry_space_group_name_H-M   'P 1'
_cell_length_a   16.97594925
_cell_length_b   16.97395216
_cell_length_c   16.95301005
_cell_angle_alpha   89.94419762
_cell_angle_beta   89.86604314
_cell_angle_gamma   90.00387944
_symmetry_Int_Tables_number   1
_chemical_formula_structural   V85Zn86O256
_chemical_formula_sum   'V85 Zn86 O256'
_cell_volume   4884.97637199
_cell_formula_units_Z   1
loop_
 _symmetry_equiv_pos_site_id
 _symmetry_equiv_pos_as_xyz
  1  'x, y, z'
loop_
 _atom_site_type_symbol
 _atom_site_label
 _atom_site_symmetry_multiplicity
 _atom_site_fract_x
 _atom_site_fract_y
 _atom_site_fract_z
 _atom_site_occupancy
  V  V0  1  0.49564237  0.25079747  0.74497548  1
  V  V1  1  0.49888296  0.00006192  0.49971549  1
  V  V2  1  0.00240082  0.49567272  -0.00428237  1
  V  V3  1  0.50141667  0.25464882  0.26102995  1
  V  V4  1  0.37339457  0.37857521  -0.00238978  1
  V  V5  1  0.88071564  0.87478129  0.49169544  1
  V  V6  1  0.12256662  0.76236558  0.37322990  1
  V  V7  1  0.74638472  0.37255084  0.12500090  1
  V  V8  1  0.74688422  0.00992503  0.25473618  1
  V  V9  1  0.87261207  0.25164113  0.62545502  1
  V  V10  1  0.62584554  0.75016265  0.86850669  1
  V  V11  1  0.24921233  0.50394431  0.25458684  1
  V  V12  1  0.62477205  0.62809301  0.49097127  1
  V  V13  1  0.62355245  0.24984653  0.87548514  1
  V  V14  1  0.49641948  0.37710150  0.87377768  1
  V  V15  1  0.24850406  0.12702935  0.37175885  1
  V  V16  1  0.50012908  0.87182678  0.37474424  1
  V  V17  1  0.74574905  0.24369369  0.48659059  1
  V  V18  1  0.12908915  0.48910706  0.62525319  1
  V  V19  1  0.61861726  0.00663018  0.12269287  1
  V  V20  1  0.62495718  0.50117158  0.62206767  1
  V  V21  1  0.49626123  0.50078879  -0.00424114  1
  V  V22  1  0.75229101  0.49698392  0.74660342  1
  V  V23  1  0.87526395  -0.01529356  0.89244073  1
  V  V24  1  0.37383227  0.87308207  0.50155989  1
  V  V25  1  0.37929406  0.37291590  0.51335387  1
  V  V26  1  0.74825873  0.25053673  0.00002944  1
  V  V27  1  0.00142294  0.62833974  0.12598111  1
  V  V28  1  0.12990549  0.62376289  0.49198002  1
  V  V29  1  0.00229333  0.26482979  0.25477090  1
  V  V30  1  0.00052071  0.12509460  0.62796619  1
  V  V31  1  0.49921333  0.12761752  0.62274202  1
  V  V32  1  0.37679777  0.75586399  0.12286644  1
  V  V33  1  0.49970185  0.62582071  0.12396449  1
  V  V34  1  0.62660586  0.87352577  0.25301695  1
  V  V35  1  0.00138516  -0.00246209  0.49523899  1
  V  V36  1  0.12351664  0.37169313  0.76934889  1
  V  V37  1  0.12915468  0.62932207  -0.00529067  1
  V  V38  1  0.25137649  0.25647206  0.51358643  1
  V  V39  1  0.10403491  0.00563356  0.12719704  1
  V  V40  1  0.37405285  0.12473999  0.74771325  1
  V  V41  1  0.87255004  0.75769313  0.11879194  1
  V  V42  1  0.25392998  0.75526682  -0.00101817  1
  V  V43  1  0.00844964  0.75328113  0.75608338  1
  V  V44  1  0.25034391  0.74517238  0.49361631  1
  V  V45  1  0.88090543  0.24676694  0.12556814  1
  V  V46  1  0.50504597  0.74895124  0.25280087  1
  V  V47  1  0.37291806  0.25103942  0.12481204  1
  V  V48  1  0.24923009  -0.00261288  0.75476343  1
  V  V49  1  0.74658055  0.75035181  0.48863176  1
  V  V50  1  0.00324419  0.62088462  0.61951752  1
  V  V51  1  0.87653369  0.37569742  -0.00078898  1
  V  V52  1  0.74972751  -0.00057525  0.74768271  1
  V  V53  1  0.11080808  0.12626476  0.00000536  1
  V  V54  1  0.49787667  0.12449039  0.11792623  1
  V  V55  1  0.38117009  -0.00342257  0.88728825  1
  V  V56  1  0.87764994  0.74759802  0.61969676  1
  V  V57  1  0.75236346  0.62510396  0.87658044  1
  V  V58  1  0.74907846  0.87565906  0.62075776  1
  V  V59  1  0.88140215  0.12680959  0.24843189  1
  V  V60  1  0.37180567  0.62470999  0.25738395  1
  V  V61  1  0.49898191  0.87585590  0.88644373  1
  V  V62  1  0.87989258  0.49491052  0.87310855  1
  V  V63  1  0.62721440  0.62542433  -0.00206832  1
  V  V64  1  0.87238342  0.00705099  0.37632319  1
  V  V65  1  0.88396032  0.49673055  0.37585592  1
  V  V66  1  0.62057332  0.37478475  0.26447401  1
  V  V67  1  0.25564680  0.62456347  0.87590437  1
  V  V68  1  0.25257114  0.49614907  0.75218223  1
  V  V69  1  0.62435090  0.00096401  0.62203728  1
  V  V70  1  0.00636339  0.76368612  0.25252345  1
  V  V71  1  0.74789704  0.12513424  0.87595382  1
  V  V72  1  0.12546486  0.49640642  0.12972612  1
  V  V73  1  0.24703220  0.37428410  0.13081455  1
  V  V74  1  0.12647353  0.12554381  0.50182061  1
  V  V75  1  0.37115291  -0.00120045  0.37151469  1
  V  V76  1  0.12359233  -0.00145258  0.63015905  1
  V  V77  1  0.24554046  0.88054746  0.13208337  1
  V  V78  1  0.37710514  0.62263053  0.75060100  1
  V  V79  1  0.87585997  0.12297824  0.75287687  1
  V  V80  1  0.24656392  0.87122672  0.62802351  1
  V  V81  1  0.74999229  0.50089270  0.25130717  1
  V  V82  1  0.12227034  0.26316475  0.37150574  1
  V  V83  1  0.00257124  0.25234320  0.76430113  1
  V  V84  1  0.37949250  0.48889844  0.37368672  1
  Zn  Zn85  1  0.87418772  0.62834305  0.24967054  1
  Zn  Zn86  1  0.74885812  0.62916026  0.36885891  1
  Zn  Zn87  1  0.62403190  0.37405502  0.74589722  1
  Zn  Zn88  1  0.49853503  0.62670542  0.62138452  1
  Zn  Zn89  1  0.62034981  0.87493360  0.74738051  1
  Zn  Zn90  1  0.01151883  0.48626695  0.48933804  1
  Zn  Zn91  1  0.11915579  0.87325369  0.77847706  1
  Zn  Zn92  1  0.79871304  0.80713769  -0.03866424  1
  Zn  Zn93  1  0.37583306  0.74658080  0.62491832  1
  Zn  Zn94  1  0.75052453  0.37329955  0.61849092  1
  Zn  Zn95  1  0.23553766  -0.00806527  0.25650352  1
  Zn  Zn96  1  0.75589295  0.88450766  0.12197016  1
  Zn  Zn97  1  0.24175114  0.13140323  0.87722620  1
  Zn  Zn98  1  0.49473497  0.75422759  0.74727888  1
  Zn  Zn99  1  0.88004273  0.62315578  0.74844089  1
  Zn  Zn100  1  0.37246775  0.12425549  0.24769364  1
  Zn  Zn101  1  0.23735534  0.25368335  -0.01216527  1
  Zn  Zn102  1  0.62411536  0.49890310  0.12473039  1
  Zn  Zn103  1  0.50651843  0.49378071  0.49322609  1
  Zn  Zn104  1  0.88290133  0.36709544  0.49204544  1
  Zn  Zn105  1  0.61874111  0.12336335  -0.00053678  1
  Zn  Zn106  1  0.62560124  0.12618296  0.48314192  1
  Zn  Zn107  1  0.18150644  0.18570232  0.18630999  1
  Zn  Zn108  1  0.18512936  0.18777957  0.69422481  1
  Zn  Zn109  1  0.18757731  0.68826341  0.18592674  1
  Zn  Zn110  1  0.18709463  0.68460045  0.68655421  1
  Zn  Zn111  1  0.68426074  0.18777456  0.30870511  1
  Zn  Zn112  1  0.68474205  0.18639309  0.68634124  1
  Zn  Zn113  1  0.68680977  0.68707283  0.18455031  1
  Zn  Zn114  1  0.69042125  0.68373056  0.68290805  1
  Zn  Zn115  1  0.31004867  0.31303248  0.31376402  1
  Zn  Zn116  1  0.31114774  0.31264527  0.80936213  1
  Zn  Zn117  1  0.31229082  0.80995457  0.31205860  1
  Zn  Zn118  1  0.31456686  0.81187783  0.81574079  1
  Zn  Zn119  1  0.81592259  0.31788632  0.30927530  1
  Zn  Zn120  1  0.81368508  0.31254484  0.81135658  1
  Zn  Zn121  1  0.81794365  0.81763954  0.30649646  1
  Zn  Zn122  1  0.81575864  0.81232202  0.79828058  1
  Zn  Zn123  1  0.19488054  0.43782040  0.43875241  1
  Zn  Zn124  1  0.19120661  0.44172544  0.93945497  1
  Zn  Zn125  1  0.18694254  0.93613607  0.44189421  1
  Zn  Zn126  1  0.19486616  0.94704869  0.95128440  1
  Zn  Zn127  1  0.69727553  0.43536312  0.44045612  1
  Zn  Zn128  1  0.68561039  0.43732577  0.93510198  1
  Zn  Zn129  1  0.68641593  0.93907937  0.43604431  1
  Zn  Zn130  1  0.68509073  0.94087344  0.93701054  1
  Zn  Zn131  1  0.30452400  0.06914214  0.06162972  1
  Zn  Zn132  1  0.31127318  0.06246026  0.56354860  1
  Zn  Zn133  1  0.31436638  0.56437597  0.06641509  1
  Zn  Zn134  1  0.31225507  0.55860120  0.56508103  1
  Zn  Zn135  1  0.80701847  0.06675961  0.06643684  1
  Zn  Zn136  1  0.81287444  0.06695371  0.56226550  1
  Zn  Zn137  1  0.81503666  0.56367446  0.06353700  1
  Zn  Zn138  1  0.81138273  0.56400939  0.55701559  1
  Zn  Zn139  1  0.43787097  0.43738439  0.18563268  1
  Zn  Zn140  1  0.43778002  0.44152608  0.68618371  1
  Zn  Zn141  1  0.43755399  0.93527742  0.18499710  1
  Zn  Zn142  1  0.43758838  0.93599279  0.69143302  1
  Zn  Zn143  1  0.93585187  0.43895809  0.18594035  1
  Zn  Zn144  1  0.94319338  0.43304325  0.68587726  1
  Zn  Zn145  1  0.93499061  0.93746658  0.19031892  1
  Zn  Zn146  1  0.93698360  0.93450235  0.68684188  1
  Zn  Zn147  1  0.06219786  0.06785879  0.31163431  1
  Zn  Zn148  1  0.05612566  0.05801251  0.82068493  1
  Zn  Zn149  1  0.06447283  0.56869805  0.30980338  1
  Zn  Zn150  1  0.06572224  0.56610306  0.80989316  1
  Zn  Zn151  1  0.55300257  0.06224469  0.30678456  1
  Zn  Zn152  1  0.56114020  0.06216684  0.81298967  1
  Zn  Zn153  1  0.56146508  0.55934335  0.31220951  1
  Zn  Zn154  1  0.56308954  0.56110852  0.81046238  1
  Zn  Zn155  1  0.43197529  0.18753401  0.44079754  1
  Zn  Zn156  1  0.43056173  0.18989868  0.93442577  1
  Zn  Zn157  1  0.43807855  0.68340863  0.43729573  1
  Zn  Zn158  1  0.43851127  0.69001929  0.93480802  1
  Zn  Zn159  1  0.93986214  0.18775625  0.43746173  1
  Zn  Zn160  1  0.93228812  0.17958787  0.94040854  1
  Zn  Zn161  1  0.93861902  0.68046486  0.43202604  1
  Zn  Zn162  1  0.94073487  0.68218565  0.93761801  1
  Zn  Zn163  1  0.06103995  0.31076871  0.06265273  1
  Zn  Zn164  1  0.06038055  0.31100090  0.56307027  1
  Zn  Zn165  1  0.06910389  0.81876919  0.05537833  1
  Zn  Zn166  1  0.06454085  0.81144011  0.56303462  1
  Zn  Zn167  1  0.56222993  0.30976824  0.06657793  1
  Zn  Zn168  1  0.56513261  0.31367347  0.55932316  1
  Zn  Zn169  1  0.59995881  0.82849114  0.04651934  1
  Zn  Zn170  1  0.56160242  0.81022764  0.56355806  1
  O  O171  1  0.12389124  0.11289944  0.11892929  1
  O  O172  1  0.12072221  0.11808532  0.62278184  1
  O  O173  1  0.12033722  0.61613374  0.11629203  1
  O  O174  1  0.11847579  0.61791477  0.61558153  1
  O  O175  1  0.61067998  0.11695199  0.12512562  1
  O  O176  1  0.61194244  0.11873616  0.62352190  1
  O  O177  1  0.61956890  0.62498016  0.11294251  1
  O  O178  1  0.62701314  0.61569151  0.61367169  1
  O  O179  1  0.36767355  0.38386974  0.38334893  1
  O  O180  1  0.38650159  0.36999908  0.88538551  1
  O  O181  1  0.37749109  0.88083154  0.38082718  1
  O  O182  1  0.38255172  0.88788776  0.87268707  1
  O  O183  1  0.87422955  0.39258843  0.37109784  1
  O  O184  1  0.87009563  0.38823624  0.88135561  1
  O  O185  1  0.87592287  0.88634529  0.38531263  1
  O  O186  1  0.85477780  0.88012193  0.88367077  1
  O  O187  1  0.25356750  0.00641571  0.37673347  1
  O  O188  1  0.26222707  -0.00295449  0.86776244  1
  O  O189  1  0.25719006  0.49755431  0.36058816  1
  O  O190  1  0.24662629  0.51129987  0.86495454  1
  O  O191  1  0.76126784  -0.00575471  0.36637327  1
  O  O192  1  0.75438697  0.00377160  0.86642175  1
  O  O193  1  0.75873803  0.50028952  0.36203701  1
  O  O194  1  0.75695075  0.50598882  0.86671033  1
  O  O195  1  0.24405814  0.49440719  0.13084108  1
  O  O196  1  0.23774252  0.50831909  0.64001221  1
  O  O197  1  0.26040482  0.98472100  0.12992605  1
  O  O198  1  0.24495509  0.99251632  0.63481026  1
  O  O199  1  0.75332560  0.48970776  0.13255395  1
  O  O200  1  0.74642210  0.50021617  0.63130700  1
  O  O201  1  0.74053741  1.00301038  0.13828398  1
  O  O202  1  0.74561363  0.99720489  0.62868145  1
  O  O203  1  -0.00366603  0.36449253  0.24885883  1
  O  O204  1  0.01444413  0.36807708  0.75013748  1
  O  O205  1  0.00219678  0.86214191  0.24726726  1
  O  O206  1  0.00251294  0.85926122  0.74329123  1
  O  O207  1  0.50674947  0.36405400  0.24213864  1
  O  O208  1  0.49673000  0.36844154  0.75662885  1
  O  O209  1  0.50519908  0.86692026  0.25476483  1
  O  O210  1  0.50335875  0.87379451  0.76146615  1
  O  O211  1  0.49300647  0.14029023  0.24001615  1
  O  O212  1  0.49359048  0.13052939  0.74273241  1
  O  O213  1  0.49446431  0.63075482  0.24532030  1
  O  O214  1  0.48676434  0.62231385  0.75169222  1
  O  O215  1  0.98502712  0.13281500  0.25222910  1
  O  O216  1  0.99682922  0.13140811  0.74699602  1
  O  O217  1  1.00095237  0.63273045  0.23461421  1
  O  O218  1  1.00180282  0.63320500  0.73620426  1
  O  O219  1  0.37604293  0.26292786  0.01139752  1
  O  O220  1  0.36201905  0.26082843  0.49715175  1
  O  O221  1  0.36711866  0.73979705  0.01315545  1
  O  O222  1  0.36548973  0.75328680  0.49887669  1
  O  O223  1  0.87078665  0.25492979  0.00657296  1
  O  O224  1  0.86629602  0.24400371  0.50866971  1
  O  O225  1  0.88262504  0.74842379  0.01211624  1
  O  O226  1  0.87305810  0.75592526  0.50298012  1
  O  O227  1  0.13596665  0.24565179  0.49426509  1
  O  O228  1  0.12353394  0.23393792  1.01118016  1
  O  O229  1  0.13000950  0.74325883  0.49321099  1
  O  O230  1  0.14007703  0.73555750  1.01259562  1
  O  O231  1  0.64244775  0.25005896  0.50242249  1
  O  O232  1  0.63055494  0.25038336  0.99327124  1
  O  O233  1  0.63647918  0.74230572  0.50387090  1
  O  O234  1  0.62032220  0.73254029  0.98428933  1
  O  O235  1  0.48977053  0.24535427  0.13168047  1
  O  O236  1  0.50646699  0.24101584  0.63388075  1
  O  O237  1  0.49135578  0.74453817  0.13662008  1
  O  O238  1  0.49533452  0.74571562  0.62968846  1
  O  O239  1  0.98591312  0.25701787  0.13419594  1
  O  O240  1  0.99197771  0.24267878  0.63345443  1
  O  O241  1  0.99849614  0.74825028  0.12953747  1
  O  O242  1  0.99464595  0.74074391  0.62624071  1
  O  O243  1  0.01026883  0.24492168  0.36799304  1
  O  O244  1  -0.00892314  0.24456606  0.86278572  1
  O  O245  1  0.00502790  0.74461743  0.35918149  1
  O  O246  1  -0.00877164  0.73924084  0.85364231  1
  O  O247  1  0.48614760  0.24811182  0.35866613  1
  O  O248  1  0.50306537  0.25736066  0.86674632  1
  O  O249  1  0.49188417  0.75469574  0.36056571  1
  O  O250  1  0.50822268  0.75606177  0.86984298  1
  O  O251  1  0.24819794  0.13429540  0.49306787  1
  O  O252  1  0.23821511  0.13215605  0.99804302  1
  O  O253  1  0.24154236  0.63551220  0.50808034  1
  O  O254  1  0.24716085  0.62797182  0.99515584  1
  O  O255  1  0.74819238  0.13870085  0.50194643  1
  O  O256  1  0.74663314  0.13450931  0.99353377  1
  O  O257  1  0.74311420  0.63545112  0.49631461  1
  O  O258  1  0.74116101  0.61502460  0.98779808  1
  O  O259  1  0.25794386  0.37668239  0.00944449  1
  O  O260  1  0.25641333  0.36156715  0.50150146  1
  O  O261  1  0.24999162  0.86348920  0.01461281  1
  O  O262  1  0.25416607  0.86656940  0.50872297  1
  O  O263  1  0.75463941  0.37275526  0.00575643  1
  O  O264  1  0.76049305  0.35876597  0.50033953  1
  O  O265  1  0.71776269  0.86239146  0.01549666  1
  O  O266  1  0.75859560  0.86895489  0.50175837  1
  O  O267  1  0.13392946  0.50997148  0.23805051  1
  O  O268  1  0.12859035  0.48927011  0.74633803  1
  O  O269  1  0.12237401  1.00712534  0.23450548  1
  O  O270  1  0.13235523  0.99456902  0.75113870  1
  O  O271  1  0.63201764  0.49358835  0.24537048  1
  O  O272  1  0.63502128  0.50100347  0.74052610  1
  O  O273  1  0.63113201  0.99544103  0.24492087  1
  O  O274  1  0.63707252  1.00211738  0.74385164  1
  O  O275  1  0.37223514  -0.00156771  0.26481883  1
  O  O276  1  0.36516219  0.00611113  0.75493829  1
  O  O277  1  0.37003948  0.50518485  0.25368332  1
  O  O278  1  0.36249157  0.50734519  0.74516369  1
  O  O279  1  0.86918609  0.00642170  0.25600728  1
  O  O280  1  0.86164405  0.00179571  0.74905785  1
  O  O281  1  0.86720750  0.50238619  0.25532241  1
  O  O282  1  0.87157001  0.49972768  0.75591967  1
  O  O283  1  0.13388528  0.36170969  0.37689748  1
  O  O284  1  0.12284573  0.37969314  0.86814327  1
  O  O285  1  0.12332480  0.86218786  0.38163329  1
  O  O286  1  0.11507218  0.87459683  0.90160477  1
  O  O287  1  0.62719875  0.38258411  0.36347604  1
  O  O288  1  0.61296754  0.36963675  0.87208085  1
  O  O289  1  0.61696298  0.88199090  0.36138922  1
  O  O290  1  0.62033571  0.86542331  0.87121787  1
  O  O291  1  0.37718275  0.13529026  0.12672969  1
  O  O292  1  0.38582333  0.11677242  0.63606579  1
  O  O293  1  0.38099903  0.63188603  0.13517700  1
  O  O294  1  0.37538404  0.62443550  0.63553489  1
  O  O295  1  0.86783098  0.13796187  0.13464364  1
  O  O296  1  0.88042056  0.13185544  0.63317674  1
  O  O297  1  0.88719816  0.63456500  0.12319972  1
  O  O298  1  0.88461629  0.63206884  0.61960884  1
  O  O299  1  0.25722235  0.26029519  0.13027808  1
  O  O300  1  0.24631476  0.24290217  0.61164327  1
  O  O301  1  0.25668847  0.75797650  0.12126119  1
  O  O302  1  0.24783549  0.75772990  0.61571493  1
  O  O303  1  0.76282853  0.26449771  0.11937615  1
  O  O304  1  0.76015107  0.24879346  0.62240519  1
  O  O305  1  0.77117923  0.74679892  0.13189355  1
  O  O306  1  0.76077614  0.75307297  0.61474438  1
  O  O307  1  0.24313883  0.24131545  0.37904003  1
  O  O308  1  0.25645318  0.24422207  0.87610108  1
  O  O309  1  0.24153845  0.75395310  0.38646901  1
  O  O310  1  0.25550465  0.74147924  0.88893240  1
  O  O311  1  0.75532090  0.24931967  0.38195076  1
  O  O312  1  0.74513058  0.24613119  0.87880598  1
  O  O313  1  0.75966602  0.75227635  0.38498275  1
  O  O314  1  0.74774455  0.74040452  0.87159507  1
  O  O315  1  0.01016229  0.12514544  0.00115055  1
  O  O316  1  0.00599896  0.11686996  0.50762962  1
  O  O317  1  0.00986009  0.61810584  0.00731308  1
  O  O318  1  0.01045543  0.62135878  0.50648634  1
  O  O319  1  0.49688984  0.13396521  0.01301844  1
  O  O320  1  0.49724166  0.12101686  0.50895889  1
  O  O321  1  0.50540430  0.61711820  0.00060739  1
  O  O322  1  0.51062242  0.62051866  0.50002183  1
  O  O323  1  0.48385889  0.37224862  0.50140681  1
  O  O324  1  0.49403681  0.38152572  0.99517967  1
  O  O325  1  0.49382121  0.87910768  0.49489892  1
  O  O326  1  0.50939011  0.86863617  0.98631203  1
  O  O327  1  0.99493995  0.37635732  0.50192633  1
  O  O328  1  0.99541774  0.38993711  1.00680193  1
  O  O329  1  0.99129074  0.88559092  0.50852515  1
  O  O330  1  1.04711511  0.86682367  0.94817825  1
  O  O331  1  0.48537522  0.50044819  0.37590648  1
  O  O332  1  0.50512479  0.48985990  0.88425477  1
  O  O333  1  0.48815554  0.99302105  0.37939828  1
  O  O334  1  0.48903230  0.99345723  0.87174550  1
  O  O335  1  0.98796973  0.50812883  0.37092683  1
  O  O336  1  0.99184931  0.51109083  0.88457381  1
  O  O337  1  0.99354214  1.00601931  0.38899212  1
  O  O338  1  0.97202102  0.99415724  0.86637208  1
  O  O339  1  0.00557190  -0.00474527  0.12253032  1
  O  O340  1  0.00321156  0.00516601  0.61874693  1
  O  O341  1  0.00624456  0.50818343  0.11812447  1
  O  O342  1  0.00938071  0.50913295  0.62525944  1
  O  O343  1  0.50506142  0.01262509  0.13711235  1
  O  O344  1  0.50373586  0.00628117  0.61998913  1
  O  O345  1  0.50136223  0.50618566  0.11377852  1
  O  O346  1  0.51370046  0.50230270  0.62116744  1
  O  O347  1  0.25589515  0.38718241  0.23749716  1
  O  O348  1  0.23647045  0.38411014  0.75591904  1
  O  O349  1  0.24823084  0.87108480  0.23721904  1
  O  O350  1  0.24373500  0.87980191  0.74713891  1
  O  O351  1  0.74119645  0.38058240  0.24302297  1
  O  O352  1  0.74816391  0.38748219  0.74891428  1
  O  O353  1  0.74288800  0.88449894  0.24656229  1
  O  O354  1  0.74738611  0.88355639  0.73880026  1
  O  O355  1  0.25119108  0.12289478  0.26235488  1
  O  O356  1  0.25645890  0.11442499  0.75044110  1
  O  O357  1  0.26116538  0.61536790  0.23992928  1
  O  O358  1  0.25339891  0.61912936  0.75836829  1
  O  O359  1  0.76222809  0.11622606  0.25537035  1
  O  O360  1  0.75459439  0.11753125  0.75450366  1
  O  O361  1  0.74944436  0.61359578  0.24726398  1
  O  O362  1  0.75479430  0.61459961  0.75768921  1
  O  O363  1  0.36463214  0.11548514  0.37634777  1
  O  O364  1  0.37973499  0.11131193  0.86244416  1
  O  O365  1  0.37596705  0.61589854  0.36217070  1
  O  O366  1  0.36466032  0.62668903  0.86743008  1
  O  O367  1  0.87765890  0.11317236  0.36894289  1
  O  O368  1  0.86566983  0.11225904  0.87080959  1
  O  O369  1  0.86919710  0.61413335  0.36858401  1
  O  O370  1  0.86659681  0.61380918  0.87471783  1
  O  O371  1  0.13418422  0.38715712  0.11738809  1
  O  O372  1  0.12287058  0.38693086  0.62918295  1
  O  O373  1  0.13691610  0.89006244  0.12073713  1
  O  O374  1  0.13684739  0.88117859  0.62204536  1
  O  O375  1  0.63495640  0.37618457  0.13057334  1
  O  O376  1  0.62935142  0.38696009  0.62483371  1
  O  O377  1  0.61890160  0.88828285  0.14170686  1
  O  O378  1  0.63158194  0.88242342  0.62423044  1
  O  O379  1  0.11305045  0.24355367  0.25846087  1
  O  O380  1  0.11902518  0.26418154  0.74822338  1
  O  O381  1  0.11476185  0.74344501  0.25680109  1
  O  O382  1  0.11334817  0.75165047  0.74752400  1
  O  O383  1  0.60989332  0.25872083  0.25298419  1
  O  O384  1  0.61337292  0.25117196  0.75568590  1
  O  O385  1  0.61566971  0.75893985  0.24183068  1
  O  O386  1  0.62724929  0.74618649  0.76030653  1
  O  O387  1  0.38242859  0.25551825  0.23901867  1
  O  O388  1  0.38653563  0.23932074  0.75352683  1
  O  O389  1  0.38046389  0.74152156  0.24418142  1
  O  O390  1  0.37132894  0.73675609  0.74803897  1
  O  O391  1  0.88063793  0.24537056  0.24562197  1
  O  O392  1  0.88160387  0.24447324  0.74484125  1
  O  O393  1  0.89042322  0.74918013  0.24008464  1
  O  O394  1  0.88429789  0.74691254  0.73337824  1
  O  O395  1  0.36913284  0.48685768  0.49284344  1
  O  O396  1  0.38416303  0.49063328  1.00581619  1
  O  O397  1  0.37724377  0.99399886  0.49159195  1
  O  O398  1  0.37039335  1.00636733  0.98477656  1
  O  O399  1  0.87283491  0.50050474  0.48264687  1
  O  O400  1  0.88366450  0.49735313  0.99334431  1
  O  O401  1  0.88067713  0.99521381  0.49542493  1
  O  O402  1  0.86569468  1.00023225  0.99121315  1
  O  O403  1  0.13032105  0.01149926  0.01954931  1
  O  O404  1  0.11829638  0.00460105  0.50731452  1
  O  O405  1  0.11994172  0.50826674  0.00824322  1
  O  O406  1  0.13085486  0.50717679  0.50612827  1
  O  O407  1  0.62783894  0.00332178  0.01718655  1
  O  O408  1  0.61691810  0.00210633  0.50455773  1
  O  O409  1  0.61570879  0.50861333  -0.00048381  1
  O  O410  1  0.62979807  0.50639002  0.50610940  1
  O  O411  1  0.36731304  0.37084681  0.11704896  1
  O  O412  1  0.37220358  0.38059108  0.61248817  1
  O  O413  1  0.36672680  0.86236410  0.13102923  1
  O  O414  1  0.36126565  0.87567929  0.62143067  1
  O  O415  1  0.86733182  0.37024623  0.11900571  1
  O  O416  1  0.87438328  0.36054883  0.62694320  1
  O  O417  1  0.87565415  0.86256414  0.12494095  1
  O  O418  1  0.87022669  0.86670908  0.61275718  1
  O  O419  1  0.13375185  0.12933475  0.38294922  1
  O  O420  1  0.12506843  0.10963507  0.89391319  1
  O  O421  1  0.12172755  0.63297656  0.38756612  1
  O  O422  1  0.13566543  0.62143174  0.88678324  1
  O  O423  1  0.62112456  0.12045291  0.37143405  1
  O  O424  1  0.62906370  0.13043082  0.87745720  1
  O  O425  1  0.62860051  0.61863345  0.38604916  1
  O  O426  1  0.63372090  0.62880838  0.87755279  1
