# generated using pymatgen
data_V85Zn86O256
_symmetry_space_group_name_H-M   'P 1'
_cell_length_a   16.96323287
_cell_length_b   16.96279504
_cell_length_c   16.96801099
_cell_angle_alpha   90.04986074
_cell_angle_beta   90.00777316
_cell_angle_gamma   90.07914614
_symmetry_Int_Tables_number   1
_chemical_formula_structural   V85Zn86O256
_chemical_formula_sum   'V85 Zn86 O256'
_cell_volume   4882.43412529
_cell_formula_units_Z   1
loop_
 _symmetry_equiv_pos_site_id
 _symmetry_equiv_pos_as_xyz
  1  'x, y, z'
loop_
 _atom_site_type_symbol
 _atom_site_label
 _atom_site_symmetry_multiplicity
 _atom_site_fract_x
 _atom_site_fract_y
 _atom_site_fract_z
 _atom_site_occupancy
  V  V0  1  0.00682360  0.50005453  0.00252298  1
  V  V1  1  0.00162319  0.74932184  0.24761046  1
  V  V2  1  0.86688211  0.86668243  0.49719204  1
  V  V3  1  0.12592738  0.24776626  0.88304197  1
  V  V4  1  0.63228107  0.49626326  0.62284961  1
  V  V5  1  0.00778410  -0.00028005  0.50221527  1
  V  V6  1  0.74952698  0.49807453  0.24759026  1
  V  V7  1  0.62060566  0.61801440  -0.00098720  1
  V  V8  1  0.49728824  0.12552440  0.14533099  1
  V  V9  1  0.37036931  0.75267744  0.12319314  1
  V  V10  1  0.49807433  0.87828391  0.37215949  1
  V  V11  1  0.37577207  0.62995373  0.24990417  1
  V  V12  1  0.87484095  0.74892129  0.12141513  1
  V  V13  1  0.49772280  0.00131401  -0.00077994  1
  V  V14  1  0.24522664  0.87498904  0.62158934  1
  V  V15  1  -0.00141978  0.11058220  0.12844944  1
  V  V16  1  0.74816863  0.75049548  -0.00259849  1
  V  V17  1  0.62293820  0.37246098  0.24976614  1
  V  V18  1  0.62666578  0.75033304  0.87228727  1
  V  V19  1  0.50026958  0.37452144  0.37232518  1
  V  V20  1  0.74488457  0.88897306  0.62398089  1
  V  V21  1  0.87551243  0.00335743  0.37305199  1
  V  V22  1  0.11299811  0.73694283  0.87068384  1
  V  V23  1  0.12490095  0.14994451  0.50043581  1
  V  V24  1  0.49636377  0.38137990  0.87964867  1
  V  V25  1  0.00048507  0.37063617  0.87897255  1
  V  V26  1  0.36779000  0.25129092  0.62378832  1
  V  V27  1  0.86788732  0.74561517  0.63163628  1
  V  V28  1  0.87456568  0.62491324  0.24818184  1
  V  V29  1  0.12205540  0.10595216  0.00646114  1
  V  V30  1  0.75398024  0.11502439  0.86299666  1
  V  V31  1  0.62345677  0.12379648  -0.00062282  1
  V  V32  1  0.37642798  0.50413953  0.37663075  1
  V  V33  1  0.37301007  0.75083330  0.61965249  1
  V  V34  1  0.49797905  0.61849534  0.12056935  1
  V  V35  1  0.01771405  0.37138654  0.36872838  1
  V  V36  1  0.37116976  0.87820560  0.49720566  1
  V  V37  1  0.00858714  0.24958029  0.24834249  1
  V  V38  1  0.62409965  -0.00110726  0.12512854  1
  V  V39  1  0.87581517  0.49627007  0.37389273  1
  V  V40  1  0.88796660  0.88069784  -0.00598026  1
  V  V41  1  0.50328993  0.75043196  0.74572027  1
  V  V42  1  0.74841322  0.87532578  0.12229546  1
  V  V43  1  0.24499042  -0.00215706  0.74310333  1
  V  V44  1  0.75484852  0.25673059  0.50433980  1
  V  V45  1  0.12779266  0.37213198  0.75204987  1
  V  V46  1  0.25186355  0.63197919  0.37828890  1
  V  V47  1  0.75284376  0.24516252  0.00097384  1
  V  V48  1  0.62765217  0.89091089  0.74423013  1
  V  V49  1  -0.00113805  0.87503788  0.37397255  1
  V  V50  1  0.75344471  0.00238353  0.24819598  1
  V  V51  1  0.74862276  0.37238902  0.12560418  1
  V  V52  1  0.75307064  0.12622435  0.37137943  1
  V  V53  1  0.37296470  0.62027570  0.75421490  1
  V  V54  1  0.25504687  0.00836495  0.25070927  1
  V  V55  1  0.12557613  0.88133883  0.24207407  1
  V  V56  1  0.12547239  0.50041288  0.62793658  1
  V  V57  1  0.00663103  0.62317537  0.12184901  1
  V  V58  1  0.50005299  0.00437539  0.51265769  1
  V  V59  1  0.24802255  0.12337559  0.87506495  1
  V  V60  1  0.37081795  0.37460457  0.50369862  1
  V  V61  1  -0.00373711  0.12117236  0.62801819  1
  V  V62  1  0.12484599  0.49121805  0.13068022  1
  V  V63  1  0.37373246  0.00155374  0.87407229  1
  V  V64  1  0.37172480  0.87610258  -0.00309747  1
  V  V65  1  0.50074452  0.87692530  0.87230416  1
  V  V66  1  0.38048045  0.24754210  0.14167034  1
  V  V67  1  0.50581736  0.50549795  0.50125575  1
  V  V68  1  0.12685710  0.75144970  0.37758084  1
  V  V69  1  0.49999191  0.24724076  0.74467462  1
  V  V70  1  0.74547580  0.63098568  0.37875529  1
  V  V71  1  -0.00578183  0.23883770  0.75419876  1
  V  V72  1  0.00318126  0.50268233  0.49978443  1
  V  V73  1  0.11323468  0.87064377  0.75278347  1
  V  V74  1  0.75513002  0.49434959  0.74642132  1
  V  V75  1  0.24619753  0.49721933  0.24935246  1
  V  V76  1  0.62055738  0.12103932  0.51058792  1
  V  V77  1  0.24728450  0.73646899  -0.01311145  1
  V  V78  1  0.88518696  -0.00200215  0.86462109  1
  V  V79  1  0.87360017  0.37119921  0.00497305  1
  V  V80  1  0.62898574  0.37206847  0.74537759  1
  V  V81  1  0.87298343  0.49822066  0.87691245  1
  V  V82  1  0.62100323  0.24866569  0.37242230  1
  V  V83  1  0.37763662  0.12445139  0.74226701  1
  V  V84  1  0.12828308  0.62903349  0.50083043  1
  Zn  Zn85  1  0.24748154  0.36571579  0.12943079  1
  Zn  Zn86  1  0.24431042  0.37233724  0.62176736  1
  Zn  Zn87  1  0.86998651  0.23842596  0.14245214  1
  Zn  Zn88  1  0.87055086  0.38073268  0.50730258  1
  Zn  Zn89  1  0.62399632  0.87382377  0.24974969  1
  Zn  Zn90  1  0.74745669  0.62306913  0.87410239  1
  Zn  Zn91  1  0.37149108  0.51164740  0.89651038  1
  Zn  Zn92  1  0.61965699  0.49490793  0.11884291  1
  Zn  Zn93  1  0.50392095  0.75300840  0.24764658  1
  Zn  Zn94  1  0.87039374  0.25284102  0.63788253  1
  Zn  Zn95  1  0.37533684  0.01988716  0.37092060  1
  Zn  Zn96  1  0.24554691  0.15511249  0.37768738  1
  Zn  Zn97  1  0.24150099  0.51089038  0.76377849  1
  Zn  Zn98  1  0.63762943  0.64199836  0.51255150  1
  Zn  Zn99  1  0.37233598  0.37678036  0.00634850  1
  Zn  Zn100  1  0.62683580  0.75740818  0.37700579  1
  Zn  Zn101  1  0.62533388  0.24823737  0.87247173  1
  Zn  Zn102  1  0.02073620  0.65921640  0.65647046  1
  Zn  Zn103  1  0.87779359  0.63177933  0.75585329  1
  Zn  Zn104  1  0.25648421  0.24838010  0.00540730  1
  Zn  Zn105  1  0.23980969  0.88541489  0.11620371  1
  Zn  Zn106  1  0.50394706  0.62601101  0.62353403  1
  Zn  Zn107  1  0.18659639  0.18668000  0.18921035  1
  Zn  Zn108  1  0.18185272  0.18330963  0.68255555  1
  Zn  Zn109  1  0.18973776  0.68843888  0.18641097  1
  Zn  Zn110  1  0.19297027  0.69244087  0.68955420  1
  Zn  Zn111  1  0.68372052  0.18581493  0.18791456  1
  Zn  Zn112  1  0.68971578  0.18620070  0.68588296  1
  Zn  Zn113  1  0.68460767  0.68887692  0.18858801  1
  Zn  Zn114  1  0.69504031  0.68813464  0.68694955  1
  Zn  Zn115  1  0.31289664  0.31229259  0.31421992  1
  Zn  Zn116  1  0.31156613  0.31262306  0.81426940  1
  Zn  Zn117  1  0.30996969  0.81952212  0.30974859  1
  Zn  Zn118  1  0.31176950  0.81115144  0.80868087  1
  Zn  Zn119  1  0.81723852  0.30943736  0.31283751  1
  Zn  Zn120  1  0.81075502  0.31067538  0.81854444  1
  Zn  Zn121  1  0.81277195  0.81346721  0.30782729  1
  Zn  Zn122  1  0.80996940  0.81857519  0.80989648  1
  Zn  Zn123  1  0.19117633  0.43778336  0.43587285  1
  Zn  Zn124  1  0.19612301  0.43701383  0.94249026  1
  Zn  Zn125  1  0.18947668  0.93928670  0.43255565  1
  Zn  Zn126  1  0.18646573  0.92924220  0.93041377  1
  Zn  Zn127  1  0.68887096  0.43958505  0.43508267  1
  Zn  Zn128  1  0.68481079  0.43303341  0.93435948  1
  Zn  Zn129  1  0.68508693  0.93880350  0.43941195  1
  Zn  Zn130  1  0.68905253  0.93644365  0.93571039  1
  Zn  Zn131  1  0.31073414  0.06628513  0.06805944  1
  Zn  Zn132  1  0.30941979  0.06533051  0.55451541  1
  Zn  Zn133  1  0.31229417  0.55823801  0.06123120  1
  Zn  Zn134  1  0.31270923  0.56181238  0.56701849  1
  Zn  Zn135  1  0.81608345  0.06047314  0.05937523  1
  Zn  Zn136  1  0.81709059  0.06649416  0.55915775  1
  Zn  Zn137  1  0.80996282  0.56179131  0.06165952  1
  Zn  Zn138  1  0.81367742  0.56207714  0.56181453  1
  Zn  Zn139  1  0.43313124  0.43827572  0.18866135  1
  Zn  Zn140  1  0.44337326  0.43521143  0.68679838  1
  Zn  Zn141  1  0.43236535  0.94027890  0.18613956  1
  Zn  Zn142  1  0.43505750  0.93689228  0.68715133  1
  Zn  Zn143  1  0.93636711  0.43311347  0.18883192  1
  Zn  Zn144  1  0.94237204  0.43535003  0.68832756  1
  Zn  Zn145  1  0.93531506  0.93369585  0.18677334  1
  Zn  Zn146  1  0.93227203  0.93611631  0.68214275  1
  Zn  Zn147  1  0.06844266  0.06765032  0.31563797  1
  Zn  Zn148  1  0.06445611  0.05775723  0.81376051  1
  Zn  Zn149  1  0.06286651  0.56365309  0.31183250  1
  Zn  Zn150  1  0.05856709  0.56097204  0.81547725  1
  Zn  Zn151  1  0.56745555  0.05457403  0.32123076  1
  Zn  Zn152  1  0.56102053  0.06643175  0.81344297  1
  Zn  Zn153  1  0.56185289  0.56270166  0.30690405  1
  Zn  Zn154  1  0.56202211  0.56150195  0.81037996  1
  Zn  Zn155  1  0.43479410  0.18934916  0.43706590  1
  Zn  Zn156  1  0.43550845  0.19449180  0.93685977  1
  Zn  Zn157  1  0.44340129  0.69345783  0.43811266  1
  Zn  Zn158  1  0.43955276  0.69027314  0.93700569  1
  Zn  Zn159  1  0.94221658  0.18790224  0.43551408  1
  Zn  Zn160  1  0.93806625  0.17862591  0.94173628  1
  Zn  Zn161  1  0.93754940  0.68651575  0.43812476  1
  Zn  Zn162  1  0.93569583  0.68539788  0.93949343  1
  Zn  Zn163  1  0.06112949  0.30914328  0.06674255  1
  Zn  Zn164  1  0.03979471  0.32109816  0.57185558  1
  Zn  Zn165  1  0.06593390  0.80748103  0.05607231  1
  Zn  Zn166  1  0.05779717  0.81737431  0.56286198  1
  Zn  Zn167  1  0.55981574  0.30599455  0.06367883  1
  Zn  Zn168  1  0.56041300  0.31078259  0.56080725  1
  Zn  Zn169  1  0.56037628  0.81023069  0.06100874  1
  Zn  Zn170  1  0.56323124  0.81703712  0.55777930  1
  O  O171  1  0.11744794  0.12638164  0.11180122  1
  O  O172  1  0.10836763  0.12516798  0.61390985  1
  O  O173  1  0.11123831  0.61823970  0.12986179  1
  O  O174  1  0.12619939  0.62293849  0.61854360  1
  O  O175  1  0.61638880  0.11989987  0.11751316  1
  O  O176  1  0.62800723  0.12829788  0.60899960  1
  O  O177  1  0.61547557  0.62530242  0.11650208  1
  O  O178  1  0.62692158  0.61191918  0.62597013  1
  O  O179  1  0.38489212  0.38287787  0.38299694  1
  O  O180  1  0.39178188  0.36902476  0.87333264  1
  O  O181  1  0.37940601  0.87441404  0.38598302  1
  O  O182  1  0.38084455  0.88130389  0.87612754  1
  O  O183  1  0.87732808  0.38941700  0.37830577  1
  O  O184  1  0.87980918  0.38050459  0.88493412  1
  O  O185  1  0.87767050  0.88126938  0.37918526  1
  O  O186  1  0.86925604  0.88411911  0.88574511  1
  O  O187  1  0.25420391  -0.00750672  0.35904806  1
  O  O188  1  0.25527312  0.00319807  0.86420603  1
  O  O189  1  0.25545862  0.51192955  0.36852465  1
  O  O190  1  0.26303535  0.48775519  0.87007854  1
  O  O191  1  0.75527641  0.00655701  0.36844716  1
  O  O192  1  0.75500875  0.01096769  0.87700645  1
  O  O193  1  0.75859994  0.50628167  0.36810531  1
  O  O194  1  0.75870338  0.49639768  0.86782728  1
  O  O195  1  0.23762295  0.50781401  0.13445921  1
  O  O196  1  0.23476935  0.50009904  0.63145175  1
  O  O197  1  0.25101921  1.00035405  0.14085438  1
  O  O198  1  0.25573654  0.99016543  0.63569270  1
  O  O199  1  0.74622666  0.49133078  0.13029681  1
  O  O200  1  0.74554229  0.49853409  0.63292341  1
  O  O201  1  0.74657363  0.99785981  0.13130785  1
  O  O202  1  0.75881644  0.98807570  0.62229646  1
  O  O203  1  -0.00123038  0.36875466  0.26154456  1
  O  O204  1  0.01134479  0.36443792  0.75966559  1
  O  O205  1  0.00490279  0.86893343  0.25478620  1
  O  O206  1  0.01597669  0.87986624  0.74049171  1
  O  O207  1  0.50826461  0.38328682  0.26432294  1
  O  O208  1  0.50925214  0.36722187  0.75679271  1
  O  O209  1  0.49826087  0.88018112  0.25996703  1
  O  O210  1  0.50646320  0.86826155  0.75143074  1
  O  O211  1  0.50735376  0.11709873  0.24359898  1
  O  O212  1  0.48779814  0.13292198  0.75507297  1
  O  O213  1  0.49305047  0.62986739  0.24164834  1
  O  O214  1  0.49575066  0.63664628  0.74533029  1
  O  O215  1  1.00832000  0.13437545  0.23855866  1
  O  O216  1  1.00716386  0.12857283  0.74344697  1
  O  O217  1  0.99405751  0.62931016  0.24246018  1
  O  O218  1  0.98529794  0.60289173  0.74278793  1
  O  O219  1  0.37465497  0.25421035  0.01034594  1
  O  O220  1  0.38828891  0.26543495  0.51389917  1
  O  O221  1  0.36564425  0.75469383  0.00220455  1
  O  O222  1  0.38377228  0.76297611  0.51077730  1
  O  O223  1  0.86416436  0.25218740  -0.00068019  1
  O  O224  1  0.85786086  0.25005575  0.48839652  1
  O  O225  1  0.86878862  0.75896537  0.00150976  1
  O  O226  1  0.87586254  0.76212206  0.50102325  1
  O  O227  1  0.11185529  0.24846935  0.50863588  1
  O  O228  1  0.12444684  0.24552900  0.99007940  1
  O  O229  1  0.11692291  0.74189778  0.48873264  1
  O  O230  1  0.13763400  0.75287715  0.98390107  1
  O  O231  1  0.63272072  0.24239349  0.49314333  1
  O  O232  1  0.63497941  0.23887381  0.99896795  1
  O  O233  1  0.61615483  0.74785538  0.48921872  1
  O  O234  1  0.62870134  0.74319286  0.99217323  1
  O  O235  1  0.49257767  0.23793182  0.12592988  1
  O  O236  1  0.48975886  0.25616236  0.63773571  1
  O  O237  1  0.48684954  0.74289287  0.12391093  1
  O  O238  1  0.49325590  0.75348654  0.63295339  1
  O  O239  1  0.99535274  0.24649299  0.13708754  1
  O  O240  1  1.00245333  0.23788910  0.64249676  1
  O  O241  1  0.99581033  0.73999750  0.12583831  1
  O  O242  1  0.97897816  0.75533325  0.61739963  1
  O  O243  1  -0.00005777  0.26431287  0.36796997  1
  O  O244  1  0.00690684  0.24914540  0.87391114  1
  O  O245  1  0.00714591  0.75336368  0.36805433  1
  O  O246  1  0.01344907  0.74310073  0.87997668  1
  O  O247  1  0.51137416  0.26201560  0.38465270  1
  O  O248  1  0.50400999  0.25605274  0.86032600  1
  O  O249  1  0.49703199  0.76647252  0.36897718  1
  O  O250  1  0.50555633  0.75799181  0.86445675  1
  O  O251  1  0.22502210  0.12720679  0.51307447  1
  O  O252  1  0.23625649  0.12555359  0.99595067  1
  O  O253  1  0.24008090  0.61909801  0.49019956  1
  O  O254  1  0.25435041  0.63832490  0.99883835  1
  O  O255  1  0.73942471  0.13111872  0.48990116  1
  O  O256  1  0.74063400  0.12850500  0.99868544  1
  O  O257  1  0.75075835  0.61745103  0.48223368  1
  O  O258  1  0.74040947  0.63241522  0.99896866  1
  O  O259  1  0.25040103  0.36677538  0.01294663  1
  O  O260  1  0.26709611  0.38710385  0.50329095  1
  O  O261  1  0.25548508  0.86687772  -0.00001578  1
  O  O262  1  0.25889535  0.88411570  0.50975483  1
  O  O263  1  0.75072645  0.36309952  0.00398328  1
  O  O264  1  0.74837291  0.36076847  0.49520343  1
  O  O265  1  0.75397538  0.86835607  0.00500683  1
  O  O266  1  0.75620448  0.88106346  0.50901543  1
  O  O267  1  0.13462082  0.50726702  0.24360000  1
  O  O268  1  0.12188424  0.48980622  0.74473919  1
  O  O269  1  0.13018338  0.98632105  0.25858138  1
  O  O270  1  0.13587395  0.98460512  0.75705125  1
  O  O271  1  0.63075721  0.48683540  0.24888822  1
  O  O272  1  0.63434924  0.49229632  0.74272815  1
  O  O273  1  0.63780025  0.99791779  0.24400950  1
  O  O274  1  0.61684587  0.98952085  0.75006944  1
  O  O275  1  0.36082521  0.00061529  0.25209311  1
  O  O276  1  0.36843250  0.00702311  0.75352058  1
  O  O277  1  0.36853600  0.51107355  0.25668939  1
  O  O278  1  0.38083995  0.51824405  0.73936225  1
  O  O279  1  0.86548536  -0.00572388  0.26123355  1
  O  O280  1  0.87436147  -0.01174037  0.76590837  1
  O  O281  1  0.87077322  0.50388189  0.25660434  1
  O  O282  1  0.86727256  0.48627903  0.76124113  1
  O  O283  1  0.11568184  0.38380049  0.37088850  1
  O  O284  1  0.11994396  0.36562680  0.87170443  1
  O  O285  1  0.11952446  0.86513772  0.36840799  1
  O  O286  1  0.12727801  0.86192507  0.85882300  1
  O  O287  1  0.61975444  0.36899222  0.36968023  1
  O  O288  1  0.61729460  0.37134115  0.86201742  1
  O  O289  1  0.61171849  0.88109721  0.37339519  1
  O  O290  1  0.62099231  0.87126281  0.86446983  1
  O  O291  1  0.38641728  0.13514179  0.12286860  1
  O  O292  1  0.36870154  0.13250457  0.63586314  1
  O  O293  1  0.38029475  0.63392323  0.12854410  1
  O  O294  1  0.37948115  0.63602217  0.62970513  1
  O  O295  1  0.89347850  0.12495518  0.11478440  1
  O  O296  1  0.88962742  0.13552953  0.61470551  1
  O  O297  1  0.88246878  0.62838861  0.12906190  1
  O  O298  1  0.86916338  0.64193155  0.62113531  1
  O  O299  1  0.26593567  0.24512846  0.12978602  1
  O  O300  1  0.26290353  0.25328199  0.63263372  1
  O  O301  1  0.25798796  0.74941442  0.11204629  1
  O  O302  1  0.26365774  0.76092868  0.62877217  1
  O  O303  1  0.75117226  0.25109007  0.11769559  1
  O  O304  1  0.75350718  0.24432011  0.60834890  1
  O  O305  1  0.75592904  0.75450849  0.11903740  1
  O  O306  1  0.76090247  0.76059369  0.62212616  1
  O  O307  1  0.23761307  0.26627381  0.37594261  1
  O  O308  1  0.23954474  0.24122229  0.87396527  1
  O  O309  1  0.24070901  0.74168632  0.36965224  1
  O  O310  1  0.24967743  0.75009585  0.88367224  1
  O  O311  1  0.74064511  0.24376551  0.38124713  1
  O  O312  1  0.74944260  0.23564765  0.88517435  1
  O  O313  1  0.75517459  0.73325829  0.36837850  1
  O  O314  1  0.74377971  0.74855851  0.87791993  1
  O  O315  1  0.01365789  0.12533948  0.01198914  1
  O  O316  1  0.00784103  0.11895574  0.50422987  1
  O  O317  1  -0.00835132  0.61125149  0.01138287  1
  O  O318  1  0.01344700  0.61428313  0.49198985  1
  O  O319  1  0.51240713  0.12031876  -0.00442026  1
  O  O320  1  0.51432701  0.12138398  0.49492045  1
  O  O321  1  0.50911486  0.63150809  0.00792799  1
  O  O322  1  0.50368040  0.61277009  0.49852942  1
  O  O323  1  0.49657051  0.38654098  0.49191354  1
  O  O324  1  0.51008682  0.36739316  0.98037586  1
  O  O325  1  0.49162297  0.88603482  0.49311641  1
  O  O326  1  0.49394488  0.88089534  0.99210320  1
  O  O327  1  1.00226963  0.38854270  0.48179938  1
  O  O328  1  0.99411032  0.38081820  0.99896312  1
  O  O329  1  0.98863124  0.88182887  0.49309586  1
  O  O330  1  0.98622394  0.86980896  1.00127647  1
  O  O331  1  0.49781881  0.49503076  0.38209375  1
  O  O332  1  0.49692038  0.48452338  0.86576886  1
  O  O333  1  0.49313037  0.99436964  0.38535803  1
  O  O334  1  0.49354654  0.99609098  0.87958956  1
  O  O335  1  0.99496127  0.49356798  0.37699717  1
  O  O336  1  0.99328857  0.49169077  0.88596781  1
  O  O337  1  0.99119232  0.99655515  0.37934969  1
  O  O338  1  0.98406578  1.00682508  0.87692651  1
  O  O339  1  0.00101216  0.01186147  0.13532390  1
  O  O340  1  -0.01292373  0.00748889  0.61180597  1
  O  O341  1  0.00495304  0.50382028  0.12232066  1
  O  O342  1  0.01302682  0.49770905  0.61187514  1
  O  O343  1  0.50270900  0.00822317  0.11776432  1
  O  O344  1  0.49752481  -0.00344049  0.61225044  1
  O  O345  1  0.50069248  0.51445609  0.13199981  1
  O  O346  1  0.51241342  0.50081122  0.61642039  1
  O  O347  1  0.26125173  0.39504275  0.24578807  1
  O  O348  1  0.23360933  0.37062303  0.74894928  1
  O  O349  1  0.24044207  0.88221961  0.24315703  1
  O  O350  1  0.24735973  0.88109937  0.74097629  1
  O  O351  1  0.74223236  0.37709978  0.24665319  1
  O  O352  1  0.74014295  0.37969767  0.75554578  1
  O  O353  1  0.75061606  0.88554224  0.24134259  1
  O  O354  1  0.74047683  0.87442113  0.73483852  1
  O  O355  1  0.23438743  0.11003166  0.25937735  1
  O  O356  1  0.25317358  0.11574245  0.75278730  1
  O  O357  1  0.25529917  0.62071169  0.25992717  1
  O  O358  1  0.26909599  0.62821469  0.74687061  1
  O  O359  1  0.74530150  0.11658164  0.26011369  1
  O  O360  1  0.74897785  0.12908065  0.76467267  1
  O  O361  1  0.75606342  0.61786286  0.25558240  1
  O  O362  1  0.75683257  0.60901701  0.75353571  1
  O  O363  1  0.35297871  0.12538805  0.40292583  1
  O  O364  1  0.36774653  0.12155919  0.86443019  1
  O  O365  1  0.36912010  0.62498718  0.37345420  1
  O  O366  1  0.38713104  0.62478541  0.85790618  1
  O  O367  1  0.86452707  0.11446446  0.38323767  1
  O  O368  1  0.86284953  0.11062592  0.88361886  1
  O  O369  1  0.86923505  0.61545746  0.36930573  1
  O  O370  1  0.87249600  0.60850843  0.87822953  1
  O  O371  1  0.12372760  0.38794273  0.12759469  1
  O  O372  1  0.12197108  0.38233903  0.63398994  1
  O  O373  1  0.12252848  0.86491876  0.13710612  1
  O  O374  1  0.13671013  0.86173828  0.63649568  1
  O  O375  1  0.62726380  0.37226750  0.13408824  1
  O  O376  1  0.61950906  0.38354882  0.63439751  1
  O  O377  1  0.62933285  0.88215307  0.12290105  1
  O  O378  1  0.63749510  0.87513609  0.62779788  1
  O  O379  1  0.10897282  0.25258089  0.24507376  1
  O  O380  1  0.11697364  0.25188163  0.76251169  1
  O  O381  1  0.12092137  0.75490666  0.25899930  1
  O  O382  1  0.12667428  0.75790597  0.75812817  1
  O  O383  1  0.62981280  0.25981204  0.26129355  1
  O  O384  1  0.61882226  0.25544690  0.74637103  1
  O  O385  1  0.62266851  0.75641962  0.25676084  1
  O  O386  1  0.61750398  0.75543201  0.75137846  1
  O  O387  1  0.37873027  0.25099351  0.24121497  1
  O  O388  1  0.38033107  0.24317934  0.74397788  1
  O  O389  1  0.37082660  0.74766224  0.23785309  1
  O  O390  1  0.38520513  0.74459758  0.74213899  1
  O  O391  1  0.89161880  0.24890809  0.25486083  1
  O  O392  1  0.88989352  0.25340847  0.75807048  1
  O  O393  1  0.88214824  0.74633280  0.24119189  1
  O  O394  1  0.87043212  0.75127197  0.73700647  1
  O  O395  1  0.38601337  0.49594218  0.49811855  1
  O  O396  1  0.38164959  0.49140806  1.00686479  1
  O  O397  1  0.38167207  0.99097167  0.50181680  1
  O  O398  1  0.37775251  0.99736075  0.99391892  1
  O  O399  1  0.88599584  0.50286944  0.49205963  1
  O  O400  1  0.88052949  0.49154775  0.99506011  1
  O  O401  1  0.87965077  0.99102898  0.48736799  1
  O  O402  1  0.87246691  0.98402496  0.99440223  1
  O  O403  1  0.12777467  0.00756391  -0.00523141  1
  O  O404  1  0.10808003  -0.00927144  0.49597908  1
  O  O405  1  0.11152643  0.49521274  0.00894165  1
  O  O406  1  0.12219891  0.50854763  0.50623060  1
  O  O407  1  0.61994857  0.00639686  0.00468562  1
  O  O408  1  0.61827126  0.01523603  0.49527035  1
  O  O409  1  0.63087868  0.51300988  -0.00068125  1
  O  O410  1  0.62126363  0.49811410  0.50796999  1
  O  O411  1  0.38186147  0.35775341  0.12739289  1
  O  O412  1  0.37289060  0.37064798  0.62074113  1
  O  O413  1  0.37513621  0.86558418  0.11522206  1
  O  O414  1  0.36764060  0.86935121  0.61845599  1
  O  O415  1  0.86587945  0.37139175  0.12025546  1
  O  O416  1  0.90678222  0.35970851  0.61202758  1
  O  O417  1  0.87013017  0.87005467  0.11269676  1
  O  O418  1  0.86276122  0.86764909  0.61682379  1
  O  O419  1  0.12408197  0.12686954  0.39608080  1
  O  O420  1  0.12682860  0.12865705  0.88671568  1
  O  O421  1  0.13239968  0.63211556  0.38022805  1
  O  O422  1  0.12912711  0.63787980  0.86230848  1
  O  O423  1  0.63325966  0.13315910  0.38030570  1
  O  O424  1  0.63733482  0.12281733  0.88271523  1
  O  O425  1  0.64132184  0.62088206  0.37021653  1
  O  O426  1  0.62370677  0.63079131  0.88153986  1
