# generated using pymatgen
data_V85Zn86O256
_symmetry_space_group_name_H-M   'P 1'
_cell_length_a   16.96604840
_cell_length_b   16.96494193
_cell_length_c   16.96831602
_cell_angle_alpha   90.09394016
_cell_angle_beta   90.15083724
_cell_angle_gamma   89.96895172
_symmetry_Int_Tables_number   1
_chemical_formula_structural   V85Zn86O256
_chemical_formula_sum   'V85 Zn86 O256'
_cell_volume   4883.93271006
_cell_formula_units_Z   1
loop_
 _symmetry_equiv_pos_site_id
 _symmetry_equiv_pos_as_xyz
  1  'x, y, z'
loop_
 _atom_site_type_symbol
 _atom_site_label
 _atom_site_symmetry_multiplicity
 _atom_site_fract_x
 _atom_site_fract_y
 _atom_site_fract_z
 _atom_site_occupancy
  V  V0  1  0.25581849  0.24982507  0.00149476  1
  V  V1  1  0.12760836  0.24854183  0.38057000  1
  V  V2  1  0.12072316  0.62412863  0.49978085  1
  V  V3  1  0.86983918  0.87907446  0.49611186  1
  V  V4  1  0.61803017  0.87279062  0.75619300  1
  V  V5  1  0.25111975  0.86975699  0.62074925  1
  V  V6  1  0.49464326  0.12440128  0.12783016  1
  V  V7  1  0.37877249  -0.02168886  0.38278072  1
  V  V8  1  0.62293556  0.00379389  0.62368092  1
  V  V9  1  0.87637305  0.74941404  0.12743734  1
  V  V10  1  -0.00707802  0.00148222  0.49510350  1
  V  V11  1  0.12439321  0.87865670  0.25015979  1
  V  V12  1  0.12489066  0.50104524  0.62391273  1
  V  V13  1  0.61750539  0.25592612  0.87567176  1
  V  V14  1  0.87576507  0.12720039  0.75007182  1
  V  V15  1  0.75406007  0.37273213  0.12593128  1
  V  V16  1  0.75096559  0.12736224  0.87576773  1
  V  V17  1  0.61491649  0.37592430  0.75253050  1
  V  V18  1  0.13136258  0.12590780  0.50138491  1
  V  V19  1  0.25381586  0.87864076  0.12046073  1
  V  V20  1  0.62565892  0.37196667  0.25251697  1
  V  V21  1  0.61350929  0.74936589  0.36459230  1
  V  V22  1  0.12494243  0.37188942  0.25065861  1
  V  V23  1  0.49550281  0.62869797  0.12436330  1
  V  V24  1  0.87707311  0.62818822  0.74999922  1
  V  V25  1  0.62408676  0.49820105  0.12389614  1
  V  V26  1  0.63050378  0.24989960  0.37987584  1
  V  V27  1  0.12570287  0.49885034  0.12280876  1
  V  V28  1  -0.00096400  0.87123648  0.87181047  1
  V  V29  1  -0.00324164  0.62028056  0.62191700  1
  V  V30  1  0.12273791  0.00931629  0.12495911  1
  V  V31  1  -0.00718529  0.87915288  0.37421847  1
  V  V32  1  0.86973507  0.25092592  0.61408031  1
  V  V33  1  0.38598310  0.74822221  0.62460175  1
  V  V34  1  0.74903902  0.87550722  0.62559215  1
  V  V35  1  0.12409181  -0.00187571  0.62843061  1
  V  V36  1  -0.00200150  0.38657368  0.37791771  1
  V  V37  1  0.00246847  0.75074682  0.24846380  1
  V  V38  1  0.25683732  0.12670900  0.38033403  1
  V  V39  1  0.63477995  -0.00544910  0.12783945  1
  V  V40  1  0.86765902  0.11764577  0.25881094  1
  V  V41  1  0.00374328  0.25093513  0.75199180  1
  V  V42  1  0.87505081  0.39418630  0.49631854  1
  V  V43  1  0.26191577  0.36985313  0.12710492  1
  V  V44  1  0.12895272  0.75187073  0.37903378  1
  V  V45  1  0.62700111  0.62208160  -0.00424384  1
  V  V46  1  0.37316667  0.47746201  0.87297489  1
  V  V47  1  0.12558378  0.12982503  -0.00854300  1
  V  V48  1  0.25073504  0.50773461  0.25546602  1
  V  V49  1  0.61623510  0.86650473  0.24048219  1
  V  V50  1  0.26248701  0.12566437  0.86744206  1
  V  V51  1  0.37924770  0.39251021  0.49570560  1
  V  V52  1  0.74848287  0.49715912  0.74600426  1
  V  V53  1  0.87574592  0.00093472  0.87589027  1
  V  V54  1  0.00073904  0.49746280  -0.00130683  1
  V  V55  1  0.87814098  0.75077402  0.62877912  1
  V  V56  1  -0.00131547  0.12593380  0.62473461  1
  V  V57  1  0.87143819  0.87517164  0.00503713  1
  V  V58  1  0.75980484  0.49896146  0.25299011  1
  V  V59  1  0.36759698  0.24667504  0.61905701  1
  V  V60  1  0.12113771  0.87164333  0.74980636  1
  V  V61  1  0.37408698  0.62033795  0.75589400  1
  V  V62  1  0.12447800  0.74949943  0.87466121  1
  V  V63  1  0.49836931  0.13026141  0.63084561  1
  V  V64  1  0.75178109  0.24944971  0.00055694  1
  V  V65  1  0.87515045  0.49945602  0.87386463  1
  V  V66  1  0.74816876  0.74920317  0.49723618  1
  V  V67  1  0.63068449  0.13875522  0.50523377  1
  V  V68  1  0.37709696  0.87863915  -0.01962039  1
  V  V69  1  0.75978852  0.62171126  0.37325041  1
  V  V70  1  0.12687733  0.38008306  0.74830173  1
  V  V71  1  0.00483156  0.37171870  0.87411543  1
  V  V72  1  0.49877314  -0.00267499  -0.01054157  1
  V  V73  1  0.87894938  0.24253049  0.12597988  1
  V  V74  1  0.24620822  0.37496786  0.61671556  1
  V  V75  1  0.25333160  -0.00036489  0.25185603  1
  V  V76  1  0.62569883  0.12329662  0.00181592  1
  V  V77  1  0.00053030  0.24136417  0.24738412  1
  V  V78  1  0.49486665  0.24826992  0.25026698  1
  V  V79  1  0.61760278  0.61790512  0.50314193  1
  V  V80  1  0.00083578  0.00584705  0.00441005  1
  V  V81  1  0.12781461  0.62483224  -0.00015994  1
  V  V82  1  0.61106420  0.50224967  0.62358348  1
  V  V83  1  0.75136939  0.00050756  0.75099525  1
  V  V84  1  0.75032370  0.75034071  0.00392443  1
  Zn  Zn85  1  0.00280091  0.62420260  0.12645654  1
  Zn  Zn86  1  0.25812388  0.74382959  -0.00288442  1
  Zn  Zn87  1  0.39392187  0.36408262  0.01752393  1
  Zn  Zn88  1  0.49625530  -0.00622840  0.49842790  1
  Zn  Zn89  1  0.88339374  0.61794226  0.25280292  1
  Zn  Zn90  1  0.27236556  -0.00190215  0.76106030  1
  Zn  Zn91  1  0.39199496  0.62936673  0.26413865  1
  Zn  Zn92  1  0.25571406  0.75083098  0.50107222  1
  Zn  Zn93  1  0.62119292  0.75486278  0.88074541  1
  Zn  Zn94  1  0.48588188  0.25089779  0.75799779  1
  Zn  Zn95  1  0.26380739  0.60814257  0.39223235  1
  Zn  Zn96  1  0.24411097  0.61062048  0.86653487  1
  Zn  Zn97  1  0.74871388  0.62572379  0.87288024  1
  Zn  Zn98  1  0.37561090  0.12820914  0.25119496  1
  Zn  Zn99  1  0.50568808  0.48785462  -0.01336754  1
  Zn  Zn100  1  0.74228615  0.36960190  0.61310997  1
  Zn  Zn101  1  0.50393597  0.39755127  0.38641492  1
  Zn  Zn102  1  0.75125077  0.11148671  0.38772043  1
  Zn  Zn103  1  0.75443853  -0.01978870  0.26994702  1
  Zn  Zn104  1  0.49540249  0.75025704  0.76390641  1
  Zn  Zn105  1  0.38660089  0.76234009  0.12820752  1
  Zn  Zn106  1  0.87744431  0.37315046  -0.00051622  1
  Zn  Zn107  1  0.19119078  0.18803460  0.18807244  1
  Zn  Zn108  1  0.18786298  0.19055948  0.68613226  1
  Zn  Zn109  1  0.21763666  0.70651756  0.20145171  1
  Zn  Zn110  1  0.18921786  0.68717133  0.68928495  1
  Zn  Zn111  1  0.68720782  0.18454324  0.18877401  1
  Zn  Zn112  1  0.68812419  0.19233179  0.69154956  1
  Zn  Zn113  1  0.69044211  0.68398973  0.18470770  1
  Zn  Zn114  1  0.68780475  0.68725140  0.68612275  1
  Zn  Zn115  1  0.31210055  0.31598607  0.31600076  1
  Zn  Zn116  1  0.30234839  0.30045330  0.80745777  1
  Zn  Zn117  1  0.33687979  0.78109184  0.32470984  1
  Zn  Zn118  1  0.30474106  0.80709719  0.80472623  1
  Zn  Zn119  1  0.81430787  0.30878285  0.31775214  1
  Zn  Zn120  1  0.81200790  0.31354208  0.80921284  1
  Zn  Zn121  1  0.80490116  0.81103882  0.30773596  1
  Zn  Zn122  1  0.80696638  0.81235867  0.81650652  1
  Zn  Zn123  1  0.18320303  0.43693234  0.44042064  1
  Zn  Zn124  1  0.19218521  0.43262025  0.93659636  1
  Zn  Zn125  1  0.18605447  0.93904520  0.43982242  1
  Zn  Zn126  1  0.18970278  0.94307673  0.93456519  1
  Zn  Zn127  1  0.69240827  0.43702240  0.43633466  1
  Zn  Zn128  1  0.69188093  0.43537399  0.93601279  1
  Zn  Zn129  1  0.66141583  0.93243170  0.43997068  1
  Zn  Zn130  1  0.68859563  0.94011629  0.93985850  1
  Zn  Zn131  1  0.31415487  0.06084249  0.05652122  1
  Zn  Zn132  1  0.32867982  0.04199592  0.58440089  1
  Zn  Zn133  1  0.31363227  0.55011864  0.05440465  1
  Zn  Zn134  1  0.30779901  0.56678657  0.57389240  1
  Zn  Zn135  1  0.81343869  0.06383956  0.06652432  1
  Zn  Zn136  1  0.80842358  0.06563313  0.56289923  1
  Zn  Zn137  1  0.81452700  0.56275952  0.06395809  1
  Zn  Zn138  1  0.80580295  0.56242471  0.56393559  1
  Zn  Zn139  1  0.44929242  0.45604723  0.22047149  1
  Zn  Zn140  1  0.43072476  0.43794151  0.68805857  1
  Zn  Zn141  1  0.44140873  0.94248118  0.18799032  1
  Zn  Zn142  1  0.43785233  0.93631193  0.68959447  1
  Zn  Zn143  1  0.94200287  0.42976158  0.18783922  1
  Zn  Zn144  1  0.93684902  0.43757735  0.68367026  1
  Zn  Zn145  1  0.93700158  0.93876984  0.18635324  1
  Zn  Zn146  1  0.93685273  0.93784867  0.68613925  1
  Zn  Zn147  1  0.06207821  0.06423830  0.31364893  1
  Zn  Zn148  1  0.06442665  0.06159995  0.81403722  1
  Zn  Zn149  1  0.06990438  0.56645679  0.31005969  1
  Zn  Zn150  1  0.05879293  0.56234082  0.81003146  1
  Zn  Zn151  1  0.56549229  0.05950823  0.31505733  1
  Zn  Zn152  1  0.56337870  0.06680233  0.81028217  1
  Zn  Zn153  1  0.56832269  0.56466756  0.31271178  1
  Zn  Zn154  1  0.55308497  0.56241370  0.81033581  1
  Zn  Zn155  1  0.44525227  0.19706729  0.44477346  1
  Zn  Zn156  1  0.43707584  0.18507394  0.94205136  1
  Zn  Zn157  1  0.43829191  0.68314937  0.44634365  1
  Zn  Zn158  1  0.44078871  0.68711476  0.93710667  1
  Zn  Zn159  1  0.94054595  0.18962178  0.43417166  1
  Zn  Zn160  1  0.93954968  0.18863027  0.93717677  1
  Zn  Zn161  1  0.93956665  0.69098449  0.43858195  1
  Zn  Zn162  1  0.93993841  0.68581441  0.93832796  1
  Zn  Zn163  1  0.06657500  0.31068331  0.06355526  1
  Zn  Zn164  1  0.05481581  0.31316154  0.56086238  1
  Zn  Zn165  1  0.06492025  0.81513700  0.06235271  1
  Zn  Zn166  1  0.05872291  0.81187286  0.56162267  1
  Zn  Zn167  1  0.56433286  0.30905264  0.06762856  1
  Zn  Zn168  1  0.55400170  0.31839778  0.56528037  1
  Zn  Zn169  1  0.55994043  0.81348386  0.05720417  1
  Zn  Zn170  1  0.56033713  0.81578741  0.55923910  1
  O  O171  1  0.13237908  0.11366458  0.11702376  1
  O  O172  1  0.11913930  0.11861795  0.61967894  1
  O  O173  1  0.12521666  0.61140792  0.11427781  1
  O  O174  1  0.11585702  0.62131914  0.62234713  1
  O  O175  1  0.61915997  0.11560716  0.12111155  1
  O  O176  1  0.61910565  0.12588729  0.62489282  1
  O  O177  1  0.62150102  0.61668979  0.11618313  1
  O  O178  1  0.63141213  0.61975260  0.61004402  1
  O  O179  1  0.37083165  0.37430326  0.39401863  1
  O  O180  1  0.37180495  0.37805481  0.86099403  1
  O  O181  1  0.37122173  0.87953842  0.37097482  1
  O  O182  1  0.36677497  0.87340134  0.88228968  1
  O  O183  1  0.88317092  0.36953779  0.38753122  1
  O  O184  1  0.88642303  0.38071169  0.87367142  1
  O  O185  1  0.88596331  0.86655257  0.37867077  1
  O  O186  1  0.88145364  0.87932251  0.88264852  1
  O  O187  1  0.25831136  0.00475294  0.37087990  1
  O  O188  1  0.24921048  0.01690021  0.87240964  1
  O  O189  1  0.24131724  0.49726709  0.36066465  1
  O  O190  1  0.26534889  0.49591718  0.87603970  1
  O  O191  1  0.73242010  -0.00121710  0.37998590  1
  O  O192  1  0.75744057  0.00712674  0.87192473  1
  O  O193  1  0.74576175  0.50997499  0.36379395  1
  O  O194  1  0.75695539  0.50134277  0.86386164  1
  O  O195  1  0.24013160  0.49197081  0.13067683  1
  O  O196  1  0.23354932  0.49075343  0.62668764  1
  O  O197  1  0.24417389  0.99783121  0.13219323  1
  O  O198  1  0.22769354  0.99040154  0.61626690  1
  O  O199  1  0.74426956  0.49486257  0.13166251  1
  O  O200  1  0.74057465  0.49775441  0.63461623  1
  O  O201  1  0.73667408  1.00472957  0.12783490  1
  O  O202  1  0.74464894  0.99620071  0.63249516  1
  O  O203  1  0.00474721  0.36192793  0.25866476  1
  O  O204  1  0.00463840  0.36974208  0.75425511  1
  O  O205  1  0.00443739  0.87351275  0.25699840  1
  O  O206  1  0.00551118  0.88120138  0.76224330  1
  O  O207  1  0.51719511  0.36157925  0.23880488  1
  O  O208  1  0.51243550  0.37413032  0.74563339  1
  O  O209  1  0.51435993  0.86971279  0.24202607  1
  O  O210  1  0.51568672  0.87811367  0.74800432  1
  O  O211  1  0.50097816  0.13069322  0.24550755  1
  O  O212  1  0.50277928  0.12872384  0.73584904  1
  O  O213  1  0.50349823  0.62371563  0.22954497  1
  O  O214  1  0.48153262  0.63065673  0.75150244  1
  O  O215  1  0.98862828  0.13372321  0.25719099  1
  O  O216  1  0.99660907  0.13177692  0.74649829  1
  O  O217  1  1.00063957  0.63412978  0.24808278  1
  O  O218  1  0.98542575  0.62281181  0.73919214  1
  O  O219  1  0.36260140  0.25160173  0.00082537  1
  O  O220  1  0.38159549  0.26959716  0.51432389  1
  O  O221  1  0.37414159  0.76683118  0.00504843  1
  O  O222  1  0.37368273  0.74346782  0.52005134  1
  O  O223  1  0.87195893  0.24787158  0.00967175  1
  O  O224  1  0.88057353  0.24832083  0.51165317  1
  O  O225  1  0.87160359  0.75589223  0.00573706  1
  O  O226  1  0.86518394  0.75612063  0.50698185  1
  O  O227  1  0.11464475  0.23776374  0.49162433  1
  O  O228  1  0.13457176  0.23657535  1.00880019  1
  O  O229  1  0.12076082  0.74215020  0.49445568  1
  O  O230  1  0.12213779  0.73980099  0.99243139  1
  O  O231  1  0.61533420  0.24930222  0.49333254  1
  O  O232  1  0.63266407  0.24327759  0.99418472  1
  O  O233  1  0.63284826  0.73807648  0.49181423  1
  O  O234  1  0.63571165  0.74128930  1.00454644  1
  O  O235  1  0.51020366  0.23422805  0.13677201  1
  O  O236  1  0.49009807  0.24548406  0.62900706  1
  O  O237  1  0.50059317  0.73319690  0.11558121  1
  O  O238  1  0.48868632  0.75897220  0.62831911  1
  O  O239  1  0.99284596  0.25518643  0.13686115  1
  O  O240  1  0.99091074  0.24447539  0.63248012  1
  O  O241  1  0.99487554  0.75095385  0.13000181  1
  O  O242  1  0.98404843  0.74303490  0.62147813  1
  O  O243  1  0.01087810  0.25456600  0.36611503  1
  O  O244  1  -0.00530740  0.25989476  0.86427789  1
  O  O245  1  0.00869300  0.75983531  0.37032869  1
  O  O246  1  0.00877295  0.76234049  0.88159688  1
  O  O247  1  0.51164604  0.25572534  0.36562956  1
  O  O248  1  0.51395646  0.24059730  0.87402349  1
  O  O249  1  0.51587368  0.73948070  0.37611951  1
  O  O250  1  0.50944602  0.75136783  0.87704419  1
  O  O251  1  0.23497595  0.11495667  0.49442382  1
  O  O252  1  0.24572225  0.12970051  0.99226305  1
  O  O253  1  0.23570933  0.63037140  0.50361708  1
  O  O254  1  0.23787273  0.62291878  0.99650613  1
  O  O255  1  0.73714531  0.13382951  0.50549169  1
  O  O256  1  0.74606136  0.12924930  0.99537107  1
  O  O257  1  0.74579305  0.63191476  0.49189993  1
  O  O258  1  0.74440762  0.63172976  0.99898614  1
  O  O259  1  0.24774301  0.36347517  0.01078002  1
  O  O260  1  0.25313305  0.37645167  0.51116745  1
  O  O261  1  0.26379980  0.88583756  0.00465549  1
  O  O262  1  0.23960701  0.87145420  0.51544094  1
  O  O263  1  0.75471705  0.36723288  0.00721844  1
  O  O264  1  0.76883858  0.37775373  0.49779024  1
  O  O265  1  0.76310161  0.86676803  -0.00592583  1
  O  O266  1  0.74980127  0.86497035  0.50458918  1
  O  O267  1  0.12865405  0.49071787  0.23968118  1
  O  O268  1  0.11601002  0.49011600  0.73847549  1
  O  O269  1  0.13126093  0.99999956  0.24442406  1
  O  O270  1  0.12032798  0.99036111  0.74036089  1
  O  O271  1  0.63921192  0.49098342  0.24150168  1
  O  O272  1  0.62962839  0.49664641  0.74465594  1
  O  O273  1  0.62258931  0.98422780  0.24386574  1
  O  O274  1  0.63103726  0.99498809  0.74303456  1
  O  O275  1  0.36613715  0.00211789  0.26298825  1
  O  O276  1  0.35941040  0.01238261  0.69484297  1
  O  O277  1  0.35207533  0.51690807  0.24166889  1
  O  O278  1  0.37483224  0.51115585  0.75788254  1
  O  O279  1  0.87318210  0.01371080  0.24440364  1
  O  O280  1  0.87200357  0.00633721  0.75530831  1
  O  O281  1  0.86406000  0.49748947  0.24153952  1
  O  O282  1  0.86739540  0.50700866  0.75082604  1
  O  O283  1  0.11896182  0.36491998  0.37349495  1
  O  O284  1  0.11335394  0.38233364  0.86346519  1
  O  O285  1  0.11270178  0.87251117  0.37228606  1
  O  O286  1  0.11797199  0.87184829  0.87037685  1
  O  O287  1  0.62432520  0.37112890  0.36722971  1
  O  O288  1  0.63041782  0.36610362  0.86671298  1
  O  O289  1  0.62668313  0.85344625  0.35704234  1
  O  O290  1  0.63401466  0.87889469  0.85862953  1
  O  O291  1  0.38996800  0.11325628  0.12906093  1
  O  O292  1  0.38180087  0.14332352  0.60808576  1
  O  O293  1  0.39473371  0.61400693  0.11015472  1
  O  O294  1  0.36915196  0.63832420  0.63938966  1
  O  O295  1  0.87206754  0.13604991  0.13754102  1
  O  O296  1  0.87974609  0.13112053  0.63099863  1
  O  O297  1  0.88190742  0.63632556  0.12630602  1
  O  O298  1  0.87811013  0.63093376  0.62916726  1
  O  O299  1  0.24865196  0.25887850  0.12010043  1
  O  O300  1  0.25915609  0.25644473  0.62207706  1
  O  O301  1  0.23369165  0.77350779  0.11064831  1
  O  O302  1  0.25266191  0.75842805  0.62533670  1
  O  O303  1  0.75770468  0.25259716  0.12107692  1
  O  O304  1  0.76493224  0.25594151  0.63609784  1
  O  O305  1  0.76243387  0.74385069  0.11357382  1
  O  O306  1  0.75685575  0.75308519  0.61476438  1
  O  O307  1  0.23533105  0.24149242  0.36811867  1
  O  O308  1  0.24694963  0.23839546  0.88723062  1
  O  O309  1  0.23187934  0.76315407  0.38063876  1
  O  O310  1  0.23242650  0.75268322  0.88007396  1
  O  O311  1  0.73334696  0.24541474  0.36985033  1
  O  O312  1  0.74512332  0.24592174  0.88020926  1
  O  O313  1  0.74248029  0.74110787  0.38224263  1
  O  O314  1  0.74531621  0.74585059  0.88871805  1
  O  O315  1  0.00750676  0.11338246  -0.00656247  1
  O  O316  1  0.00695908  0.11734250  0.50301848  1
  O  O317  1  0.01128990  0.61606832  0.00037167  1
  O  O318  1  0.00685991  0.63047810  0.51091649  1
  O  O319  1  0.50604804  0.11833782  0.00936211  1
  O  O320  1  0.51121203  0.12309061  0.51278922  1
  O  O321  1  0.51336606  0.61413680  0.00779145  1
  O  O322  1  0.51924527  0.62118470  0.49469065  1
  O  O323  1  0.48611948  0.38729519  0.50141777  1
  O  O324  1  0.50436317  0.37532428  1.00383922  1
  O  O325  1  0.55550250  0.89764952  0.48655864  1
  O  O326  1  0.48574931  0.88266714  1.00221750  1
  O  O327  1  0.98777118  0.37307267  0.49054888  1
  O  O328  1  1.00247789  0.37718092  0.98976444  1
  O  O329  1  0.99235932  0.88263850  0.49325658  1
  O  O330  1  0.99331416  0.88456913  0.99157536  1
  O  O331  1  0.48674270  0.49149387  0.32830339  1
  O  O332  1  0.47943083  0.50104017  0.87259164  1
  O  O333  1  0.47864019  1.00577816  0.37275318  1
  O  O334  1  0.50782194  1.00827306  0.89032790  1
  O  O335  1  1.00820682  0.48506857  0.36516210  1
  O  O336  1  0.99449679  0.49135791  0.87808491  1
  O  O337  1  1.00449487  0.99148852  0.38409533  1
  O  O338  1  0.99521305  0.99204075  0.88422678  1
  O  O339  1  0.00935928  -0.00482251  0.11405797  1
  O  O340  1  0.00612128  0.00412454  0.61701130  1
  O  O341  1  0.01102354  0.49483528  0.11910415  1
  O  O342  1  0.00731690  0.51157275  0.62579479  1
  O  O343  1  0.51197246  0.00677724  0.11801002  1
  O  O344  1  0.51134920  0.00923926  0.62369863  1
  O  O345  1  0.51732561  0.50452247  0.12962717  1
  O  O346  1  0.51239243  0.50038907  0.63107165  1
  O  O347  1  0.24459172  0.38332460  0.24573056  1
  O  O348  1  0.23174125  0.36464156  0.73661381  1
  O  O349  1  0.24268556  0.88936250  0.24062645  1
  O  O350  1  0.23678546  0.88117147  0.74119806  1
  O  O351  1  0.74465462  0.37878299  0.24817424  1
  O  O352  1  0.74166760  0.38633918  0.74801507  1
  O  O353  1  0.73298480  0.87036975  0.24500402  1
  O  O354  1  0.74532761  0.88183197  0.74479751  1
  O  O355  1  0.25136972  0.11544677  0.26009135  1
  O  O356  1  0.24127594  0.12977909  0.76552790  1
  O  O357  1  0.22648103  0.60726208  0.25447344  1
  O  O358  1  0.26323454  0.62991536  0.75267421  1
  O  O359  1  0.76239164  0.12377444  0.25399494  1
  O  O360  1  0.75615149  0.12024737  0.75618151  1
  O  O361  1  0.75361125  0.61612981  0.25605603  1
  O  O362  1  0.75785225  0.61562882  0.74911277  1
  O  O363  1  0.36129948  0.13083295  0.38206886  1
  O  O364  1  0.36259820  0.12965102  0.87353796  1
  O  O365  1  0.35951420  0.66426649  0.36896069  1
  O  O366  1  0.36819913  0.62632859  0.86611272  1
  O  O367  1  0.87065645  0.13015504  0.36340321  1
  O  O368  1  0.87136865  0.12059445  0.86987863  1
  O  O369  1  0.86429909  0.63331981  0.37292508  1
  O  O370  1  0.87668749  0.62012199  0.86489575  1
  O  O371  1  0.13282270  0.38167461  0.13041142  1
  O  O372  1  0.12496829  0.38198108  0.62580761  1
  O  O373  1  0.13100388  0.89098934  0.12730796  1
  O  O374  1  0.12310129  0.87808716  0.63301270  1
  O  O375  1  0.63596357  0.37929917  0.13389389  1
  O  O376  1  0.62631343  0.38367731  0.63212074  1
  O  O377  1  0.62249959  0.87896493  0.13065729  1
  O  O378  1  0.63154090  0.88544408  0.63698009  1
  O  O379  1  0.11805968  0.25048782  0.25681949  1
  O  O380  1  0.10919849  0.26078590  0.73894542  1
  O  O381  1  0.12311267  0.75943556  0.25835587  1
  O  O382  1  0.12575726  0.76261071  0.75888779  1
  O  O383  1  0.62132255  0.25578984  0.25717060  1
  O  O384  1  0.62535675  0.26050783  0.76013197  1
  O  O385  1  0.62634724  0.75011139  0.25521853  1
  O  O386  1  0.62738580  0.76544717  0.74678736  1
  O  O387  1  0.38995811  0.25010298  0.25842592  1
  O  O388  1  0.37454655  0.26045556  0.72748192  1
  O  O389  1  0.33722611  0.72746217  0.22442967  1
  O  O390  1  0.37661521  0.74391182  0.74309496  1
  O  O391  1  0.88139730  0.24132003  0.24543393  1
  O  O392  1  0.88559869  0.24698391  0.74257998  1
  O  O393  1  0.88174676  0.75240081  0.23939140  1
  O  O394  1  0.86196247  0.74074585  0.73959522  1
  O  O395  1  0.36362500  0.49212730  0.50639895  1
  O  O396  1  0.37668499  0.48334848  0.98486915  1
  O  O397  1  0.37403794  0.99528817  0.48723428  1
  O  O398  1  0.38453495  0.98811370  1.00061759  1
  O  O399  1  0.87663634  0.49331377  0.50290818  1
  O  O400  1  0.88225914  0.49753751  0.99405352  1
  O  O401  1  0.88559045  0.99677151  0.50724184  1
  O  O402  1  0.88109372  0.99475280  0.99846450  1
  O  O403  1  0.11876366  0.00676227  0.00629318  1
  O  O404  1  0.11136165  0.00616820  0.50650650  1
  O  O405  1  0.12204556  0.50375648  0.00394468  1
  O  O406  1  0.12563552  0.51293216  0.50928160  1
  O  O407  1  0.62014227  0.00239473  0.00796836  1
  O  O408  1  0.63423939  0.02129277  0.52019386  1
  O  O409  1  0.63188329  0.50504213  0.00885186  1
  O  O410  1  0.63321778  0.51058629  0.50623915  1
  O  O411  1  0.36221793  0.38690120  0.13347069  1
  O  O412  1  0.36392295  0.37445937  0.61692205  1
  O  O413  1  0.36427522  0.87984676  0.12463230  1
  O  O414  1  0.36269567  0.85788042  0.63376654  1
  O  O415  1  0.87117750  0.36057262  0.12517502  1
  O  O416  1  0.87860597  0.37015349  0.60937420  1
  O  O417  1  0.88255105  0.86555955  0.11295304  1
  O  O418  1  0.86973084  0.86868580  0.61921506  1
  O  O419  1  0.13258762  0.12886372  0.38217612  1
  O  O420  1  0.13064736  0.12094532  0.88726317  1
  O  O421  1  0.12448995  0.63538221  0.38585914  1
  O  O422  1  0.12240798  0.63148068  0.87916745  1
  O  O423  1  0.62116605  0.13351616  0.38887485  1
  O  O424  1  0.63311802  0.13358281  0.88023711  1
  O  O425  1  0.63630617  0.63067670  0.38164917  1
  O  O426  1  0.62607267  0.61923749  0.88759285  1
