# generated using pymatgen
data_V85Zn86O256
_symmetry_space_group_name_H-M   'P 1'
_cell_length_a   16.96862880
_cell_length_b   16.95988192
_cell_length_c   16.95923994
_cell_angle_alpha   90.11709701
_cell_angle_beta   90.01764171
_cell_angle_gamma   90.02412295
_symmetry_Int_Tables_number   1
_chemical_formula_structural   V85Zn86O256
_chemical_formula_sum   'V85 Zn86 O256'
_cell_volume   4880.61996518
_cell_formula_units_Z   1
loop_
 _symmetry_equiv_pos_site_id
 _symmetry_equiv_pos_as_xyz
  1  'x, y, z'
loop_
 _atom_site_type_symbol
 _atom_site_label
 _atom_site_symmetry_multiplicity
 _atom_site_fract_x
 _atom_site_fract_y
 _atom_site_fract_z
 _atom_site_occupancy
  V  V0  1  0.87887290  0.00205974  0.88135332  1
  V  V1  1  0.50662267  0.73231503  0.73654577  1
  V  V2  1  0.11307806  -0.00310700  0.63414671  1
  V  V3  1  0.49928111  0.87188319  0.35464401  1
  V  V4  1  -0.00047559  0.75032283  0.75692602  1
  V  V5  1  0.37394199  0.00148285  0.36980855  1
  V  V6  1  0.00118654  0.48730000  0.49823139  1
  V  V7  1  0.60591570  0.12261072  0.00510314  1
  V  V8  1  0.36792214  0.36781997  -0.00642663  1
  V  V9  1  0.87604766  0.62535299  0.74897942  1
  V  V10  1  0.13170807  0.13582267  0.00279878  1
  V  V11  1  0.62381560  0.37612905  0.74857166  1
  V  V12  1  0.50116056  -0.00024608  0.49474883  1
  V  V13  1  0.75143143  0.00278251  0.74714468  1
  V  V14  1  0.62979286  0.12599584  0.49318183  1
  V  V15  1  0.23670211  0.62906022  0.37799419  1
  V  V16  1  0.37139650  0.75280861  0.13113686  1
  V  V17  1  0.62878512  0.00229096  0.12756492  1
  V  V18  1  0.62026240  0.74934631  0.36618676  1
  V  V19  1  0.49950675  0.50361346  0.50243228  1
  V  V20  1  0.75025507  0.25647934  0.50053669  1
  V  V21  1  0.75146500  0.62621148  0.87861139  1
  V  V22  1  0.38261231  0.73707667  0.62159867  1
  V  V23  1  0.25341028  0.11810992  0.87409387  1
  V  V24  1  0.05875573  0.04644368  0.44695019  1
  V  V25  1  0.62152815  0.25161290  0.87475115  1
  V  V26  1  0.86119583  0.87675327  0.00170375  1
  V  V27  1  0.00294641  0.63079560  0.61333236  1
  V  V28  1  0.24628123  0.49787203  0.24958917  1
  V  V29  1  0.86107965  0.12117145  0.24977441  1
  V  V30  1  0.49454470  0.25161396  0.74831271  1
  V  V31  1  0.62259694  0.50414128  0.62357123  1
  V  V32  1  0.12073384  -0.00124183  0.12073167  1
  V  V33  1  0.00223790  0.25137796  0.26471471  1
  V  V34  1  0.23916177  0.87188424  0.13206401  1
  V  V35  1  0.49880367  0.63137649  0.12999750  1
  V  V36  1  0.11649226  0.62280209  0.00639636  1
  V  V37  1  0.74899592  0.37631658  0.12335055  1
  V  V38  1  0.12993987  0.51249906  0.62588054  1
  V  V39  1  0.49815605  0.37340064  0.37407745  1
  V  V40  1  0.62828550  0.24526560  0.37240358  1
  V  V41  1  0.38006209  0.87275657  0.49735625  1
  V  V42  1  0.13136792  0.87326145  0.75867304  1
  V  V43  1  0.87804508  0.48745013  0.38025628  1
  V  V44  1  0.00043491  0.87661449  0.88339325  1
  V  V45  1  0.24024312  0.74215917  0.00179470  1
  V  V46  1  0.37419429  0.12453241  0.24307675  1
  V  V47  1  0.49606811  0.24459608  0.24320229  1
  V  V48  1  0.62418131  0.62499015  0.49857103  1
  V  V49  1  0.12650944  0.25243994  0.86094394  1
  V  V50  1  0.75192730  0.75145728  0.49769872  1
  V  V51  1  0.85370973  0.00151906  0.37296521  1
  V  V52  1  0.50117285  0.12397586  0.62425406  1
  V  V53  1  0.24848230  0.36657388  0.12608066  1
  V  V54  1  0.62289732  0.87618081  0.74657514  1
  V  V55  1  0.75188003  0.49855115  0.25060099  1
  V  V56  1  0.75238610  0.62461218  0.37453174  1
  V  V57  1  0.87669599  0.37226000  -0.00147969  1
  V  V58  1  0.37611887  0.62711340  0.25198168  1
  V  V59  1  -0.00302111  0.50254725  0.00718500  1
  V  V60  1  -0.00183585  0.12281897  0.11731116  1
  V  V61  1  0.87503742  0.49778014  0.87456937  1
  V  V62  1  0.86844821  0.75376503  0.12617055  1
  V  V63  1  0.36966270  0.53497205  0.87598306  1
  V  V64  1  0.12201662  0.37081607  0.26601131  1
  V  V65  1  0.88061564  0.25340577  0.62797593  1
  V  V66  1  0.24398035  -0.00266908  0.25144580  1
  V  V67  1  0.62678364  0.74887867  0.87083555  1
  V  V68  1  0.26019588  0.38101777  0.63579252  1
  V  V69  1  0.37104048  0.11076950  0.75195243  1
  V  V70  1  0.62886053  0.00123740  0.62004212  1
  V  V71  1  0.62239133  0.50176793  0.12425739  1
  V  V72  1  0.37443505  0.49965395  0.37491288  1
  V  V73  1  0.87532856  0.75320094  0.62181172  1
  V  V74  1  0.25559566  0.88064147  0.62810855  1
  V  V75  1  0.01288040  0.86523311  0.37689636  1
  V  V76  1  0.89033457  0.12808226  0.74761427  1
  V  V77  1  0.01031037  0.75285891  0.24662020  1
  V  V78  1  0.87449367  0.24844012  0.12361409  1
  V  V79  1  0.88188101  0.62485901  0.24509962  1
  V  V80  1  0.64555373  0.87861919  0.24298305  1
  V  V81  1  0.23996844  0.74768181  0.49652651  1
  V  V82  1  0.74904498  0.12567160  0.87654080  1
  V  V83  1  0.75317055  0.87652534  0.62047195  1
  V  V84  1  0.74952137  0.49972152  0.74793510  1
  Zn  Zn85  1  0.37625356  0.24109604  0.61735098  1
  Zn  Zn86  1  0.48393123  0.88429346  0.87821931  1
  Zn  Zn87  1  0.62295512  0.62866252  0.00163566  1
  Zn  Zn88  1  0.49524427  0.50497710  0.00045376  1
  Zn  Zn89  1  0.49375231  0.38421291  0.87485846  1
  Zn  Zn90  1  0.16906214  0.69357680  0.83656295  1
  Zn  Zn91  1  0.05313436  0.16437029  0.58311524  1
  Zn  Zn92  1  0.25448374  0.53815093  0.75549450  1
  Zn  Zn93  1  0.62261402  0.37257364  0.24674292  1
  Zn  Zn94  1  0.37306039  0.24428529  0.11950429  1
  Zn  Zn95  1  0.75560566  0.37905805  0.62018354  1
  Zn  Zn96  1  0.23371865  0.13479346  0.38070550  1
  Zn  Zn97  1  0.36929677  0.88109854  -0.01237356  1
  Zn  Zn98  1  -0.00665023  0.36453290  0.86387529  1
  Zn  Zn99  1  0.88014693  0.88634693  0.49941392  1
  Zn  Zn100  1  0.31213622  -0.06452806  0.81483491  1
  Zn  Zn101  1  0.23522856  0.24713939  0.49726174  1
  Zn  Zn102  1  0.74355631  0.75596299  0.00730390  1
  Zn  Zn103  1  0.36933461  0.37207245  0.50007754  1
  Zn  Zn104  1  0.12727038  0.39221503  0.75630644  1
  Zn  Zn105  1  0.74628830  0.25060186  0.00013423  1
  Zn  Zn106  1  0.11562735  0.49653108  0.12892867  1
  Zn  Zn107  1  0.18661668  0.18518988  0.19574431  1
  Zn  Zn108  1  0.19097300  0.19323539  0.67590830  1
  Zn  Zn109  1  0.18420728  0.67845589  0.18602514  1
  Zn  Zn110  1  0.19112960  0.69514523  0.67405382  1
  Zn  Zn111  1  0.68388258  0.19088240  0.18325860  1
  Zn  Zn112  1  0.69053318  0.18861608  0.68573515  1
  Zn  Zn113  1  0.69015994  0.68621114  0.19116992  1
  Zn  Zn114  1  0.69190931  0.68494602  0.68368603  1
  Zn  Zn115  1  0.30833163  0.30679793  0.31909776  1
  Zn  Zn116  1  0.30327485  0.30881107  0.81088482  1
  Zn  Zn117  1  0.30733294  0.81293889  0.31319510  1
  Zn  Zn118  1  0.33077457  0.73195545  0.82250767  1
  Zn  Zn119  1  0.81065094  0.30890720  0.30905469  1
  Zn  Zn120  1  0.80988594  0.31155107  0.80811348  1
  Zn  Zn121  1  0.81913142  0.81270625  0.31615371  1
  Zn  Zn122  1  0.81161021  0.81559813  0.81159811  1
  Zn  Zn123  1  0.18799328  0.44103859  0.44558452  1
  Zn  Zn124  1  0.19190744  0.44449353  0.93721613  1
  Zn  Zn125  1  0.19409596  0.92981079  0.43944034  1
  Zn  Zn126  1  0.18497971  0.93731834  0.94623341  1
  Zn  Zn127  1  0.68630992  0.43546575  0.43414641  1
  Zn  Zn128  1  0.68703718  0.43906150  0.93834544  1
  Zn  Zn129  1  0.68461981  0.93401868  0.43399041  1
  Zn  Zn130  1  0.65963846  0.95146299  0.92220801  1
  Zn  Zn131  1  0.30952455  0.05883358  0.05459476  1
  Zn  Zn132  1  0.31072786  0.06412176  0.55799690  1
  Zn  Zn133  1  0.31057287  0.56049243  0.06158279  1
  Zn  Zn134  1  0.31221493  0.56264639  0.55682810  1
  Zn  Zn135  1  0.80614253  0.06061405  0.06361580  1
  Zn  Zn136  1  0.81683921  0.06909956  0.56023974  1
  Zn  Zn137  1  0.81402493  0.56377237  0.06405647  1
  Zn  Zn138  1  0.81471553  0.56341737  0.56102547  1
  Zn  Zn139  1  0.43466057  0.43608741  0.18561323  1
  Zn  Zn140  1  0.43794961  0.45241981  0.69766624  1
  Zn  Zn141  1  0.42458889  0.96060242  0.14195481  1
  Zn  Zn142  1  0.44333456  0.93425296  0.68146184  1
  Zn  Zn143  1  0.93557318  0.43227829  0.19138155  1
  Zn  Zn144  1  0.94152918  0.43697052  0.68703211  1
  Zn  Zn145  1  0.93190415  0.93405081  0.19006922  1
  Zn  Zn146  1  0.93632112  0.93671405  0.69454318  1
  Zn  Zn147  1  0.04449768  0.05114693  0.28552610  1
  Zn  Zn148  1  0.06740151  0.06002977  0.81739149  1
  Zn  Zn149  1  0.05934072  0.56081637  0.31392431  1
  Zn  Zn150  1  0.05568597  0.55637016  0.81576419  1
  Zn  Zn151  1  0.56124830  0.05874325  0.30373173  1
  Zn  Zn152  1  0.55566130  0.06090542  0.81279678  1
  Zn  Zn153  1  0.56251447  0.56094376  0.31150527  1
  Zn  Zn154  1  0.56059651  0.56108314  0.81482795  1
  Zn  Zn155  1  0.43310001  0.18854684  0.43761140  1
  Zn  Zn156  1  0.43139425  0.18832143  0.93298551  1
  Zn  Zn157  1  0.43571243  0.68735692  0.43486744  1
  Zn  Zn158  1  0.45243172  0.71619659  0.95529341  1
  Zn  Zn159  1  0.92339401  0.18554457  0.43631890  1
  Zn  Zn160  1  0.94214630  0.18767914  0.93599322  1
  Zn  Zn161  1  0.93621949  0.68816907  0.43244353  1
  Zn  Zn162  1  0.93651069  0.68755304  0.94216940  1
  Zn  Zn163  1  0.06198502  0.31292945  0.06733054  1
  Zn  Zn164  1  0.06980360  0.32774089  0.57489363  1
  Zn  Zn165  1  0.05634667  0.81087542  0.06633743  1
  Zn  Zn166  1  0.06094304  0.81801558  0.56516195  1
  Zn  Zn167  1  0.55621291  0.31635781  0.05862650  1
  Zn  Zn168  1  0.56279668  0.31557355  0.56235744  1
  Zn  Zn169  1  0.55933956  0.81783886  0.06437199  1
  Zn  Zn170  1  0.56489197  0.81334252  0.55613826  1
  O  O171  1  0.11945566  0.12167391  0.12093639  1
  O  O172  1  0.12853074  0.09898652  0.64135719  1
  O  O173  1  0.12290441  0.61396526  0.11400400  1
  O  O174  1  0.11525852  0.62362507  0.62667332  1
  O  O175  1  0.62552833  0.12709161  0.10887425  1
  O  O176  1  0.62067176  0.12072198  0.61548047  1
  O  O177  1  0.61676206  0.61998287  0.12942877  1
  O  O178  1  0.63199574  0.61200421  0.61559691  1
  O  O179  1  0.38349789  0.38152509  0.37487949  1
  O  O180  1  0.36826829  0.37182691  0.88809250  1
  O  O181  1  0.38247323  0.88049709  0.37534008  1
  O  O182  1  0.37118682  0.85639689  0.87065121  1
  O  O183  1  0.87050516  0.38849609  0.37002284  1
  O  O184  1  0.87131352  0.37774377  0.88280088  1
  O  O185  1  0.88300091  0.89079227  0.37365299  1
  O  O186  1  0.88001253  0.88334178  0.87939842  1
  O  O187  1  0.26097374  -0.00860162  0.36636023  1
  O  O188  1  0.24480729  0.00922706  0.87493715  1
  O  O189  1  0.25427405  0.50670751  0.36932722  1
  O  O190  1  0.26566858  0.51379441  0.87758398  1
  O  O191  1  0.75539959  -0.00418394  0.36762055  1
  O  O192  1  0.75566747  0.00923833  0.86811083  1
  O  O193  1  0.75705526  0.50441793  0.37167275  1
  O  O194  1  0.75350997  0.50843878  0.86911106  1
  O  O195  1  0.25003537  0.49185490  0.13959085  1
  O  O196  1  0.24462279  0.50641092  0.63057722  1
  O  O197  1  0.24028358  0.99083292  0.13322402  1
  O  O198  1  0.24411918  0.98339570  0.61757487  1
  O  O199  1  0.74239029  0.49728260  0.12996210  1
  O  O200  1  0.74308770  0.49923422  0.62863136  1
  O  O201  1  0.73344783  1.00623743  0.12717189  1
  O  O202  1  0.74797905  0.99750065  0.62649426  1
  O  O203  1  0.00547005  0.35948537  0.24780000  1
  O  O204  1  0.01348374  0.38786713  0.75544531  1
  O  O205  1  -0.00458003  0.86258766  0.26151233  1
  O  O206  1  0.00684467  0.86691588  0.75966503  1
  O  O207  1  0.49804326  0.36792473  0.25994323  1
  O  O208  1  0.50374711  0.36851337  0.75293117  1
  O  O209  1  0.50351173  0.87352860  0.25668208  1
  O  O210  1  0.51774057  0.86893821  0.74464277  1
  O  O211  1  0.48865829  0.13419004  0.25453427  1
  O  O212  1  0.49406406  0.13068693  0.74582950  1
  O  O213  1  0.48617389  0.61780659  0.24436003  1
  O  O214  1  0.51208119  0.63392719  0.73845541  1
  O  O215  1  0.98958915  0.13856598  0.23888750  1
  O  O216  1  0.98955921  0.12012979  0.75396190  1
  O  O217  1  0.99048440  0.63799659  0.25969908  1
  O  O218  1  0.99486840  0.63417692  0.74402774  1
  O  O219  1  0.37646290  0.26323852  0.00234010  1
  O  O220  1  0.37111064  0.25619034  0.50400892  1
  O  O221  1  0.35149915  0.74229181  0.02014494  1
  O  O222  1  0.37460267  0.75580328  0.50522846  1
  O  O223  1  0.87405214  0.25774146  0.00297664  1
  O  O224  1  0.86029573  0.23857492  0.51367492  1
  O  O225  1  0.87153444  0.75726921  0.00883388  1
  O  O226  1  0.86731002  0.75161704  0.50419871  1
  O  O227  1  0.13745123  0.23963637  0.56293557  1
  O  O228  1  0.12519847  0.23887017  0.99943294  1
  O  O229  1  0.14182889  0.75685115  0.50984904  1
  O  O230  1  0.13112915  0.74067679  1.01292223  1
  O  O231  1  0.62747874  0.24399705  0.49230780  1
  O  O232  1  0.62250398  0.24252633  0.99161193  1
  O  O233  1  0.63154049  0.74526746  0.48822693  1
  O  O234  1  0.62826593  0.74944558  0.98593485  1
  O  O235  1  0.49526191  0.25882628  0.13998511  1
  O  O236  1  0.50087038  0.24494642  0.63382929  1
  O  O237  1  0.48654351  0.73940921  0.12769955  1
  O  O238  1  0.49980272  0.75178646  0.62853867  1
  O  O239  1  0.99197887  0.24061252  0.12977952  1
  O  O240  1  0.98233508  0.24984033  0.61697564  1
  O  O241  1  0.98591164  0.75542364  0.14034976  1
  O  O242  1  0.99621426  0.74818826  0.63538078  1
  O  O243  1  -0.00800500  0.24340285  0.36285198  1
  O  O244  1  0.02048253  0.24977800  0.88047917  1
  O  O245  1  -0.00361055  0.75854828  0.36309801  1
  O  O246  1  -0.00853635  0.75796674  0.86403296  1
  O  O247  1  0.50631967  0.25710648  0.36871134  1
  O  O248  1  0.50868480  0.25048925  0.86516275  1
  O  O249  1  0.51198278  0.75723339  0.37883573  1
  O  O250  1  0.51700481  0.74595680  0.85187373  1
  O  O251  1  0.24766697  0.12777622  0.49457331  1
  O  O252  1  0.24271801  0.12261352  0.98993748  1
  O  O253  1  0.25507569  0.63497741  0.48911669  1
  O  O254  1  0.23740589  0.63559740  1.00879043  1
  O  O255  1  0.73467106  0.13542594  0.50268181  1
  O  O256  1  0.74751319  0.12972725  0.98513222  1
  O  O257  1  0.74450091  0.63042144  0.49324327  1
  O  O258  1  0.75013364  0.62643541  0.98773061  1
  O  O259  1  0.26077737  0.38373124  0.01190418  1
  O  O260  1  0.24924701  0.37875159  0.52082040  1
  O  O261  1  0.24621566  0.86333323  0.01578237  1
  O  O262  1  0.26117724  0.86622460  0.50563112  1
  O  O263  1  0.76020501  0.37493544  0.00405655  1
  O  O264  1  0.74350390  0.36178920  0.50098721  1
  O  O265  1  0.76027592  0.87455241  -0.01159163  1
  O  O266  1  0.75020642  0.86896006  0.50411928  1
  O  O267  1  0.12985907  0.49147069  0.25039679  1
  O  O268  1  0.13394154  0.51513752  0.74205054  1
  O  O269  1  0.13670862  1.00603095  0.23760968  1
  O  O270  1  0.12137744  0.98521277  0.74340406  1
  O  O271  1  0.63158128  0.49853631  0.24022203  1
  O  O272  1  0.62777257  0.49687773  0.74192790  1
  O  O273  1  0.63105727  0.98331543  0.25175579  1
  O  O274  1  0.63293564  0.99450364  0.73835688  1
  O  O275  1  0.36475992  0.00575689  0.25095676  1
  O  O276  1  0.38426769  0.00461563  0.75230168  1
  O  O277  1  0.36464479  0.50596300  0.25489532  1
  O  O278  1  0.37539920  0.51436975  0.77120469  1
  O  O279  1  0.88217536  0.00893224  0.26173156  1
  O  O280  1  0.86975160  0.00798178  0.75906936  1
  O  O281  1  0.87414373  0.50618507  0.25786435  1
  O  O282  1  0.86981706  0.50590857  0.75389035  1
  O  O283  1  0.12820038  0.38123476  0.36478192  1
  O  O284  1  0.13764959  0.35900602  0.87576755  1
  O  O285  1  0.11194593  0.87726431  0.37658469  1
  O  O286  1  0.11539427  0.88215579  0.86911434  1
  O  O287  1  0.61444747  0.36559114  0.37125741  1
  O  O288  1  0.62168099  0.36738280  0.87066878  1
  O  O289  1  0.61958521  0.86823749  0.36193389  1
  O  O290  1  0.64529985  0.85595794  0.85621775  1
  O  O291  1  0.36202399  0.12682279  0.13963927  1
  O  O292  1  0.38292765  0.12070528  0.63424755  1
  O  O293  1  0.37820664  0.62826458  0.13466310  1
  O  O294  1  0.37378803  0.63832677  0.61976164  1
  O  O295  1  0.88088287  0.12673431  0.12790320  1
  O  O296  1  0.86955600  0.13586396  0.63651631  1
  O  O297  1  0.87286959  0.63189758  0.13784970  1
  O  O298  1  0.88309878  0.63258273  0.62994161  1
  O  O299  1  0.25191359  0.26286205  0.13740357  1
  O  O300  1  0.26631770  0.27502185  0.64127265  1
  O  O301  1  0.24904390  0.75536331  0.12640649  1
  O  O302  1  0.26368114  0.76111498  0.61493214  1
  O  O303  1  0.75607445  0.25819506  0.12137486  1
  O  O304  1  0.75446366  0.25455136  0.61731820  1
  O  O305  1  0.76259556  0.74594992  0.12472288  1
  O  O306  1  0.75614425  0.75568242  0.61815704  1
  O  O307  1  0.23719467  0.24989897  0.38101800  1
  O  O308  1  0.23782845  0.23281652  0.87104588  1
  O  O309  1  0.25498569  0.74208925  0.38458463  1
  O  O310  1  0.24498127  0.75652620  0.89971076  1
  O  O311  1  0.73582026  0.25514399  0.38068227  1
  O  O312  1  0.73666558  0.24354100  0.87261344  1
  O  O313  1  0.74275008  0.74491964  0.37816111  1
  O  O314  1  0.74628059  0.73731259  0.86892760  1
  O  O315  1  0.00818158  0.12601645  0.01210426  1
  O  O316  1  -0.00163480  0.11440985  0.49600679  1
  O  O317  1  -0.00059046  0.61345826  0.00273956  1
  O  O318  1  -0.00243668  0.62935672  0.51154526  1
  O  O319  1  0.50765608  0.12892161  -0.00399763  1
  O  O320  1  0.50794762  0.11977714  0.50366515  1
  O  O321  1  0.50212494  0.62719217  0.01676846  1
  O  O322  1  0.50744804  0.61087087  0.48844371  1
  O  O323  1  0.50059008  0.38488446  0.48951900  1
  O  O324  1  0.48232024  0.38205324  0.99789809  1
  O  O325  1  0.49853285  0.88202901  0.48940808  1
  O  O326  1  0.48033119  0.82980768  0.98546820  1
  O  O327  1  1.00067485  0.38878616  0.50682061  1
  O  O328  1  0.98709890  0.37844638  0.99789208  1
  O  O329  1  0.99530903  0.86388526  0.48290040  1
  O  O330  1  0.99063463  0.86738696  0.98728726  1
  O  O331  1  0.49701736  0.49107700  0.37975875  1
  O  O332  1  0.48519262  0.50408122  0.87908881  1
  O  O333  1  0.49229339  0.99041483  0.37410427  1
  O  O334  1  0.54945534  0.97424443  0.87902891  1
  O  O335  1  0.99434831  0.50471638  0.39119072  1
  O  O336  1  0.98960305  0.49404580  0.88853044  1
  O  O337  1  1.00116160  0.98897657  0.37838220  1
  O  O338  1  0.98801593  0.99052231  0.87028056  1
  O  O339  1  0.00945885  0.01209176  0.14200991  1
  O  O340  1  0.01352412  -0.01160168  0.62530959  1
  O  O341  1  -0.00449095  0.49004395  0.11199500  1
  O  O342  1  0.00503060  0.51168560  0.61524810  1
  O  O343  1  0.52569230  0.00506384  0.14165868  1
  O  O344  1  0.50939315  0.00408848  0.61504612  1
  O  O345  1  0.50719810  0.50908140  0.12695030  1
  O  O346  1  0.50987449  0.49578811  0.61405553  1
  O  O347  1  0.24293391  0.38198028  0.24760311  1
  O  O348  1  0.24958262  0.38920131  0.74371172  1
  O  O349  1  0.24861464  0.88381838  0.24306596  1
  O  O350  1  0.24189805  0.86960500  0.74246712  1
  O  O351  1  0.74782180  0.38091589  0.24116563  1
  O  O352  1  0.74094932  0.38337189  0.74892870  1
  O  O353  1  0.74360060  0.87055708  0.24932118  1
  O  O354  1  0.74512912  0.88156370  0.73959484  1
  O  O355  1  0.25506923  0.11544841  0.26077963  1
  O  O356  1  0.26512279  0.12728303  0.75305149  1
  O  O357  1  0.25486527  0.61516301  0.25618851  1
  O  O358  1  0.25159801  0.65696797  0.76347411  1
  O  O359  1  0.76260728  0.13415394  0.24433160  1
  O  O360  1  0.75236063  0.12172055  0.76130234  1
  O  O361  1  0.75998313  0.61734912  0.25587617  1
  O  O362  1  0.75648751  0.61935156  0.75660424  1
  O  O363  1  0.37923187  0.10906054  0.36618191  1
  O  O364  1  0.36544581  0.12542240  0.86627749  1
  O  O365  1  0.36882351  0.61912487  0.36641858  1
  O  O366  1  0.38097403  0.63644917  0.88543726  1
  O  O367  1  0.87474629  0.11069886  0.36425547  1
  O  O368  1  0.86964399  0.12106254  0.86962127  1
  O  O369  1  0.86973054  0.61709057  0.36628446  1
  O  O370  1  0.86872810  0.61966972  0.86971749  1
  O  O371  1  0.13275205  0.37610677  0.13568335  1
  O  O372  1  0.13980544  0.39847657  0.63353690  1
  O  O373  1  0.12845384  0.88494588  0.12081431  1
  O  O374  1  0.13341611  0.87936285  0.63622747  1
  O  O375  1  0.62849638  0.38486958  0.12369614  1
  O  O376  1  0.62694815  0.38730983  0.62975009  1
  O  O377  1  0.62447512  0.87742839  0.13757801  1
  O  O378  1  0.63289233  0.88082802  0.62757292  1
  O  O379  1  0.10895299  0.25307520  0.25087273  1
  O  O380  1  0.12679977  0.24703174  0.76030073  1
  O  O381  1  0.10875486  0.74554058  0.24182527  1
  O  O382  1  0.11525093  0.75848853  0.75053188  1
  O  O383  1  0.61492344  0.24869829  0.25693250  1
  O  O384  1  0.61575334  0.25345994  0.75577915  1
  O  O385  1  0.63027761  0.76006289  0.25902928  1
  O  O386  1  0.62178833  0.75503144  0.74569680  1
  O  O387  1  0.38096765  0.24041116  0.25407738  1
  O  O388  1  0.38742818  0.24319957  0.75127378  1
  O  O389  1  0.36303079  0.73518682  0.24454746  1
  O  O390  1  0.40121764  0.75276692  0.73667885  1
  O  O391  1  0.88343802  0.24400415  0.24466938  1
  O  O392  1  0.86957005  0.24149204  0.73850409  1
  O  O393  1  0.87869139  0.74238846  0.24468267  1
  O  O394  1  0.88157898  0.74742660  0.74296888  1
  O  O395  1  0.38509445  0.49869110  0.49292073  1
  O  O396  1  0.37403761  0.49800359  0.98691059  1
  O  O397  1  0.38119128  0.99352806  0.48831754  1
  O  O398  1  0.38593113  0.98262751  1.03502643  1
  O  O399  1  0.88936939  0.50525515  0.49467891  1
  O  O400  1  0.87744530  0.49169805  0.99594813  1
  O  O401  1  0.86767652  1.00435229  0.48045875  1
  O  O402  1  0.86904977  0.99478086  0.98776690  1
  O  O403  1  0.12678964  0.01273098  0.01443846  1
  O  O404  1  0.12067286  -0.00755758  0.51139465  1
  O  O405  1  0.11333527  0.50263512  0.00163099  1
  O  O406  1  0.11081934  0.50222620  0.51035659  1
  O  O407  1  0.62802698  0.01833066  0.00957301  1
  O  O408  1  0.62174051  0.00788866  0.49908117  1
  O  O409  1  0.62313507  0.50472905  0.01271083  1
  O  O410  1  0.61930817  0.50364643  0.50422051  1
  O  O411  1  0.36604011  0.37526937  0.11508815  1
  O  O412  1  0.36427998  0.39492822  0.62793831  1
  O  O413  1  0.36031371  0.85970643  0.13606964  1
  O  O414  1  0.37180740  0.86898583  0.61829058  1
  O  O415  1  0.86885775  0.36938786  0.11683056  1
  O  O416  1  0.87254982  0.35903522  0.63257071  1
  O  O417  1  0.87848826  0.86894650  0.11295531  1
  O  O418  1  0.87104144  0.87186610  0.62201900  1
  O  O419  1  0.11484780  0.09751554  0.38097584  1
  O  O420  1  0.13089057  0.13109914  0.88229559  1
  O  O421  1  0.13798779  0.62245524  0.37038511  1
  O  O422  1  0.11134720  0.62094389  0.89590845  1
  O  O423  1  0.61470540  0.13426674  0.38218201  1
  O  O424  1  0.62940972  0.13263893  0.88425181  1
  O  O425  1  0.63080025  0.63153845  0.37565260  1
  O  O426  1  0.63538570  0.63130300  0.87306222  1
