# generated using pymatgen
data_V85Zn86O256
_symmetry_space_group_name_H-M   'P 1'
_cell_length_a   16.97488565
_cell_length_b   16.97836465
_cell_length_c   16.97658699
_cell_angle_alpha   89.98405851
_cell_angle_beta   90.03357233
_cell_angle_gamma   89.88750557
_symmetry_Int_Tables_number   1
_chemical_formula_structural   V85Zn86O256
_chemical_formula_sum   'V85 Zn86 O256'
_cell_volume   4892.74034661
_cell_formula_units_Z   1
loop_
 _symmetry_equiv_pos_site_id
 _symmetry_equiv_pos_as_xyz
  1  'x, y, z'
loop_
 _atom_site_type_symbol
 _atom_site_label
 _atom_site_symmetry_multiplicity
 _atom_site_fract_x
 _atom_site_fract_y
 _atom_site_fract_z
 _atom_site_occupancy
  V  V0  1  0.50164555  -0.00173343  0.49841237  1
  V  V1  1  0.49679739  0.37708790  0.39432313  1
  V  V2  1  0.37806158  0.87519223  0.49899197  1
  V  V3  1  0.87504251  0.24709035  0.12439029  1
  V  V4  1  0.24032635  0.74985617  0.49643846  1
  V  V5  1  0.87299097  0.37649275  0.49827625  1
  V  V6  1  0.25169785  0.25088550  -0.00059899  1
  V  V7  1  0.87095667  0.87491376  0.50688031  1
  V  V8  1  0.87416948  0.12561859  0.74947534  1
  V  V9  1  0.00062962  0.49864535  0.00018839  1
  V  V10  1  0.00775791  0.86895167  0.37605790  1
  V  V11  1  0.12575884  0.12661514  0.49878912  1
  V  V12  1  0.49417557  0.49454542  -0.01627108  1
  V  V13  1  0.00112977  0.12732365  0.62369531  1
  V  V14  1  0.00396034  0.25044298  0.75215662  1
  V  V15  1  0.12733494  0.49974987  0.12394291  1
  V  V16  1  0.25265350  0.50045092  0.25160059  1
  V  V17  1  0.50380133  0.74993328  0.75142952  1
  V  V18  1  0.12366507  0.24982867  0.37522307  1
  V  V19  1  0.26202411  0.36742955  0.12760230  1
  V  V20  1  0.87619252  0.37135147  0.00018953  1
  V  V21  1  0.12596299  -0.00107936  0.12582859  1
  V  V22  1  0.62876752  -0.00554960  0.62412871  1
  V  V23  1  0.75152732  -0.00516475  0.74632646  1
  V  V24  1  0.12526302  0.37549092  0.24951702  1
  V  V25  1  0.00170630  0.74717338  0.25058321  1
  V  V26  1  0.24775923  0.87757066  0.63228234  1
  V  V27  1  -0.00209584  0.50446395  0.50202363  1
  V  V28  1  0.74856684  0.12051985  0.87365136  1
  V  V29  1  0.37091917  0.25206999  0.61906380  1
  V  V30  1  -0.00707583  0.62824881  0.12415559  1
  V  V31  1  0.62599172  0.50607016  0.62267302  1
  V  V32  1  0.48839863  0.88334234  0.87894734  1
  V  V33  1  0.86970729  0.50835839  0.37302127  1
  V  V34  1  0.74936006  0.50562697  0.25358053  1
  V  V35  1  0.25067346  -0.00330582  0.25066093  1
  V  V36  1  0.74938516  0.24716996  -0.00165687  1
  V  V37  1  0.62315124  0.85932630  0.25184059  1
  V  V38  1  0.62548880  0.12521052  0.50044122  1
  V  V39  1  0.12745101  0.37824262  0.74884702  1
  V  V40  1  -0.00120044  0.37671104  0.37392851  1
  V  V41  1  0.36508020  0.61693885  0.75691849  1
  V  V42  1  0.13182683  0.76763376  0.87662936  1
  V  V43  1  0.87372160  0.25097429  0.62410993  1
  V  V44  1  0.88096454  0.86756427  -0.00534017  1
  V  V45  1  0.37501956  0.11936014  0.75672994  1
  V  V46  1  0.49729880  0.12546964  0.62851501  1
  V  V47  1  0.37582498  0.13223462  0.24521424  1
  V  V48  1  0.74349792  0.25000748  0.49806070  1
  V  V49  1  0.13765954  0.62577027  -0.00992738  1
  V  V50  1  0.12572744  0.50369410  0.62696207  1
  V  V51  1  0.50318621  0.62355870  0.61809066  1
  V  V52  1  0.61813528  0.25854614  0.86772182  1
  V  V53  1  0.12910233  -0.00056336  0.63275282  1
  V  V54  1  0.62060631  0.37214076  0.25085236  1
  V  V55  1  0.62986714  0.62780428  0.48505047  1
  V  V56  1  0.37788755  0.00064550  0.37457461  1
  V  V57  1  0.74764999  0.75234890  0.49275388  1
  V  V58  1  0.37558664  0.49718542  0.38836928  1
  V  V59  1  0.87328184  0.49864088  0.87538582  1
  V  V60  1  0.88083444  0.62426641  0.75003310  1
  V  V61  1  0.75902424  0.87073111  0.13087487  1
  V  V62  1  0.00180274  0.12140363  0.12494648  1
  V  V63  1  0.00457058  0.36908084  0.87575535  1
  V  V64  1  0.37536278  0.75089457  0.62451795  1
  V  V65  1  0.86705514  0.11991201  0.25030816  1
  V  V66  1  0.62203801  0.11582538  -0.00157049  1
  V  V67  1  0.50404965  0.86203806  0.37012193  1
  V  V68  1  0.38128949  0.63297934  0.25156163  1
  V  V69  1  0.25399464  0.86760871  0.11480241  1
  V  V70  1  0.62832964  0.00009075  0.13700727  1
  V  V71  1  0.74714643  0.37779233  0.62865926  1
  V  V72  1  0.24966322  0.12496461  0.37466384  1
  V  V73  1  0.61869503  0.50060504  0.12341556  1
  V  V74  1  0.86980465  0.00006623  0.37255114  1
  V  V75  1  0.00063788  0.00022250  0.49980154  1
  V  V76  1  -0.00110817  0.25054469  0.25026495  1
  V  V77  1  0.74800525  0.50128502  0.74991365  1
  V  V78  1  0.49731504  0.12955733  0.12449485  1
  V  V79  1  0.62819123  0.87352035  0.75150150  1
  V  V80  1  0.00277908  0.76810503  0.75866951  1
  V  V81  1  0.24326053  0.12667272  0.87347659  1
  V  V82  1  0.37952812  0.75172902  0.11095854  1
  V  V83  1  0.24951992  0.37648927  0.61662458  1
  V  V84  1  0.74971957  0.37324023  0.12508930  1
  Zn  Zn85  1  0.24284883  0.63708308  0.36684582  1
  Zn  Zn86  1  0.38015248  0.37386181  -0.00718828  1
  Zn  Zn87  1  0.62058925  0.24879115  0.37586440  1
  Zn  Zn88  1  0.25284258  0.25474700  0.49510665  1
  Zn  Zn89  1  0.00122727  0.63305940  0.62619790  1
  Zn  Zn90  1  0.86768365  0.63523473  0.24697387  1
  Zn  Zn91  1  0.11799944  0.63296423  0.49472326  1
  Zn  Zn92  1  0.47935795  -0.00387144  -0.00009997  1
  Zn  Zn93  1  0.88598437  -0.00488376  0.87445109  1
  Zn  Zn94  1  0.62485759  0.62432182  -0.00484305  1
  Zn  Zn95  1  0.12066594  0.13075646  -0.00548174  1
  Zn  Zn96  1  0.75160227  0.74314205  0.00292897  1
  Zn  Zn97  1  0.74492876  0.12268062  0.37088565  1
  Zn  Zn98  1  0.25315828  -0.01196422  0.76457279  1
  Zn  Zn99  1  0.00534373  -0.01079533  -0.00710168  1
  Zn  Zn100  1  0.49437673  0.25424113  0.24774279  1
  Zn  Zn101  1  0.13080541  0.86233572  0.25637209  1
  Zn  Zn102  1  0.87078044  0.75541004  0.63073957  1
  Zn  Zn103  1  0.74695739  0.62933910  0.87600479  1
  Zn  Zn104  1  0.50349043  0.63153814  0.12277865  1
  Zn  Zn105  1  0.49337544  0.26951443  0.76046871  1
  Zn  Zn106  1  0.62663599  0.74947628  0.88427936  1
  Zn  Zn107  1  0.18865159  0.18843567  0.18653414  1
  Zn  Zn108  1  0.18814747  0.18931435  0.68708517  1
  Zn  Zn109  1  0.18447302  0.68502372  0.18310044  1
  Zn  Zn110  1  0.18246253  0.69039356  0.69059292  1
  Zn  Zn111  1  0.68449831  0.18810279  0.18541714  1
  Zn  Zn112  1  0.68550700  0.18652383  0.68681569  1
  Zn  Zn113  1  0.68741938  0.68731492  0.18291870  1
  Zn  Zn114  1  0.69450146  0.69048124  0.68018366  1
  Zn  Zn115  1  0.31363087  0.31487514  0.31705047  1
  Zn  Zn116  1  0.30568638  0.30388709  0.80628831  1
  Zn  Zn117  1  0.31592064  0.81521755  0.31281297  1
  Zn  Zn118  1  0.31402826  0.80184057  0.81603961  1
  Zn  Zn119  1  0.81141099  0.31393634  0.31237092  1
  Zn  Zn120  1  0.81073996  0.31147446  0.81367154  1
  Zn  Zn121  1  0.81522452  0.81365248  0.31296281  1
  Zn  Zn122  1  0.81374619  0.80921272  0.81755940  1
  Zn  Zn123  1  0.18383664  0.44460195  0.43643789  1
  Zn  Zn124  1  0.18938784  0.43331281  0.93864303  1
  Zn  Zn125  1  0.18912650  0.93858069  0.44307208  1
  Zn  Zn126  1  0.19630943  0.94410469  0.94260619  1
  Zn  Zn127  1  0.68430555  0.43903680  0.43874899  1
  Zn  Zn128  1  0.68580793  0.43853368  0.93793685  1
  Zn  Zn129  1  0.68782352  0.93438388  0.43413827  1
  Zn  Zn130  1  0.69071722  0.93151269  0.93939597  1
  Zn  Zn131  1  0.31408904  0.06284561  0.06010357  1
  Zn  Zn132  1  0.31285729  0.06369589  0.56246881  1
  Zn  Zn133  1  0.31738354  0.56094676  0.06364491  1
  Zn  Zn134  1  0.30763571  0.56652010  0.57156198  1
  Zn  Zn135  1  0.81244511  0.05282275  0.06188362  1
  Zn  Zn136  1  0.81328383  0.06257964  0.56091148  1
  Zn  Zn137  1  0.80985167  0.55979396  0.06238168  1
  Zn  Zn138  1  0.81177975  0.57080378  0.56221350  1
  Zn  Zn139  1  0.43791610  0.44092751  0.19153972  1
  Zn  Zn140  1  0.43468759  0.43876079  0.68940927  1
  Zn  Zn141  1  0.44050949  0.93868328  0.18380979  1
  Zn  Zn142  1  0.43743922  0.93829600  0.69020430  1
  Zn  Zn143  1  0.93672339  0.44015457  0.18654292  1
  Zn  Zn144  1  0.93653003  0.43774543  0.68688956  1
  Zn  Zn145  1  0.94076153  0.93484562  0.19139492  1
  Zn  Zn146  1  0.93939951  0.94205293  0.68757417  1
  Zn  Zn147  1  0.06005437  0.05946299  0.31217979  1
  Zn  Zn148  1  0.06565720  0.06172768  0.81186018  1
  Zn  Zn149  1  0.06364756  0.56742848  0.31336653  1
  Zn  Zn150  1  0.06091882  0.56072411  0.81392319  1
  Zn  Zn151  1  0.56104618  0.06130664  0.31306481  1
  Zn  Zn152  1  0.56171212  0.06206179  0.81142565  1
  Zn  Zn153  1  0.55763885  0.55656611  0.31179559  1
  Zn  Zn154  1  0.56191149  0.56435216  0.80957858  1
  Zn  Zn155  1  0.43964991  0.18836625  0.43683038  1
  Zn  Zn156  1  0.43463469  0.18828372  0.94092575  1
  Zn  Zn157  1  0.43392782  0.68277488  0.43800339  1
  Zn  Zn158  1  0.44212923  0.68141330  0.93648099  1
  Zn  Zn159  1  0.93503302  0.18761509  0.43700851  1
  Zn  Zn160  1  0.93890330  0.17939947  0.93510272  1
  Zn  Zn161  1  0.93391226  0.69144639  0.43500963  1
  Zn  Zn162  1  0.94087206  0.68791558  0.93668111  1
  Zn  Zn163  1  0.06797122  0.30995769  0.06434150  1
  Zn  Zn164  1  0.06238954  0.31526943  0.56133779  1
  Zn  Zn165  1  0.06572718  0.80727875  0.06436920  1
  Zn  Zn166  1  0.05820689  0.81718103  0.56984292  1
  Zn  Zn167  1  0.56243867  0.31195145  0.05693987  1
  Zn  Zn168  1  0.54546228  0.33161195  0.59470049  1
  Zn  Zn169  1  0.56360229  0.81282599  0.06268583  1
  Zn  Zn170  1  0.56556364  0.81024552  0.56039458  1
  O  O171  1  0.11730592  0.11613310  0.12953662  1
  O  O172  1  0.12093892  0.12016917  0.61931137  1
  O  O173  1  0.11703672  0.61851367  0.11228733  1
  O  O174  1  0.12170208  0.61597644  0.62169360  1
  O  O175  1  0.62078990  0.11783677  0.11773025  1
  O  O176  1  0.61638534  0.11534532  0.62196872  1
  O  O177  1  0.62213778  0.61112462  0.12683805  1
  O  O178  1  0.62047326  0.62265880  0.61717311  1
  O  O179  1  0.38842832  0.38098208  0.37416832  1
  O  O180  1  0.33887607  0.39614230  0.87460157  1
  O  O181  1  0.38448957  0.88216051  0.37835832  1
  O  O182  1  0.38990273  0.86930479  0.86634589  1
  O  O183  1  0.87985851  0.38326454  0.37928098  1
  O  O184  1  0.88335347  0.37708466  0.88018322  1
  O  O185  1  0.88450393  0.88400505  0.38298004  1
  O  O186  1  0.87263679  0.87815019  0.89056232  1
  O  O187  1  0.25580414  0.00377277  0.36842325  1
  O  O188  1  0.24911549  0.01938104  0.87668080  1
  O  O189  1  0.25983147  0.49092409  0.36190151  1
  O  O190  1  0.28322022  0.45586658  0.87130344  1
  O  O191  1  0.76551171  0.00246527  0.38169663  1
  O  O192  1  0.74809725  0.00844310  0.86474237  1
  O  O193  1  0.75768569  0.49181610  0.36522404  1
  O  O194  1  0.75517623  0.49512966  0.86298713  1
  O  O195  1  0.24782885  0.49142655  0.13490669  1
  O  O196  1  0.23525734  0.49189982  0.61928143  1
  O  O197  1  0.24528306  0.99097335  0.13402996  1
  O  O198  1  0.24374165  0.99251902  0.62220004  1
  O  O199  1  0.74093442  0.49095556  0.13279800  1
  O  O200  1  0.74821585  0.49684111  0.63091575  1
  O  O201  1  0.73755875  0.98592309  0.12090298  1
  O  O202  1  0.73991384  1.00787642  0.63465814  1
  O  O203  1  0.00468906  0.37063433  0.25352582  1
  O  O204  1  0.00314414  0.36809276  0.75626162  1
  O  O205  1  0.00437273  0.86643180  0.25838416  1
  O  O206  1  -0.00567151  0.86719972  0.75524276  1
  O  O207  1  0.50978147  0.37354785  0.25303576  1
  O  O208  1  0.51214776  0.36270946  0.70227774  1
  O  O209  1  0.51340357  0.87990859  0.25592685  1
  O  O210  1  0.50741384  0.86917302  0.75541045  1
  O  O211  1  0.49223993  0.12608604  0.24321870  1
  O  O212  1  0.49228078  0.12277136  0.74054247  1
  O  O213  1  0.48361447  0.61862452  0.24701681  1
  O  O214  1  0.49649778  0.63581824  0.73750375  1
  O  O215  1  0.99164683  0.12989663  0.24218749  1
  O  O216  1  0.99525862  0.13422266  0.74329760  1
  O  O217  1  0.99873582  0.62853616  0.24131068  1
  O  O218  1  0.99081782  0.62735228  0.75034095  1
  O  O219  1  0.36095189  0.25719098  -0.00359292  1
  O  O220  1  0.37231059  0.24297806  0.51398439  1
  O  O221  1  0.37378975  0.74088824  0.01285616  1
  O  O222  1  0.36949327  0.75486176  0.51041450  1
  O  O223  1  0.86983261  0.25146038  0.00451651  1
  O  O224  1  0.86590780  0.25483408  0.50514987  1
  O  O225  1  0.87516808  0.76291512  -0.00182844  1
  O  O226  1  0.86894909  0.75889793  0.50245906  1
  O  O227  1  0.12248032  0.24363199  0.49233483  1
  O  O228  1  0.14172510  0.24700876  1.00483074  1
  O  O229  1  0.13761158  0.75427561  0.50885066  1
  O  O230  1  0.11826591  0.73550673  0.98647886  1
  O  O231  1  0.63547924  0.24473911  0.50487800  1
  O  O232  1  0.62963886  0.23699785  0.99057009  1
  O  O233  1  0.63746026  0.74303639  0.50060158  1
  O  O234  1  0.62836312  0.74387222  1.00280353  1
  O  O235  1  0.50872800  0.23356620  0.12572534  1
  O  O236  1  0.49126808  0.23098046  0.61837799  1
  O  O237  1  0.48322857  0.75185931  0.12426764  1
  O  O238  1  0.49351606  0.74737902  0.63050562  1
  O  O239  1  0.99545437  0.24259893  0.13157477  1
  O  O240  1  0.99296997  0.24791458  0.63107805  1
  O  O241  1  1.00488251  0.73643660  0.13287486  1
  O  O242  1  0.99909112  0.75149904  0.64356284  1
  O  O243  1  0.00296905  0.25637667  0.36990875  1
  O  O244  1  -0.00701835  0.25783222  0.86495671  1
  O  O245  1  -0.00072886  0.76057580  0.37050941  1
  O  O246  1  0.01001503  0.74784596  0.86416537  1
  O  O247  1  0.50013621  0.26492372  0.37296177  1
  O  O248  1  0.51267080  0.24702965  0.87563347  1
  O  O249  1  0.49283836  0.76368176  0.37894707  1
  O  O250  1  0.50339612  0.75861147  0.86192079  1
  O  O251  1  0.24364516  0.12531967  0.49117918  1
  O  O252  1  0.25177293  0.13603313  0.99219198  1
  O  O253  1  0.25109629  0.64555051  0.50497933  1
  O  O254  1  0.23573422  0.61848071  1.00573674  1
  O  O255  1  0.74496608  0.13499275  0.50116620  1
  O  O256  1  0.74310820  0.12593311  0.99240563  1
  O  O257  1  0.73985962  0.63606201  0.49756428  1
  O  O258  1  0.74660001  0.62338375  0.99645630  1
  O  O259  1  0.24940667  0.36466184  0.01155070  1
  O  O260  1  0.23838418  0.37259750  0.51159400  1
  O  O261  1  0.25069504  0.87524322  0.01691997  1
  O  O262  1  0.25748494  0.86781016  0.50914426  1
  O  O263  1  0.75619739  0.36800270  0.00488967  1
  O  O264  1  0.75438899  0.36874873  0.50641834  1
  O  O265  1  0.76017544  0.87325168  0.01319714  1
  O  O266  1  0.75838674  0.86595096  0.49592608  1
  O  O267  1  0.13462503  0.49508558  0.24503000  1
  O  O268  1  0.11381520  0.48952791  0.73832271  1
  O  O269  1  0.13606944  1.00034219  0.24288464  1
  O  O270  1  0.13335183  1.00805997  0.73663551  1
  O  O271  1  0.63034514  0.49105276  0.24500693  1
  O  O272  1  0.63827125  0.50958984  0.73539806  1
  O  O273  1  0.62526127  0.99859731  0.24026591  1
  O  O274  1  0.63200291  0.99381888  0.74241991  1
  O  O275  1  0.36720903  0.00632747  0.25379672  1
  O  O276  1  0.36766311  0.01393611  0.74147701  1
  O  O277  1  0.36723081  0.50950360  0.25584346  1
  O  O278  1  0.37953466  0.51845164  0.74105530  1
  O  O279  1  0.88221837  0.00951469  0.25992833  1
  O  O280  1  0.86643602  0.00642904  0.75072346  1
  O  O281  1  0.86490831  0.49680039  0.25737745  1
  O  O282  1  0.86895124  0.50549589  0.75415048  1
  O  O283  1  0.11823051  0.37115326  0.36877418  1
  O  O284  1  0.11187494  0.38239555  0.86524617  1
  O  O285  1  0.11203083  0.88569298  0.37569752  1
  O  O286  1  0.12819516  0.86668749  0.88856736  1
  O  O287  1  0.61151313  0.37828944  0.36967707  1
  O  O288  1  0.63153715  0.35653157  0.87812415  1
  O  O289  1  0.61981603  0.87932268  0.35968811  1
  O  O290  1  0.61875795  0.87459708  0.86104382  1
  O  O291  1  0.38495183  0.11794192  0.13532943  1
  O  O292  1  0.37852508  0.13088976  0.63260561  1
  O  O293  1  0.37202361  0.63709726  0.13603795  1
  O  O294  1  0.38531735  0.63505158  0.62601846  1
  O  O295  1  0.88079423  0.12587291  0.13179228  1
  O  O296  1  0.88093437  0.13021652  0.62974903  1
  O  O297  1  0.88899142  0.61393756  0.12744031  1
  O  O298  1  0.87913538  0.62709704  0.63785840  1
  O  O299  1  0.25009799  0.25586422  0.11686739  1
  O  O300  1  0.25489060  0.25586173  0.62051786  1
  O  O301  1  0.25640898  0.76248557  0.13085922  1
  O  O302  1  0.25698676  0.75942820  0.61872182  1
  O  O303  1  0.75490025  0.25318247  0.11808341  1
  O  O304  1  0.75277284  0.25836552  0.62049682  1
  O  O305  1  0.74782414  0.76670553  0.12506193  1
  O  O306  1  0.75716200  0.74932840  0.60700928  1
  O  O307  1  0.24219699  0.24409295  0.37515452  1
  O  O308  1  0.24964850  0.24219762  0.88769713  1
  O  O309  1  0.25488708  0.75609390  0.39294525  1
  O  O310  1  0.23010616  0.74903759  0.86719338  1
  O  O311  1  0.74742833  0.25064918  0.38751738  1
  O  O312  1  0.74089431  0.23939578  0.87738850  1
  O  O313  1  0.75867126  0.75150826  0.39154783  1
  O  O314  1  0.74481202  0.74776985  0.87981825  1
  O  O315  1  0.00118028  0.12929561  0.01856339  1
  O  O316  1  0.00423549  0.12082493  0.50500540  1
  O  O317  1  0.00523279  0.61665760  0.00619427  1
  O  O318  1  -0.00370538  0.61559280  0.50271884  1
  O  O319  1  0.50692212  0.12159463  0.00602326  1
  O  O320  1  0.50498500  0.11673474  0.50658041  1
  O  O321  1  0.50254108  0.60830703  0.00414043  1
  O  O322  1  0.51571589  0.63913454  0.50908554  1
  O  O323  1  0.50546065  0.37314412  0.49221836  1
  O  O324  1  0.49779344  0.38730688  1.00257142  1
  O  O325  1  0.49858105  0.87919593  0.49223117  1
  O  O326  1  0.50761950  0.87562326  0.98142218  1
  O  O327  1  0.99249059  0.38414297  0.49479225  1
  O  O328  1  0.99779649  0.37566504  0.99376886  1
  O  O329  1  0.99290788  0.87970724  0.49407582  1
  O  O330  1  0.98535444  0.87403288  1.01465350  1
  O  O331  1  0.49052245  0.48565389  0.37397580  1
  O  O332  1  0.50450279  0.49767871  0.88454122  1
  O  O333  1  0.49581758  0.99201418  0.38078901  1
  O  O334  1  0.50148484  0.98669829  0.87209209  1
  O  O335  1  0.99121151  0.49504293  0.38274904  1
  O  O336  1  0.99257592  0.48786474  0.88020861  1
  O  O337  1  0.99132230  0.99364760  0.38093635  1
  O  O338  1  0.99357905  1.02997908  0.88740815  1
  O  O339  1  0.01065443  0.00624245  0.12941844  1
  O  O340  1  0.00957219  0.00708517  0.62128680  1
  O  O341  1  0.00797879  0.50393042  0.11966558  1
  O  O342  1  0.00469133  0.49875715  0.61506116  1
  O  O343  1  0.51083257  0.00872263  0.12092445  1
  O  O344  1  0.50696651  0.00714055  0.61987556  1
  O  O345  1  0.51124792  0.50014669  0.12483560  1
  O  O346  1  0.51288459  0.51523556  0.62553788  1
  O  O347  1  0.24621427  0.37976509  0.24510898  1
  O  O348  1  0.23176332  0.36434880  0.73739644  1
  O  O349  1  0.24944837  0.88509212  0.24769411  1
  O  O350  1  0.25921263  0.87324095  0.73603231  1
  O  O351  1  0.74036891  0.38120338  0.24554279  1
  O  O352  1  0.75811733  0.38566582  0.73787978  1
  O  O353  1  0.73834672  0.87153226  0.24146399  1
  O  O354  1  0.74362174  0.88653551  0.75497880  1
  O  O355  1  0.25666787  0.11596182  0.25331095  1
  O  O356  1  0.25550177  0.13246714  0.76321154  1
  O  O357  1  0.25731570  0.61479301  0.24756357  1
  O  O358  1  0.26698713  0.63262839  0.73863075  1
  O  O359  1  0.76318664  0.13140137  0.25043075  1
  O  O360  1  0.75292690  0.11649842  0.75510589  1
  O  O361  1  0.75053451  0.61000742  0.24271126  1
  O  O362  1  0.76189209  0.61620582  0.74836309  1
  O  O363  1  0.37143278  0.11899918  0.36710549  1
  O  O364  1  0.36713274  0.13335433  0.86325579  1
  O  O365  1  0.36963063  0.61857767  0.36441562  1
  O  O366  1  0.37888238  0.63463239  0.85516606  1
  O  O367  1  0.87540416  0.11783895  0.36691672  1
  O  O368  1  0.85912603  0.12852929  0.86802563  1
  O  O369  1  0.87844507  0.61101248  0.37077990  1
  O  O370  1  0.87569201  0.61579899  0.86609812  1
  O  O371  1  0.13395909  0.38041750  0.13208842  1
  O  O372  1  0.12692918  0.38283808  0.63086546  1
  O  O373  1  0.13758819  0.88043236  0.12873702  1
  O  O374  1  0.13521226  0.88825754  0.61994376  1
  O  O375  1  0.62930393  0.37928420  0.13245582  1
  O  O376  1  0.64233022  0.39218999  0.61112996  1
  O  O377  1  0.62736157  0.88125524  0.13758704  1
  O  O378  1  0.61673646  0.88779373  0.63421664  1
  O  O379  1  0.11906099  0.25479450  0.25563986  1
  O  O380  1  0.10955121  0.25918821  0.74192558  1
  O  O381  1  0.11173981  0.74650869  0.24882666  1
  O  O382  1  0.11242524  0.75029237  0.76189568  1
  O  O383  1  0.62565123  0.26168416  0.25342672  1
  O  O384  1  0.62285766  0.24178880  0.76477189  1
  O  O385  1  0.62237632  0.76086230  0.24626760  1
  O  O386  1  0.61763851  0.76037982  0.73990546  1
  O  O387  1  0.37343611  0.23580537  0.25473770  1
  O  O388  1  0.37793619  0.24124815  0.73865693  1
  O  O389  1  0.36899481  0.73496175  0.25000857  1
  O  O390  1  0.38523763  0.74544449  0.73806487  1
  O  O391  1  0.87954298  0.24276586  0.24480991  1
  O  O392  1  0.88200262  0.24618031  0.74378171  1
  O  O393  1  0.89183666  0.74866517  0.25583312  1
  O  O394  1  0.88736124  0.74390301  0.75375753  1
  O  O395  1  0.36534832  0.51169430  0.48633591  1
  O  O396  1  0.39021279  0.49723220  1.00423390  1
  O  O397  1  0.38123768  0.99484923  0.49505142  1
  O  O398  1  0.36930756  0.99102998  1.00112262  1
  O  O399  1  0.87833035  0.49763346  0.49353273  1
  O  O400  1  0.88051543  0.48955714  0.99578359  1
  O  O401  1  0.88114698  0.99534878  0.49424149  1
  O  O402  1  0.87880743  0.98590051  0.99903850  1
  O  O403  1  0.12588938  0.00618096  0.01560790  1
  O  O404  1  0.11992438  0.00784777  0.50872706  1
  O  O405  1  0.12133768  0.50569014  0.00266807  1
  O  O406  1  0.11098542  0.49782635  0.51032781  1
  O  O407  1  0.62567263  0.00996732  0.00429227  1
  O  O408  1  0.62319058  0.00275717  0.50752109  1
  O  O409  1  0.61505636  0.49570444  0.00941800  1
  O  O410  1  0.63647072  0.51894830  0.50950031  1
  O  O411  1  0.36357907  0.37867678  0.12835282  1
  O  O412  1  0.35813636  0.36581175  0.63070013  1
  O  O413  1  0.36533316  0.86218023  0.13355070  1
  O  O414  1  0.37152122  0.86842216  0.61969475  1
  O  O415  1  0.87108400  0.36742393  0.12005675  1
  O  O416  1  0.86605736  0.37177168  0.61814677  1
  O  O417  1  0.86166105  0.88134552  0.12532055  1
  O  O418  1  0.88102348  0.87930932  0.61028536  1
  O  O419  1  0.12874741  0.12922785  0.37786902  1
  O  O420  1  0.13941344  0.12959737  0.87475503  1
  O  O421  1  0.13666473  0.60735077  0.38634682  1
  O  O422  1  0.12547707  0.61821872  0.88821721  1
  O  O423  1  0.62591482  0.12726851  0.38342865  1
  O  O424  1  0.63196254  0.12726859  0.88113847  1
  O  O425  1  0.61698245  0.61992226  0.38724002  1
  O  O426  1  0.62756055  0.62950447  0.87412944  1
