# generated using pymatgen
data_V85Zn86O256
_symmetry_space_group_name_H-M   'P 1'
_cell_length_a   16.99879378
_cell_length_b   16.98077435
_cell_length_c   16.99044849
_cell_angle_alpha   90.03661176
_cell_angle_beta   90.09084149
_cell_angle_gamma   89.89890682
_symmetry_Int_Tables_number   1
_chemical_formula_structural   V85Zn86O256
_chemical_formula_sum   'V85 Zn86 O256'
_cell_volume   4904.32372629
_cell_formula_units_Z   1
loop_
 _symmetry_equiv_pos_site_id
 _symmetry_equiv_pos_as_xyz
  1  'x, y, z'
loop_
 _atom_site_type_symbol
 _atom_site_label
 _atom_site_symmetry_multiplicity
 _atom_site_fract_x
 _atom_site_fract_y
 _atom_site_fract_z
 _atom_site_occupancy
  V  V0  1  0.37600023  0.74898543  0.63319559  1
  V  V1  1  0.00564322  0.00044803  0.50592715  1
  V  V2  1  0.00180472  0.87573909  0.37539309  1
  V  V3  1  -0.00249228  0.74677558  0.24299866  1
  V  V4  1  0.24812127  0.38216487  0.12643519  1
  V  V5  1  0.87005610  0.50074237  0.88254439  1
  V  V6  1  0.62560303  0.12499209  0.00052593  1
  V  V7  1  0.73991668  0.49150786  0.75224794  1
  V  V8  1  0.25203663  0.62685303  0.37457243  1
  V  V9  1  0.62689938  0.00394826  0.61960254  1
  V  V10  1  0.24477052  0.37985207  0.62977579  1
  V  V11  1  0.62157671  0.49081780  0.12802133  1
  V  V12  1  0.12458623  0.37523239  0.25049009  1
  V  V13  1  0.37859850  0.37966180  0.49906696  1
  V  V14  1  0.62196464  0.50148323  0.61673472  1
  V  V15  1  0.12712204  0.87561885  0.24926762  1
  V  V16  1  0.12080904  0.24658932  0.88221573  1
  V  V17  1  0.87571305  0.62761408  0.24399935  1
  V  V18  1  0.00024579  0.24839502  0.25109648  1
  V  V19  1  0.60427711  0.36818933  0.25597990  1
  V  V20  1  0.37792782  0.74511498  0.12545105  1
  V  V21  1  0.50271389  0.87324779  0.37600608  1
  V  V22  1  0.37823783  0.62516261  0.24808183  1
  V  V23  1  0.37727571  0.87542578  -0.00018399  1
  V  V24  1  -0.01057309  0.37734510  0.37632319  1
  V  V25  1  0.87006437  0.24705770  0.12458761  1
  V  V26  1  -0.00159677  0.25941808  0.74890640  1
  V  V27  1  -0.00778497  0.37971224  0.88064771  1
  V  V28  1  0.24753820  0.25115369  0.50075326  1
  V  V29  1  0.75789788  0.48865449  0.24841865  1
  V  V30  1  0.50029802  0.00142808  0.00080613  1
  V  V31  1  0.24475106  0.88131306  0.62323283  1
  V  V32  1  0.87691288  0.13201168  0.74639129  1
  V  V33  1  0.12801806  0.00576440  0.11744432  1
  V  V34  1  0.75456893  0.86689350  0.62237490  1
  V  V35  1  0.62810399  0.74463400  0.38490012  1
  V  V36  1  0.49612264  0.12872015  0.14216258  1
  V  V37  1  0.37833224  0.00608848  0.37032358  1
  V  V38  1  0.87689486  0.00106782  0.37771907  1
  V  V39  1  0.37505267  0.00118432  0.87593879  1
  V  V40  1  0.50537935  0.00358417  0.50190464  1
  V  V41  1  0.00553444  0.12257648  0.11443517  1
  V  V42  1  0.37963947  0.49854317  0.37693354  1
  V  V43  1  0.73998579  0.62258240  0.87982000  1
  V  V44  1  0.25452580  0.00416607  0.25041780  1
  V  V45  1  0.88378088  -0.01063383  0.87043480  1
  V  V46  1  0.75182199  0.62004056  0.37657015  1
  V  V47  1  0.86564098  0.62004963  0.72671394  1
  V  V48  1  0.61888951  0.62860559  0.01146789  1
  V  V49  1  0.24571443  0.12807277  0.87894787  1
  V  V50  1  0.62942336  0.87241334  0.24920870  1
  V  V51  1  0.14468452  0.39907448  0.77130139  1
  V  V52  1  0.00476386  0.13031562  0.62498054  1
  V  V53  1  0.11710922  0.62126002  -0.00513632  1
  V  V54  1  0.86795135  0.37365163  0.00448184  1
  V  V55  1  0.12359211  0.62746076  0.50557856  1
  V  V56  1  0.25038636  0.74398492  -0.00662568  1
  V  V57  1  0.87630791  0.12369488  0.25183010  1
  V  V58  1  0.12502072  0.50447841  0.63011743  1
  V  V59  1  0.75089306  -0.00054369  0.74692879  1
  V  V60  1  0.74678067  0.24711364  0.00120271  1
  V  V61  1  0.10784763  0.50757077  0.12684104  1
  V  V62  1  0.12014048  0.87508568  0.75623888  1
  V  V63  1  0.87750054  0.86436672  0.50382435  1
  V  V64  1  0.00031896  0.49986328  0.49378192  1
  V  V65  1  0.12710334  0.75078180  0.37281526  1
  V  V66  1  0.37506190  0.24997157  0.62564406  1
  V  V67  1  0.49804349  0.49633303  0.00051119  1
  V  V68  1  0.37521356  0.37561302  -0.00256837  1
  V  V69  1  0.25401018  0.12649904  0.37220287  1
  V  V70  1  0.75075282  -0.00089091  0.25184563  1
  V  V71  1  0.12705138  0.12410124  0.50382674  1
  V  V72  1  0.49919603  0.62765325  0.62498644  1
  V  V73  1  0.62492706  0.00092470  0.12785993  1
  V  V74  1  0.12473220  0.25078337  0.37609696  1
  V  V75  1  0.24557618  0.00430747  0.74305457  1
  V  V76  1  0.24668314  0.24633662  0.00243350  1
  V  V77  1  0.25153487  0.75293321  0.49829585  1
  V  V78  1  0.37602444  0.87488245  0.49994002  1
  V  V79  1  0.62033304  0.36796941  0.74522798  1
  V  V80  1  0.37426545  0.12996816  0.74824342  1
  V  V81  1  0.37558830  0.24595592  0.13956038  1
  V  V82  1  0.74422328  0.13089979  0.39007374  1
  V  V83  1  0.50362105  0.74609779  0.24642742  1
  V  V84  1  0.25233306  0.87632952  0.12561256  1
  Zn  Zn85  1  0.12290619  0.74850530  0.87087343  1
  Zn  Zn86  1  0.50507676  0.87647860  0.87295360  1
  Zn  Zn87  1  -0.00712270  0.74045477  0.72989515  1
  Zn  Zn88  1  0.76315134  0.86365332  0.12327056  1
  Zn  Zn89  1  0.49560996  0.37266660  0.87452088  1
  Zn  Zn90  1  0.50529785  0.12707528  0.62462500  1
  Zn  Zn91  1  0.88541376  0.86561394  0.00278924  1
  Zn  Zn92  1  0.62715260  0.75750593  0.87509570  1
  Zn  Zn93  1  0.62126659  0.24820010  0.37356535  1
  Zn  Zn94  1  0.35598019  0.60350015  0.77551103  1
  Zn  Zn95  1  0.80840828  0.33301981  0.55701714  1
  Zn  Zn96  1  0.50331258  0.74940284  0.75590712  1
  Zn  Zn97  1  0.75577550  0.73063315  0.51010507  1
  Zn  Zn98  1  0.62074562  0.24925915  0.87713085  1
  Zn  Zn99  1  0.49788817  0.24654091  0.75563695  1
  Zn  Zn100  1  0.25007466  0.50239612  0.24962973  1
  Zn  Zn101  1  0.62256281  0.87306599  0.75073693  1
  Zn  Zn102  1  -0.06249202  0.68763056  0.07524008  1
  Zn  Zn103  1  0.01355660  -0.00677023  -0.01604655  1
  Zn  Zn104  1  0.50431509  0.50701039  0.49457863  1
  Zn  Zn105  1  0.76383471  0.74735397  0.00491887  1
  Zn  Zn106  1  0.74961093  0.12320311  0.87359554  1
  Zn  Zn107  1  0.18853120  0.18753079  0.18944762  1
  Zn  Zn108  1  0.18364672  0.19991198  0.69227006  1
  Zn  Zn109  1  0.19015510  0.68715664  0.18389017  1
  Zn  Zn110  1  0.19570941  0.69050241  0.68906411  1
  Zn  Zn111  1  0.68601718  0.18519730  0.19187406  1
  Zn  Zn112  1  0.69134021  0.18811812  0.67748897  1
  Zn  Zn113  1  0.69311166  0.68644544  0.18626934  1
  Zn  Zn114  1  0.68377301  0.68379820  0.69051541  1
  Zn  Zn115  1  0.31087362  0.31602863  0.31547620  1
  Zn  Zn116  1  0.31700735  0.43244555  0.80979239  1
  Zn  Zn117  1  0.31538114  0.81606593  0.31238196  1
  Zn  Zn118  1  0.31067363  0.81582742  0.81304872  1
  Zn  Zn119  1  0.81057118  0.30645069  0.31664077  1
  Zn  Zn120  1  0.80772378  0.31080889  0.81356866  1
  Zn  Zn121  1  0.81505378  0.80938504  0.31544763  1
  Zn  Zn122  1  0.80817781  0.80540803  0.80930746  1
  Zn  Zn123  1  0.18855931  0.43965907  0.43826158  1
  Zn  Zn124  1  0.17880841  0.43432248  0.94863776  1
  Zn  Zn125  1  0.18907382  0.94011864  0.43536277  1
  Zn  Zn126  1  0.19325414  0.93459981  0.93510297  1
  Zn  Zn127  1  0.68979031  0.43017041  0.43231642  1
  Zn  Zn128  1  0.68102183  0.43216499  0.93705552  1
  Zn  Zn129  1  0.69048112  0.93447968  0.43786370  1
  Zn  Zn130  1  0.69552301  0.93397011  0.93932115  1
  Zn  Zn131  1  0.31574033  0.06483256  0.06445962  1
  Zn  Zn132  1  0.31644206  0.06235113  0.55817336  1
  Zn  Zn133  1  0.32112792  0.57217225  -0.02547872  1
  Zn  Zn134  1  0.30985803  0.56633467  0.56865667  1
  Zn  Zn135  1  0.83270900  0.03180789  0.07582664  1
  Zn  Zn136  1  0.82030334  0.06000895  0.56588345  1
  Zn  Zn137  1  0.80345901  0.55744240  0.06694220  1
  Zn  Zn138  1  0.80095228  0.52384371  0.54957201  1
  Zn  Zn139  1  0.43448453  0.43899167  0.18274292  1
  Zn  Zn140  1  0.44225997  0.43528682  0.68196376  1
  Zn  Zn141  1  0.44151170  0.93544906  0.18730537  1
  Zn  Zn142  1  0.43724154  0.93679022  0.68903396  1
  Zn  Zn143  1  0.93411151  0.43308644  0.18941667  1
  Zn  Zn144  1  0.94248770  0.45566099  0.69138642  1
  Zn  Zn145  1  0.94327651  0.93586704  0.18715887  1
  Zn  Zn146  1  0.93897855  0.93893357  0.68394987  1
  Zn  Zn147  1  0.06593118  0.06282707  0.31133982  1
  Zn  Zn148  1  0.06435403  0.06395133  0.80656734  1
  Zn  Zn149  1  0.06326578  0.56438764  0.31223954  1
  Zn  Zn150  1  0.04907476  0.57955067  0.81376330  1
  Zn  Zn151  1  0.56688725  0.06054196  0.31796600  1
  Zn  Zn152  1  0.56311581  0.06021699  0.81230088  1
  Zn  Zn153  1  0.56598355  0.56118279  0.31119420  1
  Zn  Zn154  1  0.54833548  0.56045582  0.81202289  1
  Zn  Zn155  1  0.44137215  0.18939328  0.43648472  1
  Zn  Zn156  1  0.43647054  0.19049834  0.94192729  1
  Zn  Zn157  1  0.44008146  0.68672595  0.44004658  1
  Zn  Zn158  1  0.44450939  0.68913309  0.93407701  1
  Zn  Zn159  1  0.93093492  0.19252300  0.43961563  1
  Zn  Zn160  1  0.93357451  0.18221361  0.93464760  1
  Zn  Zn161  1  0.93815296  0.68281158  0.43068059  1
  Zn  Zn162  1  0.93804582  0.69607591  0.90695111  1
  Zn  Zn163  1  0.05772022  0.31385313  0.06451061  1
  Zn  Zn164  1  -0.03683438  0.32210874  0.56863982  1
  Zn  Zn165  1  0.06690953  0.81854700  0.05705335  1
  Zn  Zn166  1  0.06256878  0.80945036  0.56735795  1
  Zn  Zn167  1  0.56020950  0.31095449  0.07158078  1
  Zn  Zn168  1  0.55444497  0.29875183  0.54071325  1
  Zn  Zn169  1  0.56518743  0.81633102  0.06450140  1
  Zn  Zn170  1  0.56477629  0.81526942  0.56680022  1
  O  O171  1  0.11796330  0.11768757  0.12979780  1
  O  O172  1  0.11722563  0.13174068  0.61722526  1
  O  O173  1  0.12412721  0.61136226  0.12530044  1
  O  O174  1  0.13201875  0.62064065  0.61221907  1
  O  O175  1  0.61589872  0.12177013  0.12046676  1
  O  O176  1  0.62412555  0.10870006  0.62663731  1
  O  O177  1  0.62865473  0.61263307  0.11547226  1
  O  O178  1  0.61582135  0.61084881  0.63037617  1
  O  O179  1  0.36606529  0.38634987  0.38656238  1
  O  O180  1  0.37199371  0.37306791  0.89538659  1
  O  O181  1  0.38257185  0.88329510  0.38053905  1
  O  O182  1  0.37259666  0.88497370  0.88360528  1
  O  O183  1  0.89080689  0.37105651  0.36850599  1
  O  O184  1  0.87456933  0.37988536  0.88335394  1
  O  O185  1  0.88215870  0.88116241  0.38348002  1
  O  O186  1  0.87394008  0.88802821  0.86264748  1
  O  O187  1  0.26086352  0.00543431  0.37128903  1
  O  O188  1  0.25391407  0.01075419  0.86731587  1
  O  O189  1  0.25945697  0.50859431  0.37129188  1
  O  O190  1  0.21149657  0.45630074  0.84316697  1
  O  O191  1  0.75521726  0.00645151  0.36788378  1
  O  O192  1  0.76013063  0.00339805  0.85863464  1
  O  O193  1  0.73852904  0.51428816  0.35676600  1
  O  O194  1  0.75090017  0.50202244  0.87179702  1
  O  O195  1  0.24075902  0.48409619  0.12709842  1
  O  O196  1  0.23916609  0.48948423  0.61822729  1
  O  O197  1  0.24705081  0.99781354  0.13066683  1
  O  O198  1  0.25859903  0.99421016  0.63278546  1
  O  O199  1  0.73702972  0.49945719  0.14175679  1
  O  O200  1  0.72794410  0.50284761  0.64161405  1
  O  O201  1  0.73959486  1.01234637  0.14347256  1
  O  O202  1  0.74669609  0.99375127  0.62965509  1
  O  O203  1  0.00590864  0.36840340  0.25618993  1
  O  O204  1  0.00187551  0.37205086  0.76658808  1
  O  O205  1  0.00630720  0.86860916  0.25591390  1
  O  O206  1  0.01979398  0.87933258  0.73922518  1
  O  O207  1  0.50538752  0.37579782  0.25175359  1
  O  O208  1  0.51014203  0.36837560  0.75255614  1
  O  O209  1  0.50759226  0.86588399  0.25697528  1
  O  O210  1  0.50218255  0.87286591  0.75367321  1
  O  O211  1  0.50701402  0.12141500  0.24122493  1
  O  O212  1  0.48676827  0.12332495  0.74620713  1
  O  O213  1  0.49079977  0.63637655  0.25624071  1
  O  O214  1  0.49302836  0.62915097  0.73727807  1
  O  O215  1  0.99556609  0.13035971  0.24534138  1
  O  O216  1  0.99872381  0.13610677  0.74281409  1
  O  O217  1  0.98962025  0.63509074  0.25893780  1
  O  O218  1  0.96490068  0.59288952  0.73161055  1
  O  O219  1  0.36289051  0.25606911  0.01044372  1
  O  O220  1  0.36623584  0.25835678  0.50707437  1
  O  O221  1  0.37056035  0.75376756  0.00977301  1
  O  O222  1  0.37004037  0.75777363  0.50469724  1
  O  O223  1  0.86610133  0.25044477  0.00573931  1
  O  O224  1  0.88478024  0.25509868  0.51672232  1
  O  O225  1  0.88416533  0.74558734  -0.00824273  1
  O  O226  1  0.87408489  0.76124851  0.49005219  1
  O  O227  1  0.13131309  0.23508595  0.49277062  1
  O  O228  1  0.13232260  0.25623410  0.99346986  1
  O  O229  1  0.13199102  0.74588879  0.49257549  1
  O  O230  1  0.13281517  0.73892372  0.99908586  1
  O  O231  1  0.66303239  0.25995444  0.53261385  1
  O  O232  1  0.63232782  0.24293057  1.00714743  1
  O  O233  1  0.63018696  0.75511143  0.48759744  1
  O  O234  1  0.62079229  0.73241571  1.00503592  1
  O  O235  1  0.48706248  0.23979694  0.12261943  1
  O  O236  1  0.48465094  0.24719954  0.62388606  1
  O  O237  1  0.49223370  0.75780455  0.13786729  1
  O  O238  1  0.49111948  0.74646640  0.62446594  1
  O  O239  1  0.99273916  0.24020463  0.12945765  1
  O  O240  1  1.01064770  0.24460762  0.64284519  1
  O  O241  1  1.00783212  0.75460906  0.13924769  1
  O  O242  1  0.99567126  0.74479270  0.62205207  1
  O  O243  1  0.00581059  0.25668106  0.37022753  1
  O  O244  1  0.00325327  0.25287709  0.86931429  1
  O  O245  1  0.00811925  0.75698835  0.36599899  1
  O  O246  1  0.02180798  0.70413234  0.83451109  1
  O  O247  1  0.52965487  0.25391922  0.43545544  1
  O  O248  1  0.50221053  0.25238358  0.87339666  1
  O  O249  1  0.50808180  0.75318597  0.36822936  1
  O  O250  1  0.50780675  0.75738397  0.87502133  1
  O  O251  1  0.24441670  0.12828999  0.49422626  1
  O  O252  1  0.25552846  0.13382614  0.99030123  1
  O  O253  1  0.24330880  0.63357509  0.49382386  1
  O  O254  1  0.23661230  0.63587033  1.01165829  1
  O  O255  1  0.75784912  0.11462879  0.48758063  1
  O  O256  1  0.73648735  0.13113441  1.00176348  1
  O  O257  1  0.75689432  0.61608480  0.47989131  1
  O  O258  1  0.73501013  0.61914720  0.99530187  1
  O  O259  1  0.25408041  0.36662600  0.00943681  1
  O  O260  1  0.25292532  0.36953936  0.50985093  1
  O  O261  1  0.25699851  0.86688570  0.00711931  1
  O  O262  1  0.25487619  0.87433265  0.50505478  1
  O  O263  1  0.75708564  0.35975779  -0.00294498  1
  O  O264  1  0.77205068  0.42292877  0.50259795  1
  O  O265  1  0.76355791  0.86822791  0.00066677  1
  O  O266  1  0.76319311  0.87658250  0.50677914  1
  O  O267  1  0.12727460  0.49670917  0.23869070  1
  O  O268  1  0.10569713  0.49943140  0.74233868  1
  O  O269  1  0.13401018  0.99430863  0.24309495  1
  O  O270  1  0.13812216  0.99250045  0.75185007  1
  O  O271  1  0.62826905  0.48819276  0.24530313  1
  O  O272  1  0.62545297  0.48983785  0.75242852  1
  O  O273  1  0.63290168  0.99226044  0.24960398  1
  O  O274  1  0.63788879  1.00064218  0.74149026  1
  O  O275  1  0.37269377  -0.00734173  0.26353583  1
  O  O276  1  0.36450697  0.01086614  0.75397093  1
  O  O277  1  0.37481088  0.50999489  0.25576994  1
  O  O278  1  0.39262756  0.49487152  0.76165826  1
  O  O279  1  0.86951640  0.00456144  0.25891641  1
  O  O280  1  0.87087846  0.00853721  0.75219629  1
  O  O281  1  0.86246521  0.50486367  0.24527629  1
  O  O282  1  0.85469995  0.50181524  0.76265343  1
  O  O283  1  0.12353403  0.36842832  0.36832009  1
  O  O284  1  0.10626070  0.36565221  0.88078703  1
  O  O285  1  0.12217591  0.87113907  0.36897183  1
  O  O286  1  0.12829085  0.87486990  0.86071252  1
  O  O287  1  0.62618739  0.37532110  0.35937777  1
  O  O288  1  0.62048717  0.36947695  0.86190380  1
  O  O289  1  0.62303933  0.86529718  0.36861891  1
  O  O290  1  0.62551137  0.87716329  0.87222749  1
  O  O291  1  0.38397588  0.13322326  0.12373892  1
  O  O292  1  0.37098253  0.13344332  0.63151313  1
  O  O293  1  0.37316307  0.64104538  0.13728108  1
  O  O294  1  0.38069572  0.63909977  0.62155660  1
  O  O295  1  0.88629325  0.12661358  0.13105944  1
  O  O296  1  0.89153180  0.12111615  0.63591876  1
  O  O297  1  0.87388721  0.61731411  0.13679401  1
  O  O298  1  0.84317087  0.61049954  0.63119011  1
  O  O299  1  0.25213846  0.25495884  0.11843949  1
  O  O300  1  0.25462263  0.25723811  0.61908897  1
  O  O301  1  0.25870598  0.75745490  0.11919993  1
  O  O302  1  0.25880412  0.76218677  0.61629654  1
  O  O303  1  0.76376318  0.23814117  0.11861160  1
  O  O304  1  0.71780591  0.26608087  0.59491485  1
  O  O305  1  0.75466462  0.75058620  0.12064715  1
  O  O306  1  0.74222067  0.76190586  0.62169180  1
  O  O307  1  0.24576950  0.24548683  0.38155509  1
  O  O308  1  0.23797033  0.24266202  0.88761155  1
  O  O309  1  0.24745237  0.74795190  0.37886676  1
  O  O310  1  0.24630970  0.75641985  0.88998844  1
  O  O311  1  0.74723050  0.23535957  0.37766959  1
  O  O312  1  0.74628702  0.24281664  0.88746964  1
  O  O313  1  0.74349557  0.73789790  0.37459266  1
  O  O314  1  0.74720521  0.73332850  0.88092404  1
  O  O315  1  -0.00408370  0.11819843  0.01102066  1
  O  O316  1  0.00785235  0.12029321  0.50622282  1
  O  O317  1  0.01624325  0.63515708  0.00172033  1
  O  O318  1  0.01840236  0.61610963  0.48226691  1
  O  O319  1  0.50881411  0.12020879  0.00822894  1
  O  O320  1  0.49111914  0.10506239  0.50677541  1
  O  O321  1  0.51476556  0.61355439  0.00053108  1
  O  O322  1  0.49718908  0.62379368  0.51591699  1
  O  O323  1  0.47966310  0.38733918  0.51401966  1
  O  O324  1  0.49001905  0.37826251  1.00604548  1
  O  O325  1  0.49552635  0.88137188  0.49457625  1
  O  O326  1  0.49387209  0.88471733  1.00262873  1
  O  O327  1  1.00959717  0.39011422  0.48821022  1
  O  O328  1  0.98276789  0.36422863  0.98956440  1
  O  O329  1  0.99822559  0.88299434  0.49610290  1
  O  O330  1  0.99807994  0.88218138  0.99842195  1
  O  O331  1  0.48454876  0.50994530  0.37739089  1
  O  O332  1  0.50705212  0.49225461  0.89653234  1
  O  O333  1  0.49618672  0.99433132  0.38169561  1
  O  O334  1  0.49104197  1.00262877  0.88360181  1
  O  O335  1  1.01277528  0.48971668  0.38287299  1
  O  O336  1  0.98115990  0.49065676  0.87314979  1
  O  O337  1  0.99750919  0.99623984  0.38324864  1
  O  O338  1  0.98847151  1.00562453  0.86712207  1
  O  O339  1  0.01499925  0.00977563  0.12909671  1
  O  O340  1  0.00114208  0.01103396  0.61275050  1
  O  O341  1  0.00942204  0.49602156  0.12903141  1
  O  O342  1  0.01849709  0.49494238  0.60616840  1
  O  O343  1  0.50482403  0.00816189  0.12176772  1
  O  O344  1  0.50960032  -0.00431956  0.61747685  1
  O  O345  1  0.51137435  0.49629668  0.11733673  1
  O  O346  1  0.50885257  0.50958088  0.62409440  1
  O  O347  1  0.24158424  0.37550712  0.24204849  1
  O  O348  1  0.24891615  0.36491362  0.73655115  1
  O  O349  1  0.24695649  0.88228963  0.24530939  1
  O  O350  1  0.24632594  0.88760277  0.74224060  1
  O  O351  1  0.75295629  0.38818217  0.25751583  1
  O  O352  1  0.73478382  0.38064342  0.75548214  1
  O  O353  1  0.74872091  0.88547699  0.25269476  1
  O  O354  1  0.75612683  0.88495221  0.73795516  1
  O  O355  1  0.24593442  0.11751714  0.26036814  1
  O  O356  1  0.25310867  0.12294879  0.75638602  1
  O  O357  1  0.26260345  0.62740270  0.25539560  1
  O  O358  1  0.25299016  0.61191503  0.73596793  1
  O  O359  1  0.75631041  0.11705451  0.26136681  1
  O  O360  1  0.76109232  0.11961535  0.74160089  1
  O  O361  1  0.75854831  0.61755330  0.25452021  1
  O  O362  1  0.74956347  0.61200883  0.76233226  1
  O  O363  1  0.37160061  0.11482574  0.38277093  1
  O  O364  1  0.36389129  0.12353370  0.86731289  1
  O  O365  1  0.37008606  0.62156979  0.36795498  1
  O  O366  1  0.37092784  0.62042339  0.88763002  1
  O  O367  1  0.86792125  0.12084553  0.37118149  1
  O  O368  1  0.87339756  0.11775450  0.85806532  1
  O  O369  1  0.86055300  0.62850965  0.36074213  1
  O  O370  1  0.85923382  0.60953344  0.88038334  1
  O  O371  1  0.12704300  0.38279903  0.12868951  1
  O  O372  1  0.13525757  0.38945934  0.64978998  1
  O  O373  1  0.13382506  0.88485485  0.13108501  1
  O  O374  1  0.14119004  0.87576670  0.62919960  1
  O  O375  1  0.62316086  0.38008642  0.14171027  1
  O  O376  1  0.61348130  0.39121799  0.64095558  1
  O  O377  1  0.62920741  0.88468376  0.13302181  1
  O  O378  1  0.63787528  0.88635524  0.62544722  1
  O  O379  1  0.11928612  0.25476210  0.25579938  1
  O  O380  1  0.11982606  0.26686503  0.76670739  1
  O  O381  1  0.12072793  0.75510379  0.25385273  1
  O  O382  1  0.13773302  0.77100884  0.74753523  1
  O  O383  1  0.62797155  0.26459151  0.25159992  1
  O  O384  1  0.62624702  0.25987373  0.74422898  1
  O  O385  1  0.61817203  0.75249403  0.25521704  1
  O  O386  1  0.62453911  0.75406385  0.75469382  1
  O  O387  1  0.36733712  0.25386505  0.23872422  1
  O  O388  1  0.37250212  0.23874676  0.73798882  1
  O  O389  1  0.38368116  0.74645209  0.24650154  1
  O  O390  1  0.37219710  0.75495757  0.73706030  1
  O  O391  1  0.87929215  0.24422823  0.24154824  1
  O  O392  1  0.88535586  0.24356116  0.75739626  1
  O  O393  1  0.88632890  0.74353894  0.25192314  1
  O  O394  1  0.86995527  0.72245702  0.75449364  1
  O  O395  1  0.36915842  0.49575555  0.49246635  1
  O  O396  1  0.38409570  0.48780244  1.01346976  1
  O  O397  1  0.38255470  0.99251510  0.49054972  1
  O  O398  1  0.37934177  0.99576469  0.99615020  1
  O  O399  1  0.90490118  0.51754741  0.49979650  1
  O  O400  1  0.86012025  0.48481860  0.99504673  1
  O  O401  1  0.88912047  0.99221590  0.49589422  1
  O  O402  1  0.87278401  1.00802502  0.97132028  1
  O  O403  1  0.13206272  -0.00311090  0.01339478  1
  O  O404  1  0.11809187  0.01300851  0.49228436  1
  O  O405  1  0.12647270  0.50920404  0.01713181  1
  O  O406  1  0.12535947  0.51069687  0.50627068  1
  O  O407  1  0.62225155  0.00848480  0.00789550  1
  O  O408  1  0.61622832  -0.00878289  0.50627284  1
  O  O409  1  0.62080187  0.49909301  0.01188886  1
  O  O410  1  0.62224842  0.49165336  0.51492471  1
  O  O411  1  0.36493996  0.36628759  0.12097198  1
  O  O412  1  0.36440318  0.36826992  0.61986325  1
  O  O413  1  0.37155606  0.86693657  0.12153056  1
  O  O414  1  0.36665982  0.87015677  0.61872757  1
  O  O415  1  0.88212479  0.35869196  0.11602702  1
  O  O416  1  0.88628656  0.37874889  0.63278276  1
  O  O417  1  0.86527105  0.91920910  0.11031578  1
  O  O418  1  0.86744691  0.88127843  0.61435888  1
  O  O419  1  0.13209305  0.13035624  0.38203294  1
  O  O420  1  0.13344815  0.13501555  0.86821356  1
  O  O421  1  0.13541892  0.63191654  0.37840007  1
  O  O422  1  0.12976016  0.60822461  0.89599453  1
  O  O423  1  0.64113773  0.12400543  0.37532183  1
  O  O424  1  0.62582799  0.12543002  0.88743271  1
  O  O425  1  0.63784195  0.63432835  0.36570473  1
  O  O426  1  0.63067401  0.61710714  0.88832738  1
