# generated using pymatgen
data_V85Zn86O256
_symmetry_space_group_name_H-M   'P 1'
_cell_length_a   16.96203866
_cell_length_b   16.97769975
_cell_length_c   16.96741723
_cell_angle_alpha   90.02439922
_cell_angle_beta   90.05846662
_cell_angle_gamma   90.01250843
_symmetry_Int_Tables_number   1
_chemical_formula_structural   V85Zn86O256
_chemical_formula_sum   'V85 Zn86 O256'
_cell_volume   4886.21261902
_cell_formula_units_Z   1
loop_
 _symmetry_equiv_pos_site_id
 _symmetry_equiv_pos_as_xyz
  1  'x, y, z'
loop_
 _atom_site_type_symbol
 _atom_site_label
 _atom_site_symmetry_multiplicity
 _atom_site_fract_x
 _atom_site_fract_y
 _atom_site_fract_z
 _atom_site_occupancy
  V  V0  1  0.37838770  0.37498181  -0.00093751  1
  V  V1  1  -0.00352295  0.50078394  0.50102578  1
  V  V2  1  0.63917659  0.12630003  0.49661374  1
  V  V3  1  0.12369139  0.12635116  0.49983836  1
  V  V4  1  0.50331576  0.25198776  0.25110261  1
  V  V5  1  0.87064264  0.37407478  0.49790620  1
  V  V6  1  0.26061392  0.86628745  0.12329065  1
  V  V7  1  0.62385302  0.37404784  0.75606439  1
  V  V8  1  0.75180760  0.75087188  0.49943582  1
  V  V9  1  0.00558392  0.87376302  0.37602865  1
  V  V10  1  0.24954601  0.87300411  0.62425305  1
  V  V11  1  0.11832430  0.87019215  0.75177847  1
  V  V12  1  0.86938135  0.61829444  0.25303158  1
  V  V13  1  0.36639078  0.50101251  0.37392438  1
  V  V14  1  0.00663176  0.61951574  0.11799669  1
  V  V15  1  0.37467275  0.13181496  0.74483324  1
  V  V16  1  0.24804169  0.00167148  0.74948679  1
  V  V17  1  0.24730281  0.12514219  0.37482901  1
  V  V18  1  0.49857285  0.63051769  0.63483135  1
  V  V19  1  0.24652359  0.74231599  0.49549622  1
  V  V20  1  -0.00043768  0.62839100  0.62963578  1
  V  V21  1  0.49722302  0.74768977  0.24953228  1
  V  V22  1  0.63058766  0.49927965  0.63109671  1
  V  V23  1  0.00206426  0.25176331  0.24524213  1
  V  V24  1  0.25394200  0.50439830  0.74992835  1
  V  V25  1  0.50002635  0.87323328  0.37669311  1
  V  V26  1  0.86881880  0.24792443  0.62062277  1
  V  V27  1  0.12964436  -0.00617739  0.11891922  1
  V  V28  1  0.50540555  0.49740074  -0.00207637  1
  V  V29  1  0.87800978  0.75112873  0.63349587  1
  V  V30  1  0.86824677  0.60925342  0.75163186  1
  V  V31  1  0.37616910  0.36976433  0.50394944  1
  V  V32  1  -0.00051949  0.12599141  0.62486088  1
  V  V33  1  0.75373900  0.61206969  0.87919450  1
  V  V34  1  -0.01292720  0.87730857  0.87835196  1
  V  V35  1  0.62642234  0.62478845  0.50200395  1
  V  V36  1  0.12483496  0.37540775  0.75159299  1
  V  V37  1  -0.00325757  0.37985729  0.37461947  1
  V  V38  1  0.87550981  0.38564321  -0.00882041  1
  V  V39  1  -0.02382217  -0.00204788  -0.00094102  1
  V  V40  1  0.62670181  0.49665892  0.13489364  1
  V  V41  1  0.24900569  0.12561295  0.87586177  1
  V  V42  1  0.38146524  0.49824218  0.87356837  1
  V  V43  1  0.50168191  0.49938660  0.50167975  1
  V  V44  1  0.11840699  0.25185348  0.87529740  1
  V  V45  1  0.24873316  0.25176150  0.00653230  1
  V  V46  1  0.62165231  0.87051930  0.74941450  1
  V  V47  1  0.87895163  0.87869566  0.49461931  1
  V  V48  1  0.75018122  0.24875521  0.00165571  1
  V  V49  1  0.12910499  0.86769219  0.25226262  1
  V  V50  1  0.63516900  0.24636118  0.37740068  1
  V  V51  1  0.75107260  0.87605363  0.62469428  1
  V  V52  1  0.25163440  0.25050988  0.50144031  1
  V  V53  1  0.75082037  -0.00021859  0.75425641  1
  V  V54  1  -0.00796300  0.11046301  0.13822589  1
  V  V55  1  0.49958017  0.25375119  0.75421545  1
  V  V56  1  0.62745931  0.74744107  0.37583742  1
  V  V57  1  0.12488974  0.25107781  0.37601982  1
  V  V58  1  0.63587020  0.75164664  0.88111732  1
  V  V59  1  0.61994729  0.12477217  0.00019136  1
  V  V60  1  0.74757276  0.37687173  0.13076620  1
  V  V61  1  0.50433303  0.37411512  0.37215970  1
  V  V62  1  0.24954063  0.39509381  0.13032059  1
  V  V63  1  0.49734179  0.86353229  0.86879451  1
  V  V64  1  0.13232940  0.38770412  0.24928082  1
  V  V65  1  0.12303451  0.12492777  0.00344454  1
  V  V66  1  0.49784167  0.62675397  0.12548478  1
  V  V67  1  0.85929446  0.76019595  0.11562221  1
  V  V68  1  0.88135234  0.25091658  0.12664929  1
  V  V69  1  0.37456185  -0.00042746  0.37349947  1
  V  V70  1  0.37730338  0.00013878  0.87563339  1
  V  V71  1  0.75186586  0.12143432  0.87952985  1
  V  V72  1  0.25422998  0.37043061  0.62589181  1
  V  V73  1  0.50056344  0.00147212  0.49955982  1
  V  V74  1  0.37287016  0.12458338  0.24925207  1
  V  V75  1  0.87471539  0.12364108  0.75543498  1
  V  V76  1  0.37255935  0.62070490  0.25264970  1
  V  V77  1  0.49601980  0.12678978  0.12225440  1
  V  V78  1  0.12260998  0.00204384  0.62450593  1
  V  V79  1  0.37552583  0.86420097  -0.00082320  1
  V  V80  1  0.49894874  0.13218183  0.62241478  1
  V  V81  1  0.00117160  0.74837967  0.25022621  1
  V  V82  1  0.25135015  -0.00151486  0.24947716  1
  V  V83  1  0.74890698  0.37340105  0.62651943  1
  V  V84  1  0.12187542  0.74802736  0.88402560  1
  Zn  Zn85  1  0.24535152  0.62438840  0.88287905  1
  Zn  Zn86  1  0.23398578  0.62485345  0.36094105  1
  Zn  Zn87  1  0.80987681  0.06657678  0.28681402  1
  Zn  Zn88  1  0.11815272  0.62848689  0.49331285  1
  Zn  Zn89  1  0.02755659  0.52210731  -0.01310594  1
  Zn  Zn90  1  0.37210885  0.25423729  0.13004519  1
  Zn  Zn91  1  0.37344665  0.87213498  0.50257339  1
  Zn  Zn92  1  0.38020738  0.75711474  0.63307188  1
  Zn  Zn93  1  -0.00371344  0.25271159  0.75243697  1
  Zn  Zn94  1  0.62573173  0.00119540  0.62370496  1
  Zn  Zn95  1  0.76232696  0.61127928  0.38418486  1
  Zn  Zn96  1  -0.02099896  0.39919185  0.86437641  1
  Zn  Zn97  1  0.63694176  0.63099502  0.00750309  1
  Zn  Zn98  1  0.63715880  0.88164997  0.24455299  1
  Zn  Zn99  1  0.38060145  0.63787353  0.75838572  1
  Zn  Zn100  1  0.24809010  0.73998939  0.00517946  1
  Zn  Zn101  1  0.74978103  0.49073305  0.26116358  1
  Zn  Zn102  1  0.62085277  0.25463754  0.87780671  1
  Zn  Zn103  1  0.63232909  0.00152353  0.13514853  1
  Zn  Zn104  1  0.49958372  -0.00327504  -0.00061307  1
  Zn  Zn105  1  0.12664528  0.50404353  0.62511182  1
  Zn  Zn106  1  -0.00198385  0.00385144  0.49497112  1
  Zn  Zn107  1  0.17918894  0.18788242  0.19023757  1
  Zn  Zn108  1  0.18700200  0.18978399  0.68748635  1
  Zn  Zn109  1  0.18810786  0.68300402  0.18174320  1
  Zn  Zn110  1  0.18579095  0.68994460  0.68840627  1
  Zn  Zn111  1  0.68726332  0.18467781  0.18908603  1
  Zn  Zn112  1  0.68509455  0.18764086  0.68595015  1
  Zn  Zn113  1  0.68590786  0.68678507  0.18953453  1
  Zn  Zn114  1  0.68979577  0.68871835  0.68996895  1
  Zn  Zn115  1  0.31368097  0.31395527  0.31304028  1
  Zn  Zn116  1  0.31126012  0.31324775  0.81593028  1
  Zn  Zn117  1  0.31606215  0.81061087  0.31408366  1
  Zn  Zn118  1  0.30656367  0.80979601  0.81068410  1
  Zn  Zn119  1  0.81705635  0.30925416  0.31208059  1
  Zn  Zn120  1  0.80539035  0.30875369  0.81061499  1
  Zn  Zn121  1  0.81759657  0.80946911  0.31141614  1
  Zn  Zn122  1  0.80976371  0.80945738  0.81263038  1
  Zn  Zn123  1  0.18269981  0.44015953  0.43908751  1
  Zn  Zn124  1  0.19247786  0.44269087  0.93605600  1
  Zn  Zn125  1  0.18548239  0.93677042  0.43766385  1
  Zn  Zn126  1  0.18957572  0.93237566  0.93627400  1
  Zn  Zn127  1  0.68675327  0.43411207  0.44092216  1
  Zn  Zn128  1  0.69006960  0.43885626  0.94067521  1
  Zn  Zn129  1  0.69057218  0.93835371  0.42999798  1
  Zn  Zn130  1  0.68428469  0.94116490  0.93886917  1
  Zn  Zn131  1  0.31360212  0.06114228  0.06292787  1
  Zn  Zn132  1  0.31226577  0.06152442  0.56204461  1
  Zn  Zn133  1  0.31603487  0.56834921  0.05953845  1
  Zn  Zn134  1  0.31586600  0.55924756  0.56330395  1
  Zn  Zn135  1  0.80491812  0.06108679  0.09810111  1
  Zn  Zn136  1  0.81579746  0.05812296  0.56613277  1
  Zn  Zn137  1  0.81716730  0.56704657  0.06784225  1
  Zn  Zn138  1  0.81282335  0.56036429  0.56391035  1
  Zn  Zn139  1  0.43676132  0.43863415  0.18707973  1
  Zn  Zn140  1  0.44128591  0.43915772  0.68669968  1
  Zn  Zn141  1  0.46437425  0.92553240  0.17482238  1
  Zn  Zn142  1  0.43741839  0.94284879  0.68753602  1
  Zn  Zn143  1  0.93893672  0.43774502  0.18328623  1
  Zn  Zn144  1  0.93801069  0.43754097  0.68434435  1
  Zn  Zn145  1  0.93804584  0.93301906  0.18640866  1
  Zn  Zn146  1  0.93750419  0.93932301  0.68818509  1
  Zn  Zn147  1  -0.03081458  0.06625427  0.31608087  1
  Zn  Zn148  1  0.05892264  0.05917844  0.81599025  1
  Zn  Zn149  1  0.05726780  0.56568186  0.31224377  1
  Zn  Zn150  1  0.05971139  0.56515839  0.80753448  1
  Zn  Zn151  1  0.56362972  0.06550611  0.31192721  1
  Zn  Zn152  1  0.56339566  0.06274978  0.81240857  1
  Zn  Zn153  1  0.56223395  0.56144835  0.31572485  1
  Zn  Zn154  1  0.56927667  0.56192224  0.81514853  1
  Zn  Zn155  1  0.43861016  0.18710844  0.43539653  1
  Zn  Zn156  1  0.43438529  0.19153640  0.93373579  1
  Zn  Zn157  1  0.43330160  0.68699984  0.44462462  1
  Zn  Zn158  1  0.44155887  0.68308696  0.93606352  1
  Zn  Zn159  1  0.92835171  0.18759601  0.43399104  1
  Zn  Zn160  1  0.93766643  0.18563081  0.94529708  1
  Zn  Zn161  1  0.93977431  0.69191505  0.43666980  1
  Zn  Zn162  1  0.93287120  0.69377844  0.93591962  1
  Zn  Zn163  1  0.07668946  0.35160593  0.04755517  1
  Zn  Zn164  1  0.06028466  0.31171172  0.56527865  1
  Zn  Zn165  1  0.05384689  0.81181582  0.06241995  1
  Zn  Zn166  1  0.06451485  0.81039699  0.56311718  1
  Zn  Zn167  1  0.56344097  0.31301622  0.06556850  1
  Zn  Zn168  1  0.56514654  0.30961658  0.56078115  1
  Zn  Zn169  1  0.56660154  0.81385636  0.06067046  1
  Zn  Zn170  1  0.56511957  0.81258756  0.56264480  1
  O  O171  1  0.11772274  0.11240872  0.12304137  1
  O  O172  1  0.12011221  0.12293567  0.62034668  1
  O  O173  1  0.10619308  0.62781310  0.12909933  1
  O  O174  1  0.11100949  0.62586970  0.62514283  1
  O  O175  1  0.61125833  0.12790831  0.11418472  1
  O  O176  1  0.61664726  0.12329304  0.61539801  1
  O  O177  1  0.61755723  0.61598335  0.12432918  1
  O  O178  1  0.62023159  0.61816933  0.62380311  1
  O  O179  1  0.38329952  0.38218099  0.38336177  1
  O  O180  1  0.36919770  0.38533971  0.88769073  1
  O  O181  1  0.38336712  0.88075306  0.38150579  1
  O  O182  1  0.37950562  0.88198593  0.87677128  1
  O  O183  1  0.88431983  0.36580319  0.38652871  1
  O  O184  1  0.86487176  0.37114541  0.88563539  1
  O  O185  1  0.88917431  0.86361528  0.38759073  1
  O  O186  1  0.88854121  0.87105155  0.86838362  1
  O  O187  1  0.25424959  0.00455105  0.36966779  1
  O  O188  1  0.25790598  0.00494606  0.86918630  1
  O  O189  1  0.26332414  0.50348499  0.38414169  1
  O  O190  1  0.26027121  0.50115883  0.86559955  1
  O  O191  1  0.76062951  -0.03547192  0.33851060  1
  O  O192  1  0.74588199  0.01050672  0.86751137  1
  O  O193  1  0.73946183  0.50166203  0.37204748  1
  O  O194  1  0.74534319  0.51359043  0.87130889  1
  O  O195  1  0.25672096  0.49291710  0.12529264  1
  O  O196  1  0.24978663  0.48880975  0.63213621  1
  O  O197  1  0.24812793  0.98979312  0.12913001  1
  O  O198  1  0.24293693  0.99344812  0.62892583  1
  O  O199  1  0.74198650  0.49362390  0.12571579  1
  O  O200  1  0.73867562  0.49042942  0.62229522  1
  O  O201  1  0.73981654  0.95883420  0.09406754  1
  O  O202  1  0.74684252  0.99400472  0.63646785  1
  O  O203  1  0.00650640  0.37130469  0.25563543  1
  O  O204  1  0.00898589  0.37399263  0.75229623  1
  O  O205  1  0.00961277  0.86715883  0.25531965  1
  O  O206  1  0.00857478  0.88800142  0.76467199  1
  O  O207  1  0.49390940  0.36525328  0.26085828  1
  O  O208  1  0.50943288  0.36307002  0.73974300  1
  O  O209  1  0.48986896  0.86200334  0.26814455  1
  O  O210  1  0.51075400  0.88480954  0.75727210  1
  O  O211  1  0.49275118  0.13392184  0.24245526  1
  O  O212  1  0.49497789  0.13082355  0.74196729  1
  O  O213  1  0.49596152  0.62999357  0.24591775  1
  O  O214  1  0.50470025  0.62024695  0.73753847  1
  O  O215  1  1.01805153  0.14668874  0.24682307  1
  O  O216  1  0.98876458  0.12402789  0.74680092  1
  O  O217  1  0.99044337  0.63100536  0.24159164  1
  O  O218  1  0.98274563  0.62215873  0.73828726  1
  O  O219  1  0.36548107  0.25947429  -0.00224021  1
  O  O220  1  0.36976053  0.26254584  0.49284910  1
  O  O221  1  0.37510207  0.76188191  -0.00999191  1
  O  O222  1  0.36439906  0.75223455  0.51303397  1
  O  O223  1  0.86332856  0.25687375  0.00472798  1
  O  O224  1  0.88086980  0.26036104  0.51116916  1
  O  O225  1  0.87288964  0.74819273  0.01644992  1
  O  O226  1  0.87008265  0.75749409  0.50920872  1
  O  O227  1  0.13106672  0.24759901  0.49674154  1
  O  O228  1  0.13183002  0.24886529  0.99335007  1
  O  O229  1  0.14138435  0.74858567  0.50450975  1
  O  O230  1  0.12428565  0.75677382  0.98717983  1
  O  O231  1  0.62254758  0.24060105  0.48762078  1
  O  O232  1  0.63341949  0.24506513  1.00022451  1
  O  O233  1  0.63176838  0.74557969  0.49443258  1
  O  O234  1  0.61828905  0.74609483  0.98744884  1
  O  O235  1  0.49818728  0.24548124  0.13464260  1
  O  O236  1  0.50281262  0.23812848  0.63182553  1
  O  O237  1  0.50772737  0.73585977  0.13678039  1
  O  O238  1  0.50338912  0.73365247  0.62041533  1
  O  O239  1  0.99645263  0.25046794  0.13277662  1
  O  O240  1  0.98839426  0.24452242  0.63001254  1
  O  O241  1  0.99168778  0.74286441  0.13400715  1
  O  O242  1  0.98935930  0.73933509  0.61705173  1
  O  O243  1  0.00442775  0.26144612  0.36755938  1
  O  O244  1  0.01250690  0.24763540  0.87623038  1
  O  O245  1  0.00095243  0.75797611  0.36104013  1
  O  O246  1  0.00891233  0.76745720  0.87983616  1
  O  O247  1  0.50467140  0.25629094  0.36833449  1
  O  O248  1  0.50314174  0.24653599  0.85975463  1
  O  O249  1  0.50693843  0.75413677  0.37435745  1
  O  O250  1  0.50806315  0.75956019  0.87249253  1
  O  O251  1  0.24601804  0.13098754  0.49634522  1
  O  O252  1  0.24512336  0.13336885  0.99628666  1
  O  O253  1  0.24996068  0.63690678  0.50888919  1
  O  O254  1  0.24914164  0.62758375  0.99678163  1
  O  O255  1  0.73802762  0.11313689  0.50226470  1
  O  O256  1  0.74087120  0.13188378  0.99784732  1
  O  O257  1  0.74574086  0.63187741  0.50139765  1
  O  O258  1  0.75451006  0.62095765  0.98422247  1
  O  O259  1  0.25981849  0.36906170  0.01066389  1
  O  O260  1  0.25621549  0.37205739  0.50707822  1
  O  O261  1  0.26019473  0.87223177  0.00710338  1
  O  O262  1  0.24859436  0.86708313  0.50904417  1
  O  O263  1  0.75533568  0.36660593  0.00702843  1
  O  O264  1  0.75978597  0.37660744  0.51289920  1
  O  O265  1  0.74215091  0.90548581  0.03366352  1
  O  O266  1  0.75821097  0.87188786  0.50395567  1
  O  O267  1  0.12034639  0.48605689  0.25661697  1
  O  O268  1  0.13645046  0.49123488  0.74988798  1
  O  O269  1  0.13455864  0.98307913  0.23229510  1
  O  O270  1  0.13013086  0.99570163  0.74556771  1
  O  O271  1  0.62415687  0.50250102  0.23792135  1
  O  O272  1  0.61736850  0.48802142  0.73922690  1
  O  O273  1  0.61612668  0.99532909  0.24795724  1
  O  O274  1  0.63491268  0.99192596  0.75023010  1
  O  O275  1  0.36983140  0.00592648  0.25566586  1
  O  O276  1  0.36976565  0.01027056  0.75827970  1
  O  O277  1  0.38430495  0.50829210  0.26332610  1
  O  O278  1  0.37034167  0.49550311  0.75907772  1
  O  O279  1  0.91391209  0.03745205  0.21519582  1
  O  O280  1  0.86254551  0.01216434  0.74478053  1
  O  O281  1  0.87488758  0.51502492  0.24389335  1
  O  O282  1  0.87023475  0.51030530  0.74496611  1
  O  O283  1  0.11772692  0.37019904  0.37135717  1
  O  O284  1  0.13247711  0.36492137  0.86130794  1
  O  O285  1  0.12349125  0.87508745  0.36092717  1
  O  O286  1  0.11974356  0.86919594  0.86806265  1
  O  O287  1  0.61229091  0.36009704  0.38536719  1
  O  O288  1  0.63425684  0.37481671  0.86045582  1
  O  O289  1  0.61367682  0.86320125  0.37804167  1
  O  O290  1  0.61838068  0.87048941  0.87080296  1
  O  O291  1  0.37834671  0.13267451  0.12947909  1
  O  O292  1  0.38352292  0.11844410  0.63616913  1
  O  O293  1  0.39052731  0.61362989  0.13748086  1
  O  O294  1  0.39353770  0.61763748  0.62877870  1
  O  O295  1  0.88578215  0.14678740  0.10980592  1
  O  O296  1  0.87757288  0.13166669  0.63230658  1
  O  O297  1  0.87982046  0.63713550  0.13688497  1
  O  O298  1  0.87610880  0.63055329  0.63486882  1
  O  O299  1  0.24878174  0.24923376  0.11331888  1
  O  O300  1  0.24799884  0.26275433  0.61986363  1
  O  O301  1  0.25063966  0.76335467  0.12439318  1
  O  O302  1  0.24845663  0.76239533  0.62023030  1
  O  O303  1  0.75650510  0.25731615  0.11886794  1
  O  O304  1  0.76024588  0.25547880  0.62635468  1
  O  O305  1  0.75846746  0.75174612  0.13263571  1
  O  O306  1  0.75690892  0.75682245  0.61917881  1
  O  O307  1  0.24547533  0.24622549  0.38167751  1
  O  O308  1  0.24180930  0.24595307  0.88542939  1
  O  O309  1  0.25966139  0.74563243  0.39223401  1
  O  O310  1  0.23331791  0.75125646  0.87748606  1
  O  O311  1  0.73356453  0.25404988  0.36607373  1
  O  O312  1  0.74564091  0.23905643  0.88550980  1
  O  O313  1  0.73964232  0.74885115  0.38017747  1
  O  O314  1  0.74080265  0.74604715  0.87599112  1
  O  O315  1  0.00624916  0.11382337  0.00775869  1
  O  O316  1  0.00500665  0.12605373  0.50594708  1
  O  O317  1  -0.00709804  0.63008125  0.01329030  1
  O  O318  1  -0.00722606  0.61650656  0.50910214  1
  O  O319  1  0.50473328  0.13451417  0.00489859  1
  O  O320  1  0.50420579  0.11902418  0.50558383  1
  O  O321  1  0.50010113  0.61431926  0.01026596  1
  O  O322  1  0.50700275  0.61825834  0.51047929  1
  O  O323  1  0.49314060  0.37700524  0.49490561  1
  O  O324  1  0.48983655  0.38377342  1.00859299  1
  O  O325  1  0.49992532  0.88367985  0.49496516  1
  O  O326  1  0.49118391  0.87740653  0.98533131  1
  O  O327  1  0.99293116  0.38030904  0.49543696  1
  O  O328  1  0.97725821  0.36667729  0.99237666  1
  O  O329  1  0.99691758  0.87132000  0.49258138  1
  O  O330  1  1.00053523  0.88514102  0.98791940  1
  O  O331  1  0.49755004  0.48985002  0.38204758  1
  O  O332  1  0.49561999  0.50422312  0.88645640  1
  O  O333  1  0.49515050  0.99302037  0.38268136  1
  O  O334  1  0.48936792  0.99392522  0.87353509  1
  O  O335  1  0.99983719  0.48637410  0.38446863  1
  O  O336  1  0.99859993  0.50743679  0.87911531  1
  O  O337  1  1.00553806  0.97934951  0.37806670  1
  O  O338  1  1.00119374  0.98998281  0.88717961  1
  O  O339  1  0.01560262  -0.00560933  0.10973053  1
  O  O340  1  0.00579926  0.00839707  0.62362690  1
  O  O341  1  -0.00840808  0.51716158  0.12009807  1
  O  O342  1  0.00054717  0.50926031  0.61829628  1
  O  O343  1  0.48851241  0.02247094  0.11660212  1
  O  O344  1  0.50276434  0.00998540  0.61558664  1
  O  O345  1  0.50827146  0.50430575  0.11902626  1
  O  O346  1  0.51075587  0.50707434  0.62027263  1
  O  O347  1  0.24600042  0.37303178  0.24295519  1
  O  O348  1  0.24712387  0.38105291  0.74330947  1
  O  O349  1  0.24929794  0.87575708  0.24317246  1
  O  O350  1  0.23955131  0.88284643  0.74232303  1
  O  O351  1  0.76097044  0.37483248  0.23402544  1
  O  O352  1  0.73945997  0.36805796  0.73527992  1
  O  O353  1  0.75406866  0.90171710  0.27740152  1
  O  O354  1  0.74386735  0.88354286  0.74739954  1
  O  O355  1  0.25205867  0.11983727  0.25489941  1
  O  O356  1  0.25692934  0.12295799  0.75376276  1
  O  O357  1  0.26774732  0.63472546  0.24847663  1
  O  O358  1  0.25150345  0.61115109  0.74803435  1
  O  O359  1  0.75049600  0.09326421  0.19547890  1
  O  O360  1  0.75327322  0.11990460  0.75826660  1
  O  O361  1  0.76248058  0.62388129  0.25293232  1
  O  O362  1  0.76138429  0.62737309  0.75691359  1
  O  O363  1  0.36789716  0.11968208  0.37005576  1
  O  O364  1  0.36993070  0.11844292  0.86696123  1
  O  O365  1  0.37907998  0.61454861  0.36990998  1
  O  O366  1  0.37540568  0.61042313  0.87332752  1
  O  O367  1  0.87775805  0.11490280  0.36627320  1
  O  O368  1  0.86423465  0.13267952  0.86740313  1
  O  O369  1  0.87813372  0.63196786  0.35855487  1
  O  O370  1  0.86494612  0.63270591  0.86073007  1
  O  O371  1  0.13987607  0.36726282  0.14026086  1
  O  O372  1  0.13327071  0.37486561  0.63654572  1
  O  O373  1  0.13634791  0.87803002  0.12610617  1
  O  O374  1  0.12899437  0.88097368  0.63270562  1
  O  O375  1  0.63628573  0.38353231  0.11957696  1
  O  O376  1  0.63125234  0.37960334  0.62826875  1
  O  O377  1  0.57982126  0.89071355  0.13854566  1
  O  O378  1  0.63093444  0.87647537  0.63335028  1
  O  O379  1  0.12010971  0.26290466  0.25799592  1
  O  O380  1  0.12420083  0.25683864  0.75823497  1
  O  O381  1  0.11721393  0.76042638  0.23901766  1
  O  O382  1  0.12610216  0.76537621  0.75620912  1
  O  O383  1  0.61351288  0.24092050  0.26227765  1
  O  O384  1  0.61733774  0.25659580  0.75023439  1
  O  O385  1  0.61624335  0.75385188  0.26019240  1
  O  O386  1  0.63202739  0.76495163  0.75909684  1
  O  O387  1  0.38501156  0.24348535  0.25277656  1
  O  O388  1  0.38096649  0.23930478  0.75672072  1
  O  O389  1  0.39039078  0.73756592  0.26029753  1
  O  O390  1  0.37199850  0.74877131  0.74525280  1
  O  O391  1  0.88838662  0.25768095  0.23794978  1
  O  O392  1  0.87360809  0.23935266  0.74211529  1
  O  O393  1  0.88339463  0.74221423  0.24305400  1
  O  O394  1  0.87063182  0.74652245  0.73593766  1
  O  O395  1  0.38202742  0.49029676  0.49298926  1
  O  O396  1  0.38470367  0.49277980  0.99372273  1
  O  O397  1  0.38605329  1.00145699  0.49380422  1
  O  O398  1  0.37368162  0.99417757  0.98617509  1
  O  O399  1  0.88477314  0.48649691  0.50862962  1
  O  O400  1  0.86925927  0.48475388  1.00387668  1
  O  O401  1  0.87948518  0.98319982  0.50759294  1
  O  O402  1  0.87956177  1.01017220  1.01511272  1
  O  O403  1  0.13568643  0.00608555  0.00920010  1
  O  O404  1  0.12395725  0.00789447  0.50721292  1
  O  O405  1  0.11349479  0.45639443  0.00947830  1
  O  O406  1  0.10958971  0.49994901  0.50589235  1
  O  O407  1  0.61696237  0.01656859  0.00050789  1
  O  O408  1  0.61541094  0.00698618  0.49472607  1
  O  O409  1  0.61709317  0.50228137  0.00760823  1
  O  O410  1  0.62022324  0.50382268  0.51158192  1
  O  O411  1  0.36741726  0.37328849  0.11809346  1
  O  O412  1  0.36793575  0.38166009  0.61388041  1
  O  O413  1  0.37215093  0.88196557  0.11166535  1
  O  O414  1  0.36181950  0.88130858  0.62510324  1
  O  O415  1  0.86884658  0.36803890  0.11256720  1
  O  O416  1  0.86822075  0.36690416  0.62116522  1
  O  O417  1  0.87775160  0.85855204  0.13218074  1
  O  O418  1  0.87260728  0.86800963  0.61990425  1
  O  O419  1  0.13247651  0.13564835  0.38419206  1
  O  O420  1  0.12946297  0.13217355  0.88104228  1
  O  O421  1  0.12444803  0.62220804  0.37991239  1
  O  O422  1  0.11993131  0.64634928  0.86403382  1
  O  O423  1  0.61976428  0.13760510  0.38294751  1
  O  O424  1  0.63279858  0.12779324  0.88295029  1
  O  O425  1  0.62116418  0.63649004  0.38301587  1
  O  O426  1  0.63964712  0.63303717  0.87262673  1
