# generated using pymatgen
data_V85Zn86O256
_symmetry_space_group_name_H-M   'P 1'
_cell_length_a   16.97523831
_cell_length_b   16.97925535
_cell_length_c   16.98455101
_cell_angle_alpha   90.03458753
_cell_angle_beta   89.90813618
_cell_angle_gamma   90.02816222
_symmetry_Int_Tables_number   1
_chemical_formula_structural   V85Zn86O256
_chemical_formula_sum   'V85 Zn86 O256'
_cell_volume   4895.39681019
_cell_formula_units_Z   1
loop_
 _symmetry_equiv_pos_site_id
 _symmetry_equiv_pos_as_xyz
  1  'x, y, z'
loop_
 _atom_site_type_symbol
 _atom_site_label
 _atom_site_symmetry_multiplicity
 _atom_site_fract_x
 _atom_site_fract_y
 _atom_site_fract_z
 _atom_site_occupancy
  V  V0  1  0.63437100  0.24267639  0.88740665  1
  V  V1  1  -0.00516480  0.74948114  0.24395061  1
  V  V2  1  0.37317531  0.62621965  0.74957163  1
  V  V3  1  0.86932698  0.87088933  0.49985114  1
  V  V4  1  0.86919727  0.12258495  0.75402533  1
  V  V5  1  0.25274173  0.37164616  0.62497702  1
  V  V6  1  0.50004887  0.75121439  0.75329796  1
  V  V7  1  -0.00262167  -0.00089751  0.50064732  1
  V  V8  1  0.37518746  0.49952953  0.87667798  1
  V  V9  1  0.62338081  0.00362931  0.62718920  1
  V  V10  1  0.62694920  0.37597044  0.24780520  1
  V  V11  1  0.25130628  -0.00242666  0.24822951  1
  V  V12  1  0.62676435  0.50673138  0.11854342  1
  V  V13  1  -0.00177812  0.12903855  0.63066556  1
  V  V14  1  0.74921211  0.24966903  0.50203610  1
  V  V15  1  0.37145792  0.74797603  0.14446058  1
  V  V16  1  0.00099547  0.13372654  0.12973485  1
  V  V17  1  0.74568209  0.37592423  0.62937191  1
  V  V18  1  0.24278848  0.87336714  0.62311062  1
  V  V19  1  0.12417337  0.74860638  0.37446520  1
  V  V20  1  0.24715935  0.50093469  0.75009053  1
  V  V21  1  0.37350121  0.74996960  0.62542978  1
  V  V22  1  0.50085104  0.37356753  0.37282590  1
  V  V23  1  0.12037297  0.25004530  0.36821540  1
  V  V24  1  0.74531359  0.62847164  0.89100543  1
  V  V25  1  0.62701497  0.25134628  0.37499967  1
  V  V26  1  0.12300195  0.12390364  0.50048409  1
  V  V27  1  0.87220704  0.50737444  0.37515908  1
  V  V28  1  0.37518512  0.50516507  0.36968351  1
  V  V29  1  0.88214640  0.13987697  0.24818243  1
  V  V30  1  0.24581552  0.00017959  0.74667441  1
  V  V31  1  0.63795161  0.63676763  0.49160952  1
  V  V32  1  0.62271797  0.87380682  0.75301098  1
  V  V33  1  0.37500887  0.37295007  0.50020908  1
  V  V34  1  0.87574906  0.74975094  0.62478227  1
  V  V35  1  0.37627304  -0.00053849  0.37377992  1
  V  V36  1  0.12283805  0.49957438  0.62431675  1
  V  V37  1  0.37319074  0.13429522  0.74061883  1
  V  V38  1  0.12732696  0.49737378  0.12527697  1
  V  V39  1  0.50115238  0.00061273  0.50024128  1
  V  V40  1  0.75219929  0.50454843  0.25407936  1
  V  V41  1  0.86948500  -0.00136253  0.87775479  1
  V  V42  1  0.87357381  0.00000642  0.37393104  1
  V  V43  1  0.75479764  0.86265802  0.12159638  1
  V  V44  1  0.74879010  0.87169450  0.62603807  1
  V  V45  1  -0.00812275  0.62595400  0.12557884  1
  V  V46  1  0.75130958  0.00203782  0.24486923  1
  V  V47  1  0.61832447  0.00414420  0.11463009  1
  V  V48  1  0.50018039  0.62576976  0.62492306  1
  V  V49  1  0.62749475  0.74785516  0.89020866  1
  V  V50  1  -0.00043225  0.37190984  0.36748429  1
  V  V51  1  0.12440321  0.63088809  -0.00277288  1
  V  V52  1  0.24513151  0.63090038  0.87569501  1
  V  V53  1  0.25242628  0.50349703  0.24963620  1
  V  V54  1  0.50183773  0.51139453  -0.00156331  1
  V  V55  1  0.12981421  0.12312300  0.00024193  1
  V  V56  1  0.00195419  -0.00541408  -0.00368781  1
  V  V57  1  0.87739898  0.86107344  0.00065511  1
  V  V58  1  0.38038441  -0.00727737  0.87172180  1
  V  V59  1  0.25578422  0.75364112  0.00474267  1
  V  V60  1  0.00212822  0.75349728  0.76455045  1
  V  V61  1  0.12671710  0.62408472  0.49799822  1
  V  V62  1  0.50099349  0.50009139  0.49965988  1
  V  V63  1  0.50800589  0.26003358  0.74454718  1
  V  V64  1  0.62411813  0.49926025  0.62901431  1
  V  V65  1  0.24869262  0.12589286  0.87127322  1
  V  V66  1  0.12960630  0.87372157  0.24504120  1
  V  V67  1  0.12138856  0.87242385  0.76824960  1
  V  V68  1  -0.00111936  0.49853684  0.49981306  1
  V  V69  1  0.11756456  0.25044583  0.87078650  1
  V  V70  1  0.25248282  0.25425263  0.00021608  1
  V  V71  1  0.38129238  0.13244200  0.24491734  1
  V  V72  1  0.11449478  0.37215628  0.75038614  1
  V  V73  1  0.24888648  0.12438912  0.37531733  1
  V  V74  1  0.37437631  0.87360253  0.50041862  1
  V  V75  1  0.25460955  0.24921091  0.50232207  1
  V  V76  1  0.76404440  0.36750418  0.11271918  1
  V  V77  1  0.87698168  0.25123991  0.63185898  1
  V  V78  1  0.49634538  0.62940290  0.14331690  1
  V  V79  1  -0.00289803  0.49282385  -0.00206211  1
  V  V80  1  0.50987704  0.86187140  0.37169322  1
  V  V81  1  0.13397793  -0.00395036  0.12479335  1
  V  V82  1  0.75099374  0.12663253  0.37465856  1
  V  V83  1  0.74672868  0.50331676  0.75102075  1
  V  V84  1  0.87247082  0.49351103  0.87834015  1
  Zn  Zn85  1  0.37595081  0.37976981  0.00204160  1
  Zn  Zn86  1  0.25001390  0.74791456  0.49913228  1
  Zn  Zn87  1  0.87500715  0.62821112  0.75188638  1
  Zn  Zn88  1  0.25747072  0.62836773  0.36953036  1
  Zn  Zn89  1  0.74293416  0.00337380  0.76123100  1
  Zn  Zn90  1  0.50951417  0.24459517  0.23863112  1
  Zn  Zn91  1  -0.01100862  0.36728846  0.87387915  1
  Zn  Zn92  1  -0.00126594  0.62628766  0.62808456  1
  Zn  Zn93  1  0.86904669  0.63209324  0.25173375  1
  Zn  Zn94  1  0.39319166  0.25141913  0.11126937  1
  Zn  Zn95  1  0.62420652  0.12553435  0.49876878  1
  Zn  Zn96  1  0.87403902  0.37463481  0.50045113  1
  Zn  Zn97  1  0.49207139  0.13577321  0.61932010  1
  Zn  Zn98  1  0.37501812  0.88174553  0.01920815  1
  Zn  Zn99  1  0.11945818  -0.00205265  0.62647251  1
  Zn  Zn100  1  0.55600236  0.16159065  0.05313141  1
  Zn  Zn101  1  0.12373909  0.36949409  0.24543201  1
  Zn  Zn102  1  0.50675632  0.87891232  0.89163173  1
  Zn  Zn103  1  0.62645690  0.87044632  0.25151362  1
  Zn  Zn104  1  0.25611693  0.37247187  0.12738287  1
  Zn  Zn105  1  -0.00305226  0.87402901  0.37230347  1
  Zn  Zn106  1  0.51227007  0.38069273  0.87215958  1
  Zn  Zn107  1  0.19209877  0.18225167  0.18462656  1
  Zn  Zn108  1  0.18351786  0.18866091  0.68656713  1
  Zn  Zn109  1  0.18509497  0.68421048  0.18598577  1
  Zn  Zn110  1  0.18230359  0.68924790  0.68779511  1
  Zn  Zn111  1  0.69372857  0.18727695  0.18402608  1
  Zn  Zn112  1  0.68677171  0.18797273  0.69269072  1
  Zn  Zn113  1  0.68615333  0.68495738  0.18609264  1
  Zn  Zn114  1  0.68629853  0.68642069  0.68880472  1
  Zn  Zn115  1  0.30914686  0.31630030  0.31276932  1
  Zn  Zn116  1  0.31039378  0.31324400  0.81119188  1
  Zn  Zn117  1  0.31269210  0.81449164  0.31664998  1
  Zn  Zn118  1  0.30638421  0.81138458  0.81007806  1
  Zn  Zn119  1  0.81176462  0.31930201  0.31241522  1
  Zn  Zn120  1  0.80454184  0.31153546  0.81234275  1
  Zn  Zn121  1  0.80983087  0.81482159  0.30935955  1
  Zn  Zn122  1  0.81229179  0.81353663  0.81565551  1
  Zn  Zn123  1  0.18779000  0.43580450  0.43433717  1
  Zn  Zn124  1  0.18522190  0.43791470  0.93618453  1
  Zn  Zn125  1  0.18512665  0.93599390  0.43513086  1
  Zn  Zn126  1  0.19798673  0.93949518  0.94108337  1
  Zn  Zn127  1  0.68768917  0.44044708  0.44104990  1
  Zn  Zn128  1  0.68570549  0.42948403  0.93581067  1
  Zn  Zn129  1  0.68889767  0.93782578  0.43897991  1
  Zn  Zn130  1  0.69076825  0.93444258  0.94195370  1
  Zn  Zn131  1  0.37051400  0.08290540  0.04033386  1
  Zn  Zn132  1  0.31088489  0.05942570  0.56161445  1
  Zn  Zn133  1  0.31456748  0.56766495  0.06494290  1
  Zn  Zn134  1  0.31205345  0.55970766  0.56043943  1
  Zn  Zn135  1  0.81976086  0.05714317  0.06891390  1
  Zn  Zn136  1  0.80982539  0.06170604  0.56529363  1
  Zn  Zn137  1  0.81210384  0.55514161  0.06431309  1
  Zn  Zn138  1  0.81263880  0.56533889  0.56175837  1
  Zn  Zn139  1  0.43801423  0.43660497  0.18437662  1
  Zn  Zn140  1  0.43474292  0.43875484  0.68705064  1
  Zn  Zn141  1  0.43939133  0.93426079  0.19286902  1
  Zn  Zn142  1  0.43525573  0.93807703  0.68905797  1
  Zn  Zn143  1  0.93786850  0.43803981  0.18752061  1
  Zn  Zn144  1  0.93203464  0.43989253  0.68884090  1
  Zn  Zn145  1  0.94082689  0.94003111  0.18388235  1
  Zn  Zn146  1  0.93803777  0.93641734  0.69153524  1
  Zn  Zn147  1  0.06128576  0.06175462  0.31256904  1
  Zn  Zn148  1  0.06018123  0.05930837  0.81296170  1
  Zn  Zn149  1  0.06192076  0.56144207  0.31052492  1
  Zn  Zn150  1  0.05928711  0.56394708  0.81221157  1
  Zn  Zn151  1  0.56538116  0.05840267  0.31091190  1
  Zn  Zn152  1  0.55749602  0.07090000  0.81208783  1
  Zn  Zn153  1  0.56647546  0.56166302  0.31544181  1
  Zn  Zn154  1  0.56337475  0.56759101  0.81338422  1
  Zn  Zn155  1  0.43907479  0.18715913  0.43154059  1
  Zn  Zn156  1  0.43834567  0.19155973  0.91919741  1
  Zn  Zn157  1  0.44226816  0.68537122  0.44079142  1
  Zn  Zn158  1  0.43932297  0.69224071  0.94234210  1
  Zn  Zn159  1  0.93459484  0.18807796  0.44012398  1
  Zn  Zn160  1  0.94109276  0.17681133  0.93922853  1
  Zn  Zn161  1  0.93927113  0.68825371  0.43743033  1
  Zn  Zn162  1  0.93366923  0.67856611  0.93822311  1
  Zn  Zn163  1  0.06609624  0.31234188  0.05812381  1
  Zn  Zn164  1  0.06397817  0.31141645  0.55877159  1
  Zn  Zn165  1  0.06267310  0.81160278  0.06186103  1
  Zn  Zn166  1  0.05759929  0.81066443  0.56413913  1
  Zn  Zn167  1  0.56546444  0.32772366  0.05657643  1
  Zn  Zn168  1  0.56332584  0.31441131  0.56160734  1
  Zn  Zn169  1  0.55658741  0.81841945  0.06949175  1
  Zn  Zn170  1  0.56174115  0.81235868  0.56212799  1
  O  O171  1  0.12119038  0.11459162  0.12081424  1
  O  O172  1  0.11422365  0.12357204  0.61929012  1
  O  O173  1  0.11699453  0.61415542  0.11659216  1
  O  O174  1  0.12292670  0.61886380  0.61481539  1
  O  O175  1  0.62928627  0.11098703  0.12667128  1
  O  O176  1  0.62402092  0.11130109  0.62545687  1
  O  O177  1  0.61281461  0.61673330  0.13063122  1
  O  O178  1  0.61998187  0.61675694  0.61928393  1
  O  O179  1  0.38057730  0.38235567  0.38076186  1
  O  O180  1  0.37133185  0.39399206  0.87206480  1
  O  O181  1  0.38515921  0.88023191  0.38017793  1
  O  O182  1  0.37371476  0.88912998  0.86109836  1
  O  O183  1  0.88391227  0.38363450  0.37941488  1
  O  O184  1  0.87180034  0.38823762  0.86863574  1
  O  O185  1  0.87306888  0.87855993  0.38470751  1
  O  O186  1  0.86933280  0.88157641  0.89270151  1
  O  O187  1  0.25499826  0.00396979  0.36983723  1
  O  O188  1  0.25262347  0.00683653  0.86284496  1
  O  O189  1  0.25806876  0.49938168  0.36820901  1
  O  O190  1  0.25517217  0.51062021  0.87072197  1
  O  O191  1  0.75432290  0.00500637  0.36656350  1
  O  O192  1  0.76391889  -0.00034031  0.87958297  1
  O  O193  1  0.76072191  0.49117544  0.36692407  1
  O  O194  1  0.75109231  0.50849745  0.87016161  1
  O  O195  1  0.24260332  0.50140980  0.13002160  1
  O  O196  1  0.24233324  0.49188270  0.62899001  1
  O  O197  1  0.23608557  1.00211298  0.13150878  1
  O  O198  1  0.24556492  0.98862053  0.62829193  1
  O  O199  1  0.74308448  0.49287574  0.13254846  1
  O  O200  1  0.74468026  0.49557403  0.63144288  1
  O  O201  1  0.74304895  0.99594149  0.13027314  1
  O  O202  1  0.74019082  0.98862625  0.62743679  1
  O  O203  1  0.00355557  0.37956097  0.26372680  1
  O  O204  1  0.01106514  0.38012087  0.75063417  1
  O  O205  1  0.00897153  0.86757859  0.24983734  1
  O  O206  1  0.00759969  0.86377854  0.74843749  1
  O  O207  1  0.51368407  0.37611206  0.25343678  1
  O  O208  1  0.49279497  0.36394528  0.74854873  1
  O  O209  1  0.50552189  0.87565744  0.26799204  1
  O  O210  1  0.51116762  0.87002734  0.74984786  1
  O  O211  1  0.48472697  0.12411463  0.25703454  1
  O  O212  1  0.48916400  0.13796787  0.74401398  1
  O  O213  1  0.50114845  0.62024135  0.24193557  1
  O  O214  1  0.49356957  0.63102579  0.74410284  1
  O  O215  1  0.99389587  0.11953082  0.24273352  1
  O  O216  1  0.99088356  0.11667358  0.73628399  1
  O  O217  1  1.00080644  0.63197220  0.24118834  1
  O  O218  1  0.99852163  0.63896032  0.74778021  1
  O  O219  1  0.36187771  0.25437409  -0.00863519  1
  O  O220  1  0.36182291  0.25443440  0.49162449  1
  O  O221  1  0.36550592  0.74546743  0.01177312  1
  O  O222  1  0.37285757  0.75500480  0.50755885  1
  O  O223  1  0.83948507  0.21001825  -0.00218545  1
  O  O224  1  0.86698041  0.25047702  0.51364511  1
  O  O225  1  0.88337715  0.76257787  -0.00086797  1
  O  O226  1  0.88314480  0.76134079  0.50904705  1
  O  O227  1  0.13409264  0.24380763  0.49136508  1
  O  O228  1  0.13372139  0.24405923  0.98943387  1
  O  O229  1  0.12067790  0.74163510  0.49156844  1
  O  O230  1  0.13506392  0.73683331  1.01036751  1
  O  O231  1  0.63112277  0.24831857  0.49372317  1
  O  O232  1  0.61672201  0.24560802  0.99189238  1
  O  O233  1  0.62343696  0.73587365  0.50812301  1
  O  O234  1  0.62223495  0.75868083  0.98806730  1
  O  O235  1  0.50819949  0.24923114  0.12303986  1
  O  O236  1  0.50476804  0.25142568  0.63642705  1
  O  O237  1  0.49242309  0.73586952  0.12896221  1
  O  O238  1  0.49256253  0.74623645  0.63276758  1
  O  O239  1  1.01069377  0.23316657  0.11753241  1
  O  O240  1  0.98997032  0.24035918  0.61659935  1
  O  O241  1  1.00828012  0.73832185  0.13413242  1
  O  O242  1  0.98829889  0.74954186  0.63295533  1
  O  O243  1  0.00917438  0.25955160  0.38694731  1
  O  O244  1  0.01199695  0.25103634  0.88646317  1
  O  O245  1  0.01071037  0.74985182  0.36546194  1
  O  O246  1  -0.00674176  0.74581311  0.86280911  1
  O  O247  1  0.50882142  0.25718859  0.37078771  1
  O  O248  1  0.50527079  0.25852507  0.85950648  1
  O  O249  1  0.49884216  0.76350431  0.38197107  1
  O  O250  1  0.50984260  0.74888561  0.86870272  1
  O  O251  1  0.24478318  0.13033572  0.49615957  1
  O  O252  1  0.24724287  0.13462447  0.98919802  1
  O  O253  1  0.23713634  0.62446080  0.49697506  1
  O  O254  1  0.24272162  0.62992396  0.99368858  1
  O  O255  1  0.74869944  0.13031317  0.49338924  1
  O  O256  1  0.78586924  0.15522578  1.00245900  1
  O  O257  1  0.73735283  0.62323600  0.50253012  1
  O  O258  1  0.75104041  0.62038697  0.98935956  1
  O  O259  1  0.24948325  0.36689543  -0.00050923  1
  O  O260  1  0.25236182  0.36820477  0.50612462  1
  O  O261  1  0.25421402  0.85811176  -0.00218200  1
  O  O262  1  0.25421015  0.87405520  0.50712947  1
  O  O263  1  0.75304362  0.38383797  0.01421810  1
  O  O264  1  0.75162812  0.37072526  0.51271049  1
  O  O265  1  0.76322293  0.87500239  0.01269913  1
  O  O266  1  0.76028495  0.87978401  0.51074525  1
  O  O267  1  0.13043604  0.49824383  0.23966048  1
  O  O268  1  0.12823004  0.49331607  0.74531954  1
  O  O269  1  0.12876745  0.99221490  0.24513721  1
  O  O270  1  0.12614974  0.98936303  0.74674883  1
  O  O271  1  0.63278027  0.49362682  0.24442466  1
  O  O272  1  0.63178079  0.50689182  0.73874776  1
  O  O273  1  0.64007569  0.99718247  0.24507189  1
  O  O274  1  0.62174920  0.99238537  0.74458602  1
  O  O275  1  0.37041824  0.00842021  0.25350845  1
  O  O276  1  0.36582371  0.00753602  0.75365602  1
  O  O277  1  0.36709110  0.49245008  0.25996494  1
  O  O278  1  0.36740191  0.50774275  0.75574748  1
  O  O279  1  0.86825737  0.00389749  0.25551589  1
  O  O280  1  0.87352256  0.00194189  0.76094497  1
  O  O281  1  0.86897972  0.50078082  0.25976422  1
  O  O282  1  0.86576088  0.50538738  0.75859773  1
  O  O283  1  0.11671826  0.36632253  0.37547439  1
  O  O284  1  0.12279753  0.36852520  0.86527388  1
  O  O285  1  0.12054874  0.86560544  0.36661724  1
  O  O286  1  0.13232380  0.87573338  0.86652848  1
  O  O287  1  0.62222790  0.37334102  0.36706843  1
  O  O288  1  0.62446611  0.35791534  0.87627488  1
  O  O289  1  0.61275581  0.87916203  0.37851967  1
  O  O290  1  0.62739676  0.86842775  0.86757904  1
  O  O291  1  0.36827763  0.13225771  0.14214730  1
  O  O292  1  0.37317963  0.11964434  0.63530330  1
  O  O293  1  0.38845633  0.63068780  0.12820379  1
  O  O294  1  0.37814861  0.62850497  0.62972895  1
  O  O295  1  0.88949631  0.11696797  0.13777713  1
  O  O296  1  0.88007374  0.13082462  0.63133215  1
  O  O297  1  0.88898358  0.61736144  0.12636541  1
  O  O298  1  0.87476340  0.63786663  0.62712827  1
  O  O299  1  0.24621258  0.25043414  0.10927626  1
  O  O300  1  0.24086214  0.26000390  0.61336559  1
  O  O301  1  0.26410900  0.73649489  0.11963519  1
  O  O302  1  0.25373226  0.75826932  0.62425554  1
  O  O303  1  0.74430990  0.26964758  0.12721141  1
  O  O304  1  0.75395213  0.25827685  0.62360306  1
  O  O305  1  0.74995463  0.76416634  0.13151358  1
  O  O306  1  0.76031090  0.76300774  0.63582890  1
  O  O307  1  0.24087550  0.24594522  0.38468299  1
  O  O308  1  0.23920062  0.24635637  0.87891042  1
  O  O309  1  0.23744127  0.74704853  0.37715415  1
  O  O310  1  0.25700505  0.73638739  0.88432687  1
  O  O311  1  0.74675028  0.24769539  0.38201564  1
  O  O312  1  0.73463356  0.24721138  0.86983735  1
  O  O313  1  0.71756438  0.74879437  0.33289853  1
  O  O314  1  0.74491480  0.73496609  0.87152033  1
  O  O315  1  0.00953709  0.11333502  0.00880566  1
  O  O316  1  0.00103875  0.11632353  0.50837678  1
  O  O317  1  0.00748900  0.61823548  0.00561642  1
  O  O318  1  0.00951133  0.61438199  0.50021827  1
  O  O319  1  0.46924033  0.11972353  -0.00164053  1
  O  O320  1  0.50050021  0.11449177  0.50113276  1
  O  O321  1  0.49840076  0.61534396  0.00777222  1
  O  O322  1  0.50658226  0.61743465  0.50914262  1
  O  O323  1  0.49506257  0.38020505  0.49407754  1
  O  O324  1  0.49499646  0.39648115  0.99509949  1
  O  O325  1  0.49508904  0.88290474  0.49401565  1
  O  O326  1  0.48601711  0.86958566  1.00031042  1
  O  O327  1  1.00025937  0.38647897  0.49316461  1
  O  O328  1  1.00667639  0.38948484  0.99526512  1
  O  O329  1  0.98914836  0.88443206  0.50088974  1
  O  O330  1  0.98771744  0.88288531  1.01114865  1
  O  O331  1  0.49340157  0.49244312  0.37903947  1
  O  O332  1  0.49241055  0.50510157  0.87948082  1
  O  O333  1  0.49667638  0.99437627  0.38563964  1
  O  O334  1  0.48284601  0.99850119  0.86553727  1
  O  O335  1  0.99464436  0.49272257  0.38170945  1
  O  O336  1  0.98944824  0.50159207  0.88123203  1
  O  O337  1  0.99335910  0.99885919  0.38607245  1
  O  O338  1  0.99423804  1.00108978  0.88980349  1
  O  O339  1  0.01241340  0.00587377  0.11634590  1
  O  O340  1  -0.00366484  0.00747372  0.61494340  1
  O  O341  1  0.00748661  0.50566669  0.11790242  1
  O  O342  1  0.00288344  0.50072259  0.61558190  1
  O  O343  1  0.51997662  -0.00925201  0.13441971  1
  O  O344  1  0.50717582  -0.00346701  0.61527352  1
  O  O345  1  0.50571583  0.51110049  0.12041383  1
  O  O346  1  0.50633152  0.50393746  0.62170955  1
  O  O347  1  0.24401893  0.38651527  0.24747525  1
  O  O348  1  0.24057468  0.38023830  0.74156990  1
  O  O349  1  0.23752113  0.88122637  0.25689794  1
  O  O350  1  0.23868125  0.87714062  0.74087855  1
  O  O351  1  0.74215425  0.38515278  0.24368740  1
  O  O352  1  0.75309125  0.38906561  0.73855257  1
  O  O353  1  0.75653116  0.88766348  0.23574949  1
  O  O354  1  0.73882445  0.87837408  0.74507073  1
  O  O355  1  0.25875164  0.11790509  0.25725290  1
  O  O356  1  0.25234121  0.12173086  0.75066362  1
  O  O357  1  0.24292648  0.60878001  0.25282719  1
  O  O358  1  0.25053932  0.62204715  0.75695358  1
  O  O359  1  0.76144661  0.11843406  0.25345586  1
  O  O360  1  0.76439740  0.11821854  0.74183638  1
  O  O361  1  0.75339043  0.60838400  0.24077053  1
  O  O362  1  0.75127861  0.61401078  0.75482705  1
  O  O363  1  0.36796735  0.11881043  0.36728964  1
  O  O364  1  0.36599580  0.11383826  0.85900443  1
  O  O365  1  0.37585890  0.60957712  0.38333271  1
  O  O366  1  0.36640686  0.61773468  0.86940419  1
  O  O367  1  0.87125111  0.11964669  0.36843412  1
  O  O368  1  0.88512378  0.11378448  0.86156374  1
  O  O369  1  0.88163922  0.61175493  0.37367124  1
  O  O370  1  0.85959072  0.61641540  0.87312678  1
  O  O371  1  0.12560888  0.38762598  0.12416813  1
  O  O372  1  0.13134590  0.37860283  0.63063689  1
  O  O373  1  0.12055948  0.88184780  0.13583825  1
  O  O374  1  0.13340708  0.87423697  0.62653861  1
  O  O375  1  0.63100288  0.38899195  0.13347521  1
  O  O376  1  0.63440653  0.38787728  0.62020071  1
  O  O377  1  0.63955894  0.88063099  0.12945029  1
  O  O378  1  0.63043384  0.88087993  0.63249208  1
  O  O379  1  0.13398203  0.24787060  0.26495656  1
  O  O380  1  0.12792437  0.25930706  0.75937321  1
  O  O381  1  0.11946248  0.75512839  0.25487988  1
  O  O382  1  0.11029099  0.75690236  0.74761477  1
  O  O383  1  0.62988651  0.26112488  0.25618998  1
  O  O384  1  0.61123008  0.24793451  0.75433623  1
  O  O385  1  0.65776915  0.75519653  0.27603654  1
  O  O386  1  0.62038935  0.75843312  0.75573396  1
  O  O387  1  0.37536809  0.23744751  0.25583679  1
  O  O388  1  0.38143119  0.24136663  0.75593693  1
  O  O389  1  0.36473566  0.74279058  0.24348368  1
  O  O390  1  0.37839915  0.74460871  0.74530255  1
  O  O391  1  0.87293813  0.23848132  0.25696913  1
  O  O392  1  0.86949085  0.24179598  0.73856031  1
  O  O393  1  0.89059630  0.74909555  0.25833099  1
  O  O394  1  0.88592697  0.75456362  0.74400663  1
  O  O395  1  0.38019143  0.49235158  0.49269771  1
  O  O396  1  0.38046206  0.50549529  0.99045793  1
  O  O397  1  0.38260436  0.99419969  0.49530850  1
  O  O398  1  0.35607392  0.99215603  0.97567582  1
  O  O399  1  0.88363945  0.50034184  0.49450945  1
  O  O400  1  0.88621408  0.50678311  0.98974467  1
  O  O401  1  0.87945299  0.99305476  0.49598464  1
  O  O402  1  0.88487221  0.99616316  0.99432467  1
  O  O403  1  0.12256868  0.00118174  0.00575909  1
  O  O404  1  0.11348157  0.00442815  0.49984992  1
  O  O405  1  0.11884779  0.50964365  0.00561145  1
  O  O406  1  0.11794024  0.50508439  0.50230963  1
  O  O407  1  0.62805622  -0.00535128  0.01516249  1
  O  O408  1  0.61730985  -0.00001928  0.50947441  1
  O  O409  1  0.61763564  0.49658190  0.01139329  1
  O  O410  1  0.62017254  0.50660046  0.51128488  1
  O  O411  1  0.37319786  0.36773173  0.12089050  1
  O  O412  1  0.35911911  0.38203634  0.61831173  1
  O  O413  1  0.38049853  0.85364724  0.13431281  1
  O  O414  1  0.36383047  0.87044390  0.62206342  1
  O  O415  1  0.86326318  0.37859065  0.12934480  1
  O  O416  1  0.86650429  0.36736821  0.62497549  1
  O  O417  1  0.86509880  0.88137672  0.11452927  1
  O  O418  1  0.86754415  0.87069761  0.62012274  1
  O  O419  1  0.12818195  0.13061760  0.38080365  1
  O  O420  1  0.12774678  0.13139717  0.87758438  1
  O  O421  1  0.12420079  0.63176601  0.38225682  1
  O  O422  1  0.13385261  0.61849113  0.88526189  1
  O  O423  1  0.63351080  0.13209418  0.37316289  1
  O  O424  1  0.61612326  0.14214422  0.87402744  1
  O  O425  1  0.62042597  0.61947383  0.39355452  1
  O  O426  1  0.63756766  0.63211879  0.87366318  1
