# generated using pymatgen
data_V85Zn86O256
_symmetry_space_group_name_H-M   'P 1'
_cell_length_a   16.95048790
_cell_length_b   16.93352175
_cell_length_c   16.93419524
_cell_angle_alpha   90.09274248
_cell_angle_beta   90.02025338
_cell_angle_gamma   90.03119586
_symmetry_Int_Tables_number   1
_chemical_formula_structural   V85Zn86O256
_chemical_formula_sum   'V85 Zn86 O256'
_cell_volume   4860.63931518
_cell_formula_units_Z   1
loop_
 _symmetry_equiv_pos_site_id
 _symmetry_equiv_pos_as_xyz
  1  'x, y, z'
loop_
 _atom_site_type_symbol
 _atom_site_label
 _atom_site_symmetry_multiplicity
 _atom_site_fract_x
 _atom_site_fract_y
 _atom_site_fract_z
 _atom_site_occupancy
  V  V0  1  0.49780459  0.61959758  0.61958748  1
  V  V1  1  0.13092288  0.37903482  0.25100428  1
  V  V2  1  0.37173230  0.62358782  0.24750534  1
  V  V3  1  0.86878865  0.50823321  0.86352747  1
  V  V4  1  0.36740896  0.75300380  0.62449656  1
  V  V5  1  0.37430656  0.62671644  0.74973906  1
  V  V6  1  0.74845867  0.12231624  0.87064130  1
  V  V7  1  0.63009328  0.88050560  0.24773344  1
  V  V8  1  0.49659147  0.00724447  0.00606470  1
  V  V9  1  0.86991137  0.50706823  0.36797805  1
  V  V10  1  0.75711602  0.37638996  0.63113316  1
  V  V11  1  0.24875586  0.49667166  0.74748176  1
  V  V12  1  0.37211487  0.12417212  0.72591498  1
  V  V13  1  -0.00443032  0.87333481  0.37355330  1
  V  V14  1  0.38284302  0.50462432  0.37982561  1
  V  V15  1  0.12562056  0.12552104  0.49615475  1
  V  V16  1  0.12842198  0.62679530  0.00063241  1
  V  V17  1  0.61973295  0.62137069  0.49079919  1
  V  V18  1  0.37826859  0.23524203  0.13422752  1
  V  V19  1  0.25240758  0.37892425  0.12783043  1
  V  V20  1  0.49284929  0.75552677  0.24616368  1
  V  V21  1  -0.00500508  0.13802842  0.62752343  1
  V  V22  1  -0.00347796  -0.00113153  0.50065054  1
  V  V23  1  0.12876802  0.62573933  0.50095481  1
  V  V24  1  0.37308497  0.00641087  0.87322979  1
  V  V25  1  0.87483703  0.14323922  0.74387433  1
  V  V26  1  0.62306238  0.12796364  0.00259398  1
  V  V27  1  0.12578434  0.00377900  0.11769929  1
  V  V28  1  -0.00272420  0.62566516  0.12616858  1
  V  V29  1  0.37439896  0.49821848  0.87600643  1
  V  V30  1  0.25072914  0.62269345  0.37178522  1
  V  V31  1  0.87508827  0.36586846  0.50161499  1
  V  V32  1  0.49409478  0.63129165  0.12165717  1
  V  V33  1  0.37573080  0.37321578  0.00114959  1
  V  V34  1  0.00010712  0.87441274  0.87548636  1
  V  V35  1  0.63029484  0.88641612  0.74627020  1
  V  V36  1  0.74770823  0.87839643  0.12166018  1
  V  V37  1  0.24978646  0.62637704  0.87884972  1
  V  V38  1  0.87509970  0.24993768  0.12473924  1
  V  V39  1  0.25372750  0.86577788  0.12262083  1
  V  V40  1  0.25653392  0.00719086  0.26170799  1
  V  V41  1  0.24911307  -0.00358447  0.74006805  1
  V  V42  1  0.12393494  0.24390330  0.87776886  1
  V  V43  1  0.63317823  0.75246395  0.87985650  1
  V  V44  1  0.87258034  -0.00076626  0.86515158  1
  V  V45  1  0.37082017  0.86596275  0.00361274  1
  V  V46  1  0.50458351  0.37981819  0.37724667  1
  V  V47  1  0.49822308  0.88008082  0.37591424  1
  V  V48  1  0.87488855  0.37598470  0.00016063  1
  V  V49  1  0.86950570  -0.00333048  0.36877722  1
  V  V50  1  0.00150038  0.37203896  0.37351466  1
  V  V51  1  0.62628244  0.38335570  0.74863306  1
  V  V52  1  0.74941879  0.12504156  0.38089193  1
  V  V53  1  0.24671036  0.23918954  0.00116266  1
  V  V54  1  0.12533609  0.87563325  0.24883754  1
  V  V55  1  0.52296966  -0.00344303  0.50625056  1
  V  V56  1  0.12694720  0.87378328  0.74772272  1
  V  V57  1  -0.00759519  0.74575359  0.24912231  1
  V  V58  1  0.12950388  0.74954766  0.88030499  1
  V  V59  1  0.87199105  0.87530895  -0.00029663  1
  V  V60  1  0.13474260  0.24636510  0.37678331  1
  V  V61  1  -0.00505538  0.62589417  0.62858713  1
  V  V62  1  -0.00604439  0.74558035  0.74809013  1
  V  V63  1  0.74965933  0.37726808  0.12789762  1
  V  V64  1  0.12473250  0.36703274  0.74870223  1
  V  V65  1  0.62321301  0.50106925  0.12500183  1
  V  V66  1  0.36903240  0.88115127  0.50303547  1
  V  V67  1  0.87041576  0.12113126  0.24771047  1
  V  V68  1  0.75336933  0.74144945  0.49744102  1
  V  V69  1  0.87419949  0.86891362  0.50790767  1
  V  V70  1  0.49971148  0.37368179  0.87412421  1
  V  V71  1  0.12417845  -0.00328157  0.62501278  1
  V  V72  1  0.37823027  0.37588526  0.50824253  1
  V  V73  1  0.12652290  0.49967724  0.12653861  1
  V  V74  1  0.86824561  0.74701665  0.12185335  1
  V  V75  1  0.52783886  0.12185836  0.62176372  1
  V  V76  1  0.63349380  0.63055468  -0.00183825  1
  V  V77  1  -0.00049117  0.37053635  0.87041759  1
  V  V78  1  0.00244175  0.49878372  0.50077845  1
  V  V79  1  0.00351243  0.12435224  0.11828908  1
  V  V80  1  0.49590092  0.24948723  0.74246033  1
  V  V81  1  0.62536109  0.00632616  0.12919370  1
  V  V82  1  0.00040678  0.50040055  -0.00027951  1
  V  V83  1  0.49870818  0.87491137  0.87431355  1
  V  V84  1  0.63009963  0.24996863  0.38105752  1
  Zn  Zn85  1  0.63230540  0.50849607  0.62794166  1
  Zn  Zn86  1  0.12551429  0.74898755  0.37453542  1
  Zn  Zn87  1  0.00398107  0.00411912  -0.00461122  1
  Zn  Zn88  1  0.27062474  0.23456390  0.49838022  1
  Zn  Zn89  1  0.37001118  0.12132622  0.30264870  1
  Zn  Zn90  1  0.49727865  0.75261394  0.74840493  1
  Zn  Zn91  1  0.00314226  0.24746888  0.24785001  1
  Zn  Zn92  1  0.75028976  0.51535994  0.24993925  1
  Zn  Zn93  1  0.25384375  0.36156317  0.62413227  1
  Zn  Zn94  1  0.74602107  0.87819825  0.62523692  1
  Zn  Zn95  1  0.63235631  0.74949381  0.36746114  1
  Zn  Zn96  1  0.49904033  0.50028582  -0.00080080  1
  Zn  Zn97  1  0.24196125  0.12286077  0.87227351  1
  Zn  Zn98  1  0.12683891  0.49684851  0.62570432  1
  Zn  Zn99  1  0.74847655  0.62242677  0.84746768  1
  Zn  Zn100  1  0.82671936  0.69145098  0.67914550  1
  Zn  Zn101  1  0.50509770  0.23784279  0.25047636  1
  Zn  Zn102  1  0.62505179  0.25153460  0.87472257  1
  Zn  Zn103  1  0.75056594  0.24333656  0.50820959  1
  Zn  Zn104  1  0.62343656  0.37475072  0.25031906  1
  Zn  Zn105  1  0.74755035  0.25123608  -0.00004224  1
  Zn  Zn106  1  0.24715353  0.75611286  0.50225734  1
  Zn  Zn107  1  0.19053086  0.18788996  0.19162586  1
  Zn  Zn108  1  0.19010946  0.18550429  0.67988953  1
  Zn  Zn109  1  0.18524024  0.68784711  0.18791452  1
  Zn  Zn110  1  0.18488298  0.68588086  0.68940112  1
  Zn  Zn111  1  0.68896779  0.18919008  0.19190666  1
  Zn  Zn112  1  0.69334424  0.19666416  0.69227546  1
  Zn  Zn113  1  0.68187599  0.69240992  0.18244177  1
  Zn  Zn114  1  0.66937114  0.70103424  0.68475404  1
  Zn  Zn115  1  0.31597287  0.31638128  0.31613595  1
  Zn  Zn116  1  0.31229813  0.30762264  0.81162261  1
  Zn  Zn117  1  0.31123713  0.81333908  0.31591821  1
  Zn  Zn118  1  0.31218421  0.81508511  0.81255699  1
  Zn  Zn119  1  0.81308663  0.31221335  0.31022189  1
  Zn  Zn120  1  0.81004642  0.31375404  0.81610411  1
  Zn  Zn121  1  0.81293746  0.68700486  0.31215046  1
  Zn  Zn122  1  0.80863854  0.81405232  0.81560102  1
  Zn  Zn123  1  0.19480784  0.43916617  0.43493736  1
  Zn  Zn124  1  0.18870934  0.43423921  0.93895392  1
  Zn  Zn125  1  0.18329462  0.93909421  0.43904620  1
  Zn  Zn126  1  0.19067029  0.93628475  0.93540905  1
  Zn  Zn127  1  0.68977936  0.43701984  0.44186982  1
  Zn  Zn128  1  0.68668667  0.44050901  0.93814010  1
  Zn  Zn129  1  0.69431620  0.93068268  0.43260099  1
  Zn  Zn130  1  0.68679770  0.94115678  0.93823344  1
  Zn  Zn131  1  0.30797275  0.05528541  0.06623437  1
  Zn  Zn132  1  0.33615488  0.07940301  0.50999658  1
  Zn  Zn133  1  0.31230453  0.56256708  0.06182293  1
  Zn  Zn134  1  0.31400190  0.56055317  0.56175516  1
  Zn  Zn135  1  0.81087869  0.06104276  0.05851467  1
  Zn  Zn136  1  0.80775784  0.05585796  0.56480516  1
  Zn  Zn137  1  0.81243723  0.56157580  0.05817196  1
  Zn  Zn138  1  0.81086353  0.55433938  0.55839360  1
  Zn  Zn139  1  0.43824616  0.43745804  0.19224404  1
  Zn  Zn140  1  0.44124146  0.44261639  0.68993210  1
  Zn  Zn141  1  0.43469098  0.94427074  0.18786441  1
  Zn  Zn142  1  0.44092878  0.93991176  0.68322025  1
  Zn  Zn143  1  0.94005100  0.43710581  0.18841469  1
  Zn  Zn144  1  0.93921662  0.43589068  0.68735527  1
  Zn  Zn145  1  0.93774720  0.93765975  0.18556091  1
  Zn  Zn146  1  0.94059324  0.93867878  0.68789722  1
  Zn  Zn147  1  0.06010219  0.06174483  0.30864090  1
  Zn  Zn148  1  0.05618557  0.06315472  0.80869352  1
  Zn  Zn149  1  0.06251513  0.56167156  0.31261123  1
  Zn  Zn150  1  0.06165692  0.55948132  0.81351229  1
  Zn  Zn151  1  0.55925812  0.06604655  0.31642607  1
  Zn  Zn152  1  0.55924894  0.06476844  0.81378237  1
  Zn  Zn153  1  0.56228091  0.56470994  0.30758613  1
  Zn  Zn154  1  0.55926083  0.56615175  0.81268566  1
  Zn  Zn155  1  0.45449951  0.19231752  0.44314127  1
  Zn  Zn156  1  0.43526223  0.19104849  0.93576968  1
  Zn  Zn157  1  0.43893598  0.69629341  0.43510222  1
  Zn  Zn158  1  0.43876986  0.68717712  0.93710655  1
  Zn  Zn159  1  0.94116392  0.18404541  0.43524385  1
  Zn  Zn160  1  0.93470889  0.18841258  0.93623536  1
  Zn  Zn161  1  0.94055410  0.68737257  0.44248763  1
  Zn  Zn162  1  0.93771635  0.68787129  0.93857503  1
  Zn  Zn163  1  0.06228880  0.31120306  0.06039222  1
  Zn  Zn164  1  0.06847827  0.31196366  0.56218428  1
  Zn  Zn165  1  0.06025640  0.81526926  0.06285965  1
  Zn  Zn166  1  0.06000083  0.81018757  0.56411614  1
  Zn  Zn167  1  0.55860763  0.31126539  0.06499176  1
  Zn  Zn168  1  0.56432462  0.31660755  0.56191000  1
  Zn  Zn169  1  0.55819189  0.81577882  0.06035559  1
  Zn  Zn170  1  0.56176648  0.80458855  0.56310208  1
  O  O171  1  0.11525893  0.11648141  0.13489656  1
  O  O172  1  0.11295827  0.11575218  0.61981417  1
  O  O173  1  0.12023680  0.61984412  0.12041669  1
  O  O174  1  0.11756637  0.61986719  0.61612257  1
  O  O175  1  0.63252741  0.11797355  0.11602122  1
  O  O176  1  0.62550504  0.12266361  0.63063558  1
  O  O177  1  0.61403626  0.62098661  0.11680647  1
  O  O178  1  0.61281651  0.62882065  0.61372130  1
  O  O179  1  0.38310267  0.38616260  0.38047465  1
  O  O180  1  0.37943730  0.37728687  0.87945662  1
  O  O181  1  0.38774854  0.86869173  0.39014998  1
  O  O182  1  0.37885044  0.88666577  0.88062445  1
  O  O183  1  0.88543990  0.38213506  0.37968454  1
  O  O184  1  0.88177643  0.38240412  0.87893284  1
  O  O185  1  0.88726401  0.88162257  0.38136967  1
  O  O186  1  0.87770110  0.88030257  0.88177297  1
  O  O187  1  0.24067080  -0.00374976  0.36039894  1
  O  O188  1  0.25704965  0.00316739  0.86478144  1
  O  O189  1  0.26166505  0.51519972  0.37509457  1
  O  O190  1  0.25455268  0.50341335  0.86712356  1
  O  O191  1  0.76245865  0.00728379  0.37830817  1
  O  O192  1  0.75889855  0.01263841  0.88105704  1
  O  O193  1  0.76775149  0.49451975  0.37505626  1
  O  O194  1  0.76450866  0.50164647  0.87692416  1
  O  O195  1  0.24355885  0.48631126  0.11935932  1
  O  O196  1  0.24975126  0.49883414  0.63884990  1
  O  O197  1  0.24089181  0.99269277  0.13775810  1
  O  O198  1  0.23432885  1.00418195  0.63457571  1
  O  O199  1  0.74136918  0.49403706  0.12341829  1
  O  O200  1  0.74813258  0.48314926  0.62159961  1
  O  O201  1  0.73732829  0.99203408  0.12056637  1
  O  O202  1  0.75289216  0.98846700  0.62885027  1
  O  O203  1  0.01060486  0.37303786  0.25838013  1
  O  O204  1  0.01126869  0.38008658  0.76021854  1
  O  O205  1  0.00512338  0.86798654  0.25465525  1
  O  O206  1  0.00684413  0.86656636  0.75570680  1
  O  O207  1  0.49967110  0.36924674  0.26411877  1
  O  O208  1  0.50458803  0.36708806  0.75135945  1
  O  O209  1  0.50154836  0.87363893  0.25568783  1
  O  O210  1  0.50204637  0.87879778  0.76337860  1
  O  O211  1  0.47944834  0.12906630  0.27286920  1
  O  O212  1  0.49522340  0.12715500  0.73504014  1
  O  O213  1  0.49346046  0.63590066  0.24205576  1
  O  O214  1  0.49109132  0.62827022  0.74131022  1
  O  O215  1  0.98884300  0.12556726  0.23937049  1
  O  O216  1  0.98312406  0.12185991  0.74232759  1
  O  O217  1  1.00912320  0.63730055  0.24289758  1
  O  O218  1  1.00731944  0.63149063  0.74036856  1
  O  O219  1  0.36754873  0.25387019  0.00990177  1
  O  O220  1  0.38348766  0.27323960  0.49936241  1
  O  O221  1  0.37893118  0.76692892  -0.00522431  1
  O  O222  1  0.37412547  0.76164804  0.50732796  1
  O  O223  1  0.87234843  0.25811053  0.00647095  1
  O  O224  1  0.87862907  0.26374130  0.49199717  1
  O  O225  1  0.88117678  0.76419016  0.00841181  1
  O  O226  1  0.86471579  0.75346837  0.49742219  1
  O  O227  1  0.11986123  0.23982710  0.48955324  1
  O  O228  1  0.13552544  0.25624585  0.99032752  1
  O  O229  1  0.12553377  0.73902689  0.49867799  1
  O  O230  1  0.11677448  0.74508287  0.98787440  1
  O  O231  1  0.62954040  0.25554568  0.48610068  1
  O  O232  1  0.62227009  0.23893127  0.99964601  1
  O  O233  1  0.63690973  0.74376187  0.49675260  1
  O  O234  1  0.61556968  0.74323202  0.99129429  1
  O  O235  1  0.48173043  0.25474421  0.13040950  1
  O  O236  1  0.50936102  0.23311436  0.62940315  1
  O  O237  1  0.50220455  0.74238865  0.13254838  1
  O  O238  1  0.48641646  0.73981219  0.62653892  1
  O  O239  1  0.99498776  0.24236376  0.12519471  1
  O  O240  1  1.00359656  0.23714481  0.62130553  1
  O  O241  1  0.99087655  0.74800416  0.13135286  1
  O  O242  1  1.00498020  0.73916473  0.63577212  1
  O  O243  1  0.00803990  0.26204840  0.37388463  1
  O  O244  1  0.00747481  0.26278506  0.88245255  1
  O  O245  1  -0.00100817  0.75645488  0.36658515  1
  O  O246  1  0.00860896  0.75290578  0.86713869  1
  O  O247  1  0.51409198  0.26204899  0.37645620  1
  O  O248  1  0.50045612  0.25484385  0.86198410  1
  O  O249  1  0.50564756  0.76270735  0.36472643  1
  O  O250  1  0.50351311  0.76425170  0.87621598  1
  O  O251  1  0.22671515  0.11689402  0.50519156  1
  O  O252  1  0.25349957  0.13532586  0.99741966  1
  O  O253  1  0.24072822  0.62371045  0.49365156  1
  O  O254  1  0.24167572  0.61938455  0.99185298  1
  O  O255  1  0.76553399  0.12876432  0.48570935  1
  O  O256  1  0.74001571  0.12685568  0.99150130  1
  O  O257  1  0.74036028  0.63503764  0.50896405  1
  O  O258  1  0.73413761  0.62422738  1.00047399  1
  O  O259  1  0.25534740  0.36476738  0.00886359  1
  O  O260  1  0.26887214  0.38126235  0.50034090  1
  O  O261  1  0.25946652  0.88389119  0.00977686  1
  O  O262  1  0.26531117  0.87876486  0.49480929  1
  O  O263  1  0.75478916  0.37545408  0.01074711  1
  O  O264  1  0.76055134  0.37336150  0.50930938  1
  O  O265  1  0.75890059  0.88054682  0.00888292  1
  O  O266  1  0.75966329  0.86208101  0.49789247  1
  O  O267  1  0.12054822  0.48767646  0.24413210  1
  O  O268  1  0.13460543  0.48893740  0.75344286  1
  O  O269  1  0.12860389  0.98977129  0.24290261  1
  O  O270  1  0.12924385  0.99602956  0.74438099  1
  O  O271  1  0.62630225  0.49955818  0.23564672  1
  O  O272  1  0.61859486  0.48754102  0.74955558  1
  O  O273  1  0.61198012  0.99425841  0.23750985  1
  O  O274  1  0.61920366  0.98540995  0.75928539  1
  O  O275  1  0.35976148  -0.00070745  0.25462009  1
  O  O276  1  0.36823332  0.00526026  0.75152079  1
  O  O277  1  0.38018260  0.51594310  0.26048090  1
  O  O278  1  0.36658581  0.50494559  0.75622549  1
  O  O279  1  0.88079870  0.00655961  0.25905528  1
  O  O280  1  0.87592006  -0.00119759  0.76278484  1
  O  O281  1  0.87871917  0.49787925  0.26492047  1
  O  O282  1  0.88070319  0.49790311  0.76483245  1
  O  O283  1  0.12089617  0.37112506  0.37032930  1
  O  O284  1  0.11848492  0.36772464  0.86935747  1
  O  O285  1  0.11233689  0.87452696  0.36773205  1
  O  O286  1  0.12089661  0.86782902  0.87032622  1
  O  O287  1  0.62171265  0.37274042  0.37403027  1
  O  O288  1  0.61972926  0.37460838  0.86759019  1
  O  O289  1  0.61766318  0.87577894  0.36338002  1
  O  O290  1  0.61692588  0.87183158  0.87468315  1
  O  O291  1  0.37108897  0.13671093  0.12124735  1
  O  O292  1  0.37648296  0.11674145  0.62600289  1
  O  O293  1  0.38393355  0.61884774  0.13286166  1
  O  O294  1  0.37898531  0.63165192  0.62811358  1
  O  O295  1  0.87894416  0.12705258  0.13029361  1
  O  O296  1  0.87778892  0.12327027  0.63776929  1
  O  O297  1  0.88135943  0.63790756  0.11296065  1
  O  O298  1  0.89070671  0.61999500  0.61450748  1
  O  O299  1  0.25657130  0.25694858  0.11921094  1
  O  O300  1  0.24747062  0.24981355  0.60991412  1
  O  O301  1  0.24477637  0.76630467  0.12946536  1
  O  O302  1  0.26149554  0.74440226  0.62325545  1
  O  O303  1  0.75579093  0.26050179  0.12424306  1
  O  O304  1  0.74577944  0.26797427  0.62100722  1
  O  O305  1  0.75939833  0.76376511  0.12736525  1
  O  O306  1  0.75026269  0.75877001  0.61291303  1
  O  O307  1  0.23808462  0.25750476  0.38237214  1
  O  O308  1  0.24315551  0.24704890  0.88370960  1
  O  O309  1  0.24749148  0.73860687  0.38058115  1
  O  O310  1  0.23691833  0.74390997  0.86712193  1
  O  O311  1  0.74683526  0.24402693  0.37657111  1
  O  O312  1  0.74700092  0.23843258  0.87901027  1
  O  O313  1  0.74974027  0.74476307  0.39076804  1
  O  O314  1  0.73648015  0.74675532  0.87564498  1
  O  O315  1  -0.00740532  0.12311117  0.01352957  1
  O  O316  1  0.00330049  0.11781181  0.50769563  1
  O  O317  1  0.00824584  0.62009582  0.00613345  1
  O  O318  1  0.00989353  0.61761795  0.50533422  1
  O  O319  1  0.50891546  0.11633916  -0.00976734  1
  O  O320  1  0.50926700  0.11133522  0.51319455  1
  O  O321  1  0.50407953  0.62367372  0.00858106  1
  O  O322  1  0.51186954  0.63547334  0.50435032  1
  O  O323  1  0.49351105  0.37854805  0.48895789  1
  O  O324  1  0.49336936  0.37492477  0.99258265  1
  O  O325  1  0.50037570  0.88116388  0.49619102  1
  O  O326  1  0.49163307  0.88726700  0.99325170  1
  O  O327  1  0.99764680  0.38152111  0.49398384  1
  O  O328  1  0.99599857  0.38102770  0.99176667  1
  O  O329  1  0.99537624  0.87570113  0.49092337  1
  O  O330  1  0.99042910  0.87861254  0.99373373  1
  O  O331  1  0.49372418  0.49407525  0.36920545  1
  O  O332  1  0.49141280  0.49234521  0.87454053  1
  O  O333  1  0.50783008  0.99086047  0.39356121  1
  O  O334  1  0.49125671  0.99379665  0.88303083  1
  O  O335  1  0.99552784  0.49149246  0.38232402  1
  O  O336  1  0.99217011  0.49142720  0.88036536  1
  O  O337  1  0.99310401  0.99192931  0.37894180  1
  O  O338  1  0.99197923  0.99337971  0.87582494  1
  O  O339  1  0.00864805  0.00625102  0.12367191  1
  O  O340  1  0.00634856  0.00860625  0.62048150  1
  O  O341  1  0.00546329  0.50526147  0.12009791  1
  O  O342  1  0.00230153  0.50493814  0.61487191  1
  O  O343  1  0.50749556  -0.00235841  0.11314411  1
  O  O344  1  0.50670489  0.01028136  0.61778320  1
  O  O345  1  0.50729049  0.50946769  0.12524571  1
  O  O346  1  0.50176476  0.51641582  0.62555598  1
  O  O347  1  0.24088428  0.37037989  0.24131179  1
  O  O348  1  0.24520893  0.38156549  0.74950673  1
  O  O349  1  0.24232262  0.88089034  0.24591648  1
  O  O350  1  0.24278059  0.88736432  0.75396656  1
  O  O351  1  0.75119268  0.38176440  0.23643183  1
  O  O352  1  0.74221253  0.36939217  0.73956551  1
  O  O353  1  0.73234394  0.87773276  0.23655532  1
  O  O354  1  0.73335452  0.87122652  0.75209086  1
  O  O355  1  0.25229467  0.11146475  0.25228106  1
  O  O356  1  0.25797648  0.11575997  0.74955384  1
  O  O357  1  0.26073873  0.63508840  0.25762397  1
  O  O358  1  0.25298107  0.61558609  0.75727379  1
  O  O359  1  0.76454168  0.12719159  0.25905166  1
  O  O360  1  0.76346364  0.13098955  0.75834800  1
  O  O361  1  0.74402503  0.62785296  0.24820654  1
  O  O362  1  0.74677142  0.63520701  0.73565289  1
  O  O363  1  0.36001560  0.13842421  0.41520942  1
  O  O364  1  0.37784572  0.11332801  0.86398367  1
  O  O365  1  0.37189098  0.62321811  0.36991254  1
  O  O366  1  0.36996743  0.62040099  0.87051850  1
  O  O367  1  0.87375807  0.11645318  0.36652693  1
  O  O368  1  0.87100786  0.11980690  0.86428658  1
  O  O369  1  0.88031345  0.61146187  0.37849714  1
  O  O370  1  0.87375480  0.61233758  0.87948446  1
  O  O371  1  0.13139699  0.37744600  0.13198402  1
  O  O372  1  0.12659378  0.37795014  0.63558050  1
  O  O373  1  0.12981732  0.88238653  0.13168257  1
  O  O374  1  0.11557924  0.88775048  0.63044337  1
  O  O375  1  0.63103961  0.38378435  0.12326654  1
  O  O376  1  0.63260276  0.38071749  0.63139159  1
  O  O377  1  0.62808589  0.88433042  0.12588524  1
  O  O378  1  0.61609997  0.86767815  0.64480061  1
  O  O379  1  0.12445895  0.25920375  0.25924341  1
  O  O380  1  0.13527918  0.26104725  0.75993154  1
  O  O381  1  0.11467580  0.76221868  0.24960675  1
  O  O382  1  0.11705259  0.75405662  0.75834920  1
  O  O383  1  0.62502917  0.25436811  0.26173666  1
  O  O384  1  0.61278935  0.26034278  0.75167113  1
  O  O385  1  0.61167341  0.76339148  0.24717424  1
  O  O386  1  0.61369771  0.76419076  0.76538912  1
  O  O387  1  0.36454626  0.24415186  0.23928362  1
  O  O388  1  0.38626507  0.23840912  0.75028429  1
  O  O389  1  0.38595183  0.74305151  0.25563166  1
  O  O390  1  0.37404199  0.74592238  0.74294530  1
  O  O391  1  0.87924715  0.24085558  0.24324528  1
  O  O392  1  0.87767121  0.24184651  0.75244277  1
  O  O393  1  0.88495264  0.74929087  0.23948328  1
  O  O394  1  0.88918925  0.75456855  0.75509574  1
  O  O395  1  0.37746191  0.49732353  0.48732913  1
  O  O396  1  0.37542635  0.49152216  0.99339904  1
  O  O397  1  0.39223488  0.98216333  0.50809973  1
  O  O398  1  0.38003029  0.99882503  0.99121661  1
  O  O399  1  0.88589932  0.49008327  0.48945401  1
  O  O400  1  0.88228047  0.49372969  0.99297440  1
  O  O401  1  0.88022644  0.98955267  0.48906046  1
  O  O402  1  0.87765813  0.99070456  0.99056171  1
  O  O403  1  0.12606415  -0.00367517  0.01276057  1
  O  O404  1  0.11528761  0.00392810  0.50611533  1
  O  O405  1  0.11976773  0.50413297  0.00548410  1
  O  O406  1  0.11728723  0.50595607  0.49796468  1
  O  O407  1  0.61601410  0.00841423  0.00700707  1
  O  O408  1  0.62114499  -0.01159929  0.50449063  1
  O  O409  1  0.62065421  0.50968072  0.00852720  1
  O  O410  1  0.63189919  0.51900031  0.50110477  1
  O  O411  1  0.36648130  0.37073194  0.12348515  1
  O  O412  1  0.37977888  0.38743769  0.61098283  1
  O  O413  1  0.36601715  0.88461867  0.11562370  1
  O  O414  1  0.38333805  0.86611461  0.61333646  1
  O  O415  1  0.86968682  0.37226747  0.12072325  1
  O  O416  1  0.86610361  0.37885978  0.61858894  1
  O  O417  1  0.86758667  0.87183216  0.11922763  1
  O  O418  1  0.88392692  0.87588813  0.60932232  1
  O  O419  1  0.11206907  0.13476372  0.38232701  1
  O  O420  1  0.12062049  0.13936559  0.86667449  1
  O  O421  1  0.13225772  0.62430872  0.38221940  1
  O  O422  1  0.12856650  0.63108766  0.88004171  1
  O  O423  1  0.64064415  0.13298036  0.36922717  1
  O  O424  1  0.63220404  0.12449691  0.88201879  1
  O  O425  1  0.61787952  0.62912392  0.38674022  1
  O  O426  1  0.62372585  0.63361275  0.88118353  1
