# generated using pymatgen
data_V85Zn86O256
_symmetry_space_group_name_H-M   'P 1'
_cell_length_a   16.98436157
_cell_length_b   16.98463327
_cell_length_c   16.97758020
_cell_angle_alpha   90.08924796
_cell_angle_beta   89.99172325
_cell_angle_gamma   90.08771985
_symmetry_Int_Tables_number   1
_chemical_formula_structural   V85Zn86O256
_chemical_formula_sum   'V85 Zn86 O256'
_cell_volume   4897.56435466
_cell_formula_units_Z   1
loop_
 _symmetry_equiv_pos_site_id
 _symmetry_equiv_pos_as_xyz
  1  'x, y, z'
loop_
 _atom_site_type_symbol
 _atom_site_label
 _atom_site_symmetry_multiplicity
 _atom_site_fract_x
 _atom_site_fract_y
 _atom_site_fract_z
 _atom_site_occupancy
  V  V0  1  0.12179415  0.37270091  0.75286392  1
  V  V1  1  0.87797560  0.25104303  0.11817444  1
  V  V2  1  0.12047522  0.25642458  0.37596781  1
  V  V3  1  0.00074643  0.75525380  0.75398247  1
  V  V4  1  0.75093667  0.88128942  0.63129285  1
  V  V5  1  0.74704178  0.24709719  0.49901076  1
  V  V6  1  0.75611115  0.62475295  0.37516815  1
  V  V7  1  0.62675340  0.87513901  0.24747562  1
  V  V8  1  0.50001390  -0.00405014  -0.00265001  1
  V  V9  1  0.37681383  0.25261085  0.12290543  1
  V  V10  1  0.50021768  0.50829686  -0.00620637  1
  V  V11  1  0.12434548  0.12345366  0.49838167  1
  V  V12  1  0.61693784  0.88080207  0.74860686  1
  V  V13  1  0.87896821  0.49711101  0.88012532  1
  V  V14  1  0.38120272  0.74530591  0.12320684  1
  V  V15  1  0.50938222  0.00604090  0.50082105  1
  V  V16  1  0.25697289  0.87737142  0.12414956  1
  V  V17  1  0.37577953  -0.00649672  0.88018190  1
  V  V18  1  0.24582032  0.38463748  0.13348042  1
  V  V19  1  0.87929505  0.37556863  0.49273162  1
  V  V20  1  0.37601661  0.38076908  -0.00334766  1
  V  V21  1  0.36410412  0.50613914  0.37246336  1
  V  V22  1  0.50647388  0.25510967  0.24907147  1
  V  V23  1  0.61515926  0.50239461  0.13208905  1
  V  V24  1  -0.00288110  0.26185121  0.25664637  1
  V  V25  1  0.63539772  0.00087217  0.12137412  1
  V  V26  1  0.62447222  0.24875507  0.37537687  1
  V  V27  1  0.50510872  0.36237947  0.87332694  1
  V  V28  1  0.87853536  0.12782250  0.24875443  1
  V  V29  1  0.13099319  0.62623963  0.49913253  1
  V  V30  1  0.87075280  0.85293256  -0.00526407  1
  V  V31  1  0.64523411  0.13314877  -0.01201480  1
  V  V32  1  0.86221822  -0.01871863  0.86886861  1
  V  V33  1  0.87573596  0.24772553  0.62449209  1
  V  V34  1  0.25616691  0.75519356  -0.00163494  1
  V  V35  1  0.74085147  0.36874897  0.11965747  1
  V  V36  1  0.25346518  0.00125400  0.24671751  1
  V  V37  1  0.12471291  0.24664664  0.88322981  1
  V  V38  1  0.86929488  0.75087680  0.62092385  1
  V  V39  1  0.12601602  0.75250599  0.87858523  1
  V  V40  1  0.50188931  0.74063860  0.24656435  1
  V  V41  1  0.74924614  0.37645478  0.62348748  1
  V  V42  1  0.50093071  0.50174626  0.50058158  1
  V  V43  1  0.74825733  0.49351771  0.25161725  1
  V  V44  1  0.00150817  0.12326486  0.63132290  1
  V  V45  1  0.37590430  0.37701319  0.50076066  1
  V  V46  1  0.37940970  0.62547797  0.75491678  1
  V  V47  1  -0.00058169  0.49695352  0.49472982  1
  V  V48  1  0.12775322  0.87845348  0.24889579  1
  V  V49  1  0.37727532  0.12544707  0.25073955  1
  V  V50  1  0.87424220  0.62537970  0.74881040  1
  V  V51  1  0.86855784  0.87056644  0.49862698  1
  V  V52  1  0.00006902  0.62656491  0.62523584  1
  V  V53  1  0.24997952  0.12682532  0.88496734  1
  V  V54  1  0.62959994  0.62837621  0.50109104  1
  V  V55  1  0.00013480  0.87654699  0.37529637  1
  V  V56  1  0.74386376  0.62814589  0.87932632  1
  V  V57  1  0.50230635  0.87616186  0.37479256  1
  V  V58  1  0.75062357  0.85651443  0.11500021  1
  V  V59  1  0.25271690  0.12612587  0.37391395  1
  V  V60  1  0.63126359  0.75062468  0.37844170  1
  V  V61  1  0.25197750  0.74994623  0.49869859  1
  V  V62  1  0.25108678  0.37446653  0.62741758  1
  V  V63  1  0.74729815  0.50004362  0.74907361  1
  V  V64  1  0.13053728  0.74803773  0.37655666  1
  V  V65  1  0.37866812  0.25017538  0.63331654  1
  V  V66  1  0.12416772  0.87662328  0.75378265  1
  V  V67  1  0.50752430  0.12971456  0.62892705  1
  V  V68  1  0.25192103  0.00369853  0.75178088  1
  V  V69  1  0.25118921  0.87679669  0.62450243  1
  V  V70  1  -0.00494344  0.74449461  0.23930110  1
  V  V71  1  0.62420218  0.50024335  0.62517279  1
  V  V72  1  0.86155679  0.11715297  0.75617886  1
  V  V73  1  0.12450095  0.50055821  0.62724607  1
  V  V74  1  0.61646515  0.74834447  0.87051956  1
  V  V75  1  0.50456533  0.37749380  0.37164044  1
  V  V76  1  0.37749654  0.87630251  0.49964251  1
  V  V77  1  0.38304037  0.74991007  0.62762197  1
  V  V78  1  0.50480754  0.12501913  0.12281785  1
  V  V79  1  0.25130333  0.24923195  0.50096970  1
  V  V80  1  0.74681070  0.12308890  0.37712621  1
  V  V81  1  0.12209862  0.62031102  0.00368715  1
  V  V82  1  0.25184866  0.50264508  0.75796146  1
  V  V83  1  0.87550048  -0.00215123  0.37265343  1
  V  V84  1  0.35603980  0.62549154  0.25409597  1
  Zn  Zn85  1  0.00119469  0.37361757  0.88164306  1
  Zn  Zn86  1  0.25354700  0.62182988  0.87893936  1
  Zn  Zn87  1  -0.03450916  0.57672508  0.08095309  1
  Zn  Zn88  1  0.37860883  0.00152524  0.37558809  1
  Zn  Zn89  1  -0.00378918  0.24772833  0.75353335  1
  Zn  Zn90  1  0.00235932  -0.00162348  0.50151834  1
  Zn  Zn91  1  -0.01008405  -0.01799237  -0.01380350  1
  Zn  Zn92  1  0.88047145  0.49857821  0.36869975  1
  Zn  Zn93  1  0.12611540  0.00091989  0.62380419  1
  Zn  Zn94  1  0.87417030  0.62667277  0.22819573  1
  Zn  Zn95  1  0.12329895  0.38539520  0.26185919  1
  Zn  Zn96  1  0.24409793  0.25064705  0.00420483  1
  Zn  Zn97  1  0.87742612  0.37880283  0.00362303  1
  Zn  Zn98  1  0.61877276  0.37009301  0.75383220  1
  Zn  Zn99  1  0.63454324  0.01192786  0.62818047  1
  Zn  Zn100  1  0.12206726  0.51250611  0.14559124  1
  Zn  Zn101  1  0.38177436  0.13023723  0.75564485  1
  Zn  Zn102  1  0.62025402  0.64157882  0.01242945  1
  Zn  Zn103  1  0.50358326  0.62940425  0.62893811  1
  Zn  Zn104  1  0.49159696  0.86898268  0.87260708  1
  Zn  Zn105  1  0.75307183  -0.00223318  0.24679168  1
  Zn  Zn106  1  0.06938288  0.07112200  0.07345569  1
  Zn  Zn107  1  0.18862705  0.19685567  0.18590920  1
  Zn  Zn108  1  0.18808854  0.18628070  0.69048563  1
  Zn  Zn109  1  0.18432407  0.69682594  0.18248947  1
  Zn  Zn110  1  0.19149223  0.68874785  0.68612287  1
  Zn  Zn111  1  0.68996554  0.18467547  0.18675059  1
  Zn  Zn112  1  0.69012999  0.18911274  0.68840704  1
  Zn  Zn113  1  0.68648218  0.68169031  0.19326468  1
  Zn  Zn114  1  0.68506510  0.69169440  0.69109069  1
  Zn  Zn115  1  0.31563074  0.31362963  0.31452755  1
  Zn  Zn116  1  0.31151665  0.31572450  0.81672251  1
  Zn  Zn117  1  0.31628920  0.81260289  0.31185703  1
  Zn  Zn118  1  0.31131591  0.81152746  0.80993581  1
  Zn  Zn119  1  0.80972258  0.31395026  0.31013048  1
  Zn  Zn120  1  0.80993140  0.31110319  0.80817143  1
  Zn  Zn121  1  0.81220014  0.81152704  0.30578824  1
  Zn  Zn122  1  0.80223118  0.80627027  0.80638546  1
  Zn  Zn123  1  0.18785739  0.43885761  0.44187528  1
  Zn  Zn124  1  0.18881651  0.43401534  0.94073833  1
  Zn  Zn125  1  0.19007672  0.93991678  0.43454685  1
  Zn  Zn126  1  0.18534564  0.93981834  0.94450307  1
  Zn  Zn127  1  0.68778162  0.43719277  0.43797327  1
  Zn  Zn128  1  0.68543977  0.43839458  0.94138286  1
  Zn  Zn129  1  0.68963710  0.93706253  0.44035616  1
  Zn  Zn130  1  0.68857858  0.94063747  0.93538826  1
  Zn  Zn131  1  0.31598983  0.06239681  0.06343297  1
  Zn  Zn132  1  0.31766756  0.06399601  0.56277442  1
  Zn  Zn133  1  0.31237386  0.56675658  0.06510219  1
  Zn  Zn134  1  0.31423524  0.56210654  0.56659636  1
  Zn  Zn135  1  0.84731910  0.07920205  0.03879660  1
  Zn  Zn136  1  0.81794252  0.06015554  0.56021000  1
  Zn  Zn137  1  0.79596771  0.56283704  0.06249544  1
  Zn  Zn138  1  0.81301110  0.56293350  0.56082279  1
  Zn  Zn139  1  0.43160862  0.44109593  0.19026692  1
  Zn  Zn140  1  0.43776757  0.44069369  0.69079883  1
  Zn  Zn141  1  0.44092643  0.93598497  0.18591210  1
  Zn  Zn142  1  0.43834441  0.94268081  0.68619054  1
  Zn  Zn143  1  0.93499449  0.43798527  0.18814617  1
  Zn  Zn144  1  0.93684051  0.43712187  0.68618181  1
  Zn  Zn145  1  0.93468180  0.93912133  0.18105991  1
  Zn  Zn146  1  0.93954923  0.94063387  0.68855145  1
  Zn  Zn147  1  0.08431869  0.08631111  0.26953763  1
  Zn  Zn148  1  0.07131306  0.04546004  0.85220779  1
  Zn  Zn149  1  0.06548732  0.56470193  0.31126473  1
  Zn  Zn150  1  0.06377990  0.56722566  0.81473031  1
  Zn  Zn151  1  0.56373156  0.06269371  0.30980113  1
  Zn  Zn152  1  0.56629689  0.06385237  0.81247512  1
  Zn  Zn153  1  0.56262973  0.56239142  0.31485570  1
  Zn  Zn154  1  0.55898703  0.55871348  0.81338476  1
  Zn  Zn155  1  0.43851200  0.18761594  0.44217716  1
  Zn  Zn156  1  0.44184878  0.18282660  0.93895779  1
  Zn  Zn157  1  0.44022471  0.68761622  0.43571984  1
  Zn  Zn158  1  0.43853018  0.68832398  0.93602947  1
  Zn  Zn159  1  0.93826349  0.18471136  0.43809886  1
  Zn  Zn160  1  0.94775830  0.17892936  0.93676477  1
  Zn  Zn161  1  0.94327540  0.68849252  0.43621818  1
  Zn  Zn162  1  0.93624134  0.68689649  0.93433995  1
  Zn  Zn163  1  0.05603632  0.32167215  0.06278112  1
  Zn  Zn164  1  0.06202469  0.31059743  0.56384572  1
  Zn  Zn165  1  0.04707427  0.85044087  0.08095300  1
  Zn  Zn166  1  0.06104646  0.81410181  0.56502949  1
  Zn  Zn167  1  0.56456639  0.31256690  0.05497033  1
  Zn  Zn168  1  0.56323589  0.31370102  0.56149263  1
  Zn  Zn169  1  0.56320162  0.81427154  0.05895799  1
  Zn  Zn170  1  0.56438195  0.81583103  0.56158763  1
  O  O171  1  0.11885779  0.11500250  0.16103967  1
  O  O172  1  0.11820420  0.12537045  0.61960781  1
  O  O173  1  0.13100753  0.62689482  0.10878119  1
  O  O174  1  0.11985108  0.62209047  0.61872023  1
  O  O175  1  0.62344476  0.11598240  0.12086326  1
  O  O176  1  0.61275693  0.13047616  0.62778913  1
  O  O177  1  0.63095493  0.60742289  0.12321998  1
  O  O178  1  0.62507563  0.62295116  0.61736505  1
  O  O179  1  0.38539819  0.38253714  0.38048329  1
  O  O180  1  0.38315343  0.37256361  0.88927987  1
  O  O181  1  0.38493202  0.87515552  0.38135815  1
  O  O182  1  0.37411802  0.88801967  0.86971566  1
  O  O183  1  0.86862634  0.37717623  0.38942678  1
  O  O184  1  0.86922454  0.38897482  0.87204361  1
  O  O185  1  0.87937835  0.87488739  0.38016131  1
  O  O186  1  0.86106220  0.87405089  0.87876233  1
  O  O187  1  0.25636118  0.00754374  0.36648310  1
  O  O188  1  0.25743984  0.00687185  0.87173960  1
  O  O189  1  0.26573111  0.49430781  0.38037769  1
  O  O190  1  0.24694506  0.50000861  0.86163273  1
  O  O191  1  0.75489621  0.00756733  0.37390855  1
  O  O192  1  0.76260350  -0.00134570  0.86970867  1
  O  O193  1  0.74741261  0.50701141  0.36733098  1
  O  O194  1  0.75336158  0.50510686  0.86434208  1
  O  O195  1  0.24680739  0.48704091  0.12063163  1
  O  O196  1  0.24306194  0.49384123  0.63276942  1
  O  O197  1  0.26026754  0.98799563  0.13070298  1
  O  O198  1  0.25040932  0.99709665  0.63607300  1
  O  O199  1  0.73805449  0.48864136  0.13303831  1
  O  O200  1  0.74456743  0.49775306  0.63052519  1
  O  O201  1  0.73884516  0.99148180  0.12427360  1
  O  O202  1  0.74791575  0.98691409  0.61422387  1
  O  O203  1  -0.00321571  0.36438553  0.25626081  1
  O  O204  1  0.01112324  0.37460592  0.75317561  1
  O  O205  1  0.00788541  0.86554567  0.25754703  1
  O  O206  1  0.01158363  0.86547828  0.74246870  1
  O  O207  1  0.49230027  0.36583464  0.26060929  1
  O  O208  1  0.49871599  0.38318250  0.76849116  1
  O  O209  1  0.50759094  0.86654599  0.25530835  1
  O  O210  1  0.51232739  0.87822684  0.74956422  1
  O  O211  1  0.49734575  0.13506129  0.24385288  1
  O  O212  1  0.49860235  0.11948388  0.73401000  1
  O  O213  1  0.50097255  0.63903990  0.25288494  1
  O  O214  1  0.48333273  0.61668861  0.74753359  1
  O  O215  1  0.98297845  0.13825396  0.25581525  1
  O  O216  1  0.99011563  0.12524127  0.73645819  1
  O  O217  1  1.00036181  0.64060723  0.25336851  1
  O  O218  1  0.99556707  0.63411769  0.74364058  1
  O  O219  1  0.38096768  0.25917391  0.01286530  1
  O  O220  1  0.37058264  0.25740955  0.50917765  1
  O  O221  1  0.36737613  0.74342569  0.00815247  1
  O  O222  1  0.37146080  0.75496569  0.50566522  1
  O  O223  1  0.87567611  0.24623580  0.01765780  1
  O  O224  1  0.86740789  0.25689361  0.50272061  1
  O  O225  1  0.85910936  0.75427022  -0.01502121  1
  O  O226  1  0.88464194  0.75810097  0.51138679  1
  O  O227  1  0.13074859  0.24381016  0.49520643  1
  O  O228  1  0.12441396  0.25450308  0.98774220  1
  O  O229  1  0.12953838  0.74502464  0.49668087  1
  O  O230  1  0.13741129  0.74339283  0.98974376  1
  O  O231  1  0.63751968  0.25465931  0.49023511  1
  O  O232  1  0.62528637  0.23129431  1.00697150  1
  O  O233  1  0.62032413  0.74252846  0.48830527  1
  O  O234  1  0.62010712  0.75254501  0.97997924  1
  O  O235  1  0.49572272  0.24977021  0.13250636  1
  O  O236  1  0.49344742  0.23934344  0.61770377  1
  O  O237  1  0.49251098  0.75826767  0.13296149  1
  O  O238  1  0.48684911  0.75039779  0.61954090  1
  O  O239  1  0.98253372  0.25788076  0.13714548  1
  O  O240  1  0.99358485  0.24159802  0.62686742  1
  O  O241  1  1.00881199  0.75736637  0.14153380  1
  O  O242  1  0.99230563  0.74651045  0.63445953  1
  O  O243  1  0.01012379  0.24519413  0.37087373  1
  O  O244  1  0.01047232  0.24797112  0.87057256  1
  O  O245  1  0.01033565  0.75961107  0.37085380  1
  O  O246  1  0.00917518  0.74417115  0.86025643  1
  O  O247  1  0.50587859  0.25601302  0.37042747  1
  O  O248  1  0.49737708  0.26295385  0.87835166  1
  O  O249  1  0.51137464  0.75570595  0.36707618  1
  O  O250  1  0.51006286  0.75207868  0.87180681  1
  O  O251  1  0.24606039  0.13005811  0.49509099  1
  O  O252  1  0.25454587  0.12783584  0.98953048  1
  O  O253  1  0.23703040  0.63055739  0.50868959  1
  O  O254  1  0.24480411  0.63656663  0.99780039  1
  O  O255  1  0.75927190  0.13589756  0.48872061  1
  O  O256  1  0.74378207  0.11986893  1.00309162  1
  O  O257  1  0.73729470  0.61901551  0.49170786  1
  O  O258  1  0.73202458  0.61153833  0.98184178  1
  O  O259  1  0.26094915  0.37318635  0.00935086  1
  O  O260  1  0.25633296  0.37002761  0.50910151  1
  O  O261  1  0.24436376  0.86618352  0.01042444  1
  O  O262  1  0.25675450  0.87151203  0.50489941  1
  O  O263  1  0.75520199  0.38163287  0.01617651  1
  O  O264  1  0.75739558  0.36757528  0.50407215  1
  O  O265  1  0.74847742  0.87119614  0.01022524  1
  O  O266  1  0.76309891  0.87211306  0.50592886  1
  O  O267  1  0.13208868  0.49654231  0.25738655  1
  O  O268  1  0.13018191  0.49366241  0.74693968  1
  O  O269  1  0.13475883  0.98283568  0.25964826  1
  O  O270  1  0.13590673  0.99082944  0.75900019  1
  O  O271  1  0.62985231  0.50257308  0.23966299  1
  O  O272  1  0.63342529  0.50029524  0.74441294  1
  O  O273  1  0.62642878  0.99359917  0.23953564  1
  O  O274  1  0.62493399  0.98557073  0.74686193  1
  O  O275  1  0.37373086  0.00810038  0.25076985  1
  O  O276  1  0.36457218  0.00111169  0.75833400  1
  O  O277  1  0.38091934  0.51470211  0.25939228  1
  O  O278  1  0.36298740  0.51493605  0.74032481  1
  O  O279  1  0.87471861  0.00829087  0.25212409  1
  O  O280  1  0.87348804  0.00684038  0.75559547  1
  O  O281  1  0.86401873  0.50497244  0.25271241  1
  O  O282  1  0.86520698  0.50604535  0.75318089  1
  O  O283  1  0.13241341  0.36003975  0.38075600  1
  O  O284  1  0.12679873  0.36671567  0.86742860  1
  O  O285  1  0.11904593  0.86692860  0.37083770  1
  O  O286  1  0.13200481  0.86392080  0.86422296  1
  O  O287  1  0.61379834  0.36544957  0.37921919  1
  O  O288  1  0.60876551  0.37994042  0.87881974  1
  O  O289  1  0.62457887  0.86754740  0.37000612  1
  O  O290  1  0.62799287  0.86685045  0.86198446  1
  O  O291  1  0.38287133  0.13543925  0.12893892  1
  O  O292  1  0.38413334  0.13525344  0.62792058  1
  O  O293  1  0.37159639  0.63786634  0.13681368  1
  O  O294  1  0.37719126  0.63429934  0.63166527  1
  O  O295  1  0.85803374  0.14365525  0.13942887  1
  O  O296  1  0.88244627  0.12775123  0.62884185  1
  O  O297  1  0.87162776  0.62408408  0.11507095  1
  O  O298  1  0.87843737  0.63323058  0.62778074  1
  O  O299  1  0.26323114  0.25755795  0.12280694  1
  O  O300  1  0.25797346  0.25427338  0.62072755  1
  O  O301  1  0.26150501  0.75713087  0.11715949  1
  O  O302  1  0.25925092  0.75724914  0.61793658  1
  O  O303  1  0.75526343  0.26499731  0.13577428  1
  O  O304  1  0.75432332  0.25461035  0.61446255  1
  O  O305  1  0.73973576  0.75818194  0.12571420  1
  O  O306  1  0.76431545  0.75758860  0.63072743  1
  O  O307  1  0.24617823  0.24588724  0.38111054  1
  O  O308  1  0.24525072  0.24309750  0.87855265  1
  O  O309  1  0.23813596  0.75869912  0.38209270  1
  O  O310  1  0.24475258  0.75087751  0.88265007  1
  O  O311  1  0.74299957  0.24490574  0.37944015  1
  O  O312  1  0.71178762  0.25522256  0.83700167  1
  O  O313  1  0.73855597  0.74084314  0.36474369  1
  O  O314  1  0.73622211  0.73578216  0.86688016  1
  O  O315  1  -0.03361834  0.10259479  0.01643664  1
  O  O316  1  0.00535495  0.12300272  0.50998552  1
  O  O317  1  0.01698853  0.63345846  -0.00493562  1
  O  O318  1  0.00959157  0.61929434  0.50706489  1
  O  O319  1  0.50791326  0.11465996  0.00663774  1
  O  O320  1  0.49656321  0.11656556  0.51149288  1
  O  O321  1  0.50159469  0.61214811  -0.00242793  1
  O  O322  1  0.51413106  0.61977013  0.49872578  1
  O  O323  1  0.49545232  0.38033897  0.49137831  1
  O  O324  1  0.49407435  0.38244814  0.99262552  1
  O  O325  1  0.49673373  0.88333314  0.49497962  1
  O  O326  1  0.50800706  0.89179580  0.99347358  1
  O  O327  1  0.99140873  0.38511045  0.50858620  1
  O  O328  1  0.98957761  0.37549193  0.99295930  1
  O  O329  1  0.99186862  0.87407087  0.49217950  1
  O  O330  1  0.97446786  0.85719459  0.99215782  1
  O  O331  1  0.49690681  0.49204321  0.38003471  1
  O  O332  1  0.50100364  0.49420665  0.89154022  1
  O  O333  1  0.50223954  0.99586419  0.38246228  1
  O  O334  1  0.49053594  1.00127697  0.87996851  1
  O  O335  1  0.99834541  0.50805495  0.39177790  1
  O  O336  1  0.98063706  0.50340897  0.86526136  1
  O  O337  1  0.99374459  0.98275457  0.37282498  1
  O  O338  1  0.97171984  0.99737539  0.86966874  1
  O  O339  1  0.01453297  -0.03598527  0.10680693  1
  O  O340  1  0.00526785  0.00831727  0.62269748  1
  O  O341  1  0.01221550  0.48756495  0.12443451  1
  O  O342  1  0.00502980  0.50671040  0.61827902  1
  O  O343  1  0.50982961  0.00312413  0.11756037  1
  O  O344  1  0.50173611  0.01341448  0.61801259  1
  O  O345  1  0.51227590  0.49100881  0.12233681  1
  O  O346  1  0.50679006  0.50177953  0.61786938  1
  O  O347  1  0.25485240  0.37067398  0.23549234  1
  O  O348  1  0.24296268  0.38308037  0.74690359  1
  O  O349  1  0.24690391  0.87922723  0.24579132  1
  O  O350  1  0.24331896  0.88280281  0.74479624  1
  O  O351  1  0.75074767  0.38653728  0.24208946  1
  O  O352  1  0.75096613  0.38970118  0.74116252  1
  O  O353  1  0.74610320  0.87598161  0.23499935  1
  O  O354  1  0.74079838  0.87387450  0.73759259  1
  O  O355  1  0.25922419  0.12205926  0.25465550  1
  O  O356  1  0.25319507  0.11545328  0.75859374  1
  O  O357  1  0.25745667  0.63580429  0.25082515  1
  O  O358  1  0.25648477  0.61771387  0.75008521  1
  O  O359  1  0.75830691  0.12481500  0.26289848  1
  O  O360  1  0.76398421  0.11842779  0.73670125  1
  O  O361  1  0.75251180  0.61448250  0.25935818  1
  O  O362  1  0.75350528  0.61658241  0.75443256  1
  O  O363  1  0.37097256  0.12770628  0.36882142  1
  O  O364  1  0.36806032  0.11801045  0.87273687  1
  O  O365  1  0.37954060  0.61782248  0.36756608  1
  O  O366  1  0.37189069  0.63200173  0.85866373  1
  O  O367  1  0.86667715  0.11940300  0.36894123  1
  O  O368  1  0.87095325  0.12584678  0.85761973  1
  O  O369  1  0.86155097  0.62526201  0.38250984  1
  O  O370  1  0.86420609  0.61650528  0.86849776  1
  O  O371  1  0.14318590  0.36716139  0.12555297  1
  O  O372  1  0.13012701  0.37885959  0.63410601  1
  O  O373  1  0.14517382  0.86136089  0.14045518  1
  O  O374  1  0.13220822  0.87630598  0.63569656  1
  O  O375  1  0.63476588  0.38211072  0.12156146  1
  O  O376  1  0.63029313  0.37988959  0.62954546  1
  O  O377  1  0.63368630  0.88017696  0.12648064  1
  O  O378  1  0.63295064  0.87041905  0.63563058  1
  O  O379  1  0.11521816  0.25756523  0.25991058  1
  O  O380  1  0.12691632  0.26153941  0.75696960  1
  O  O381  1  0.11948458  0.75743396  0.26037573  1
  O  O382  1  0.12142160  0.75621021  0.75540232  1
  O  O383  1  0.61422186  0.24674843  0.25866309  1
  O  O384  1  0.65673919  0.25839511  0.77488958  1
  O  O385  1  0.61871807  0.75424646  0.25680214  1
  O  O386  1  0.62485210  0.76212081  0.75915434  1
  O  O387  1  0.38588247  0.24645193  0.24184933  1
  O  O388  1  0.36986509  0.25301392  0.73692140  1
  O  O389  1  0.38342060  0.74220378  0.24646495  1
  O  O390  1  0.36626175  0.73703456  0.73928409  1
  O  O391  1  0.87965204  0.24597287  0.25015016  1
  O  O392  1  0.87405087  0.23825144  0.74237119  1
  O  O393  1  0.89093608  0.74810540  0.25322520  1
  O  O394  1  0.88287485  0.74629688  0.74269377  1
  O  O395  1  0.38116094  0.49743430  0.49417444  1
  O  O396  1  0.39102673  0.49316593  1.01403862  1
  O  O397  1  0.38651174  0.99360467  0.49914528  1
  O  O398  1  0.38618393  1.00551140  0.99097549  1
  O  O399  1  0.88295659  0.49238916  0.50135772  1
  O  O400  1  0.86812457  0.50443574  0.98210850  1
  O  O401  1  0.87953677  0.98764542  0.49095521  1
  O  O402  1  0.86631906  0.97815407  0.98252507  1
  O  O403  1  0.10512441  0.01316739  -0.02948309  1
  O  O404  1  0.12440379  0.00826211  0.50031336  1
  O  O405  1  0.13294530  0.52047723  -0.00804753  1
  O  O406  1  0.11921749  0.50694359  0.50613846  1
  O  O407  1  0.62048916  0.00853812  0.00568001  1
  O  O408  1  0.61367073  -0.00685637  0.50664896  1
  O  O409  1  0.61075173  0.49824135  0.01273960  1
  O  O410  1  0.62112242  0.50714224  0.50531353  1
  O  O411  1  0.36859947  0.37028898  0.11961887  1
  O  O412  1  0.37261463  0.36985155  0.62101069  1
  O  O413  1  0.36639534  0.86076114  0.13421870  1
  O  O414  1  0.37115064  0.86914691  0.62116867  1
  O  O415  1  0.86191191  0.36440363  0.12739640  1
  O  O416  1  0.86882642  0.36892248  0.61676190  1
  O  O417  1  0.85881501  0.87148816  0.10972291  1
  O  O418  1  0.87058462  0.87030224  0.61927489  1
  O  O419  1  0.13363626  0.13646678  0.37494021  1
  O  O420  1  0.13812259  0.13808935  0.86459649  1
  O  O421  1  0.11870523  0.63782180  0.38904774  1
  O  O422  1  0.13026457  0.63693555  0.88058687  1
  O  O423  1  0.63496903  0.13533968  0.37049709  1
  O  O424  1  0.62665119  0.11830200  0.88970279  1
  O  O425  1  0.63353231  0.63145004  0.38115788  1
  O  O426  1  0.62588729  0.63737452  0.86666341  1
