# generated using pymatgen
data_V85Zn86O256
_symmetry_space_group_name_H-M   'P 1'
_cell_length_a   16.98624757
_cell_length_b   16.99402649
_cell_length_c   16.98126054
_cell_angle_alpha   89.89774613
_cell_angle_beta   89.92371577
_cell_angle_gamma   89.92941363
_symmetry_Int_Tables_number   1
_chemical_formula_structural   V85Zn86O256
_chemical_formula_sum   'V85 Zn86 O256'
_cell_volume   4901.87532000
_cell_formula_units_Z   1
loop_
 _symmetry_equiv_pos_site_id
 _symmetry_equiv_pos_as_xyz
  1  'x, y, z'
loop_
 _atom_site_type_symbol
 _atom_site_label
 _atom_site_symmetry_multiplicity
 _atom_site_fract_x
 _atom_site_fract_y
 _atom_site_fract_z
 _atom_site_occupancy
  V  V0  1  0.49673537  0.00054533  0.50139028  1
  V  V1  1  0.12041657  0.87066899  0.75572023  1
  V  V2  1  0.37775985  0.62719797  0.24735291  1
  V  V3  1  0.49845073  0.87681009  0.37496819  1
  V  V4  1  0.75155066  0.75114925  0.50033550  1
  V  V5  1  0.61728169  0.87382076  0.75667240  1
  V  V6  1  0.25105394  0.00202593  0.25412318  1
  V  V7  1  0.12666926  0.74954799  0.37846378  1
  V  V8  1  0.24686268  -0.00217837  0.75033599  1
  V  V9  1  0.38068506  -0.00889571  0.87563624  1
  V  V10  1  0.74831610  0.87453433  0.63012004  1
  V  V11  1  0.49551207  0.74874094  0.74826933  1
  V  V12  1  0.37409408  0.12747077  0.23920815  1
  V  V13  1  -0.01768858  0.24527214  0.74850364  1
  V  V14  1  -0.00354687  0.74426211  0.75333146  1
  V  V15  1  0.12987630  0.24896037  0.38456439  1
  V  V16  1  0.37323196  0.86829746  0.50539174  1
  V  V17  1  0.87865749  0.88098217  0.50161575  1
  V  V18  1  0.12871755  0.50189046  0.12179166  1
  V  V19  1  0.49885233  0.63161320  0.11940648  1
  V  V20  1  0.12626256  0.37471037  0.25035141  1
  V  V21  1  0.37290946  0.12506586  0.74788311  1
  V  V22  1  0.64095544  0.62733601  -0.00379857  1
  V  V23  1  0.25986252  0.86454178  0.11801422  1
  V  V24  1  0.62494847  0.75275646  0.37402965  1
  V  V25  1  -0.00696119  0.62342788  0.63005975  1
  V  V26  1  0.00202524  0.75031283  0.24888181  1
  V  V27  1  0.49781537  0.00035364  0.00674563  1
  V  V28  1  0.00561390  0.62513942  0.11728923  1
  V  V29  1  0.62853117  0.37579018  0.75078316  1
  V  V30  1  0.50055586  0.36861794  0.36814337  1
  V  V31  1  -0.00216832  0.24826279  0.24571985  1
  V  V32  1  0.11811381  0.37125443  0.75693321  1
  V  V33  1  0.49798941  0.12953677  0.62496778  1
  V  V34  1  0.75373525  0.51390814  0.75061691  1
  V  V35  1  0.75030573  0.87782415  0.10880942  1
  V  V36  1  0.37319327  0.62766915  0.74098995  1
  V  V37  1  0.62462153  0.50288392  0.62282931  1
  V  V38  1  0.00246313  -0.00914717  -0.00858466  1
  V  V39  1  0.37587595  0.49954858  0.37412113  1
  V  V40  1  0.50465983  0.50086131  -0.00291136  1
  V  V41  1  0.86763646  0.50331589  0.87282407  1
  V  V42  1  -0.00296626  0.12818679  0.12510997  1
  V  V43  1  0.75147030  0.62733524  0.37533790  1
  V  V44  1  0.12842850  0.74143938  0.88388526  1
  V  V45  1  0.25871659  0.25129798  0.00595736  1
  V  V46  1  0.48687719  0.25082995  0.22818329  1
  V  V47  1  0.87828014  0.63003383  0.24860454  1
  V  V48  1  0.50190118  0.37229490  0.87435263  1
  V  V49  1  0.24943094  0.12523183  0.87406924  1
  V  V50  1  -0.00017553  0.37412657  0.37493292  1
  V  V51  1  0.25085018  0.86687648  0.62623337  1
  V  V52  1  0.75548619  0.37400779  0.62322410  1
  V  V53  1  0.25127326  0.50111684  0.24789570  1
  V  V54  1  0.00028793  0.88094268  0.38018627  1
  V  V55  1  0.63650201  0.74296996  0.87518885  1
  V  V56  1  0.12512832  0.62419255  0.50068975  1
  V  V57  1  0.75146953  0.12189159  0.37439920  1
  V  V58  1  0.12603951  0.12499394  -0.00095060  1
  V  V59  1  0.35753323  0.25235316  0.62160818  1
  V  V60  1  0.25070587  0.62663098  0.37417409  1
  V  V61  1  0.49615669  0.75254799  0.24422238  1
  V  V62  1  0.63884649  0.24244587  0.87588257  1
  V  V63  1  0.86034708  0.36653507  0.01211613  1
  V  V64  1  0.12693098  -0.00165381  0.12644785  1
  V  V65  1  0.12614904  0.87445575  0.25278052  1
  V  V66  1  0.62829876  0.12680830  0.00745067  1
  V  V67  1  0.65692430  0.35192699  0.23636843  1
  V  V68  1  0.63037140  0.50008326  0.12617870  1
  V  V69  1  0.87555307  0.37123506  0.49974390  1
  V  V70  1  0.75010877  0.50636015  0.24624653  1
  V  V71  1  0.00532213  0.48896317  -0.00806282  1
  V  V72  1  0.25142809  0.62434362  0.88576587  1
  V  V73  1  0.74887884  0.25132071  0.49736273  1
  V  V74  1  0.50290660  0.49777248  0.49793659  1
  V  V75  1  -0.00099704  0.49923348  0.49958105  1
  V  V76  1  0.37803616  0.49825588  0.87222738  1
  V  V77  1  0.25100186  0.49228369  0.74614422  1
  V  V78  1  0.37356134  0.00204612  0.37670447  1
  V  V79  1  0.11841910  0.12173673  0.50513023  1
  V  V80  1  0.36301127  0.37099509  0.50319518  1
  V  V81  1  0.12722667  0.49187824  0.62495835  1
  V  V82  1  0.11133912  -0.00129519  0.62278695  1
  V  V83  1  0.62206509  0.00031003  0.62886078  1
  V  V84  1  0.62770403  0.88091524  0.24758862  1
  Zn  Zn85  1  0.25178559  0.13162324  0.38510903  1
  Zn  Zn86  1  -0.02693244  0.12418865  0.62916150  1
  Zn  Zn87  1  -0.11561023  0.86744157  0.98795891  1
  Zn  Zn88  1  0.12104105  0.25760426  0.87949753  1
  Zn  Zn89  1  0.62246969  0.00630678  0.12690867  1
  Zn  Zn90  1  0.62019283  0.24564177  0.37229334  1
  Zn  Zn91  1  0.62430811  0.62583775  0.49711239  1
  Zn  Zn92  1  0.25899543  0.36760259  0.13091375  1
  Zn  Zn93  1  0.38354514  0.36811627  0.00433133  1
  Zn  Zn94  1  0.49882244  0.25022142  0.74927167  1
  Zn  Zn95  1  0.38614652  0.84935110  -0.00388352  1
  Zn  Zn96  1  0.25507623  0.74387346  0.50686975  1
  Zn  Zn97  1  0.75610429  -0.00177227  0.24932079  1
  Zn  Zn98  1  0.87605035  0.49897879  0.37258177  1
  Zn  Zn99  1  0.86430297  0.00781219  0.86542914  1
  Zn  Zn100  1  0.87982472  0.00391636  0.37399447  1
  Zn  Zn101  1  0.87029558  0.74434595  0.63550961  1
  Zn  Zn102  1  0.49165663  0.63022137  0.61746292  1
  Zn  Zn103  1  0.85828388  0.74443258  0.10889129  1
  Zn  Zn104  1  0.76964585  0.02391461  0.74389122  1
  Zn  Zn105  1  0.87066623  0.12422190  0.24074466  1
  Zn  Zn106  1  0.62209284  0.12720385  0.49800859  1
  Zn  Zn107  1  0.18584851  0.18708297  0.19089227  1
  Zn  Zn108  1  0.18142469  0.18428858  0.68577940  1
  Zn  Zn109  1  0.18704294  0.68669334  0.18703656  1
  Zn  Zn110  1  0.18428882  0.68139994  0.69191053  1
  Zn  Zn111  1  0.68046954  0.18145174  0.19333696  1
  Zn  Zn112  1  0.69116271  0.19100102  0.68433591  1
  Zn  Zn113  1  0.68318747  0.69344188  0.18371166  1
  Zn  Zn114  1  0.68195026  0.69027099  0.68584282  1
  Zn  Zn115  1  0.31309521  0.31386733  0.31435511  1
  Zn  Zn116  1  0.31240316  0.30989644  0.81174510  1
  Zn  Zn117  1  0.31222676  0.81385718  0.31293391  1
  Zn  Zn118  1  0.31050145  0.80875253  0.81454113  1
  Zn  Zn119  1  0.81397650  0.30664723  0.30749120  1
  Zn  Zn120  1  0.81657313  0.32531866  0.82380757  1
  Zn  Zn121  1  0.81596822  0.81394464  0.31152658  1
  Zn  Zn122  1  0.81495026  0.81791870  0.81826454  1
  Zn  Zn123  1  0.18548012  0.43910037  0.43461729  1
  Zn  Zn124  1  0.19065369  0.43958546  0.93564360  1
  Zn  Zn125  1  0.18566060  0.93903605  0.44349159  1
  Zn  Zn126  1  0.18913443  0.93280095  0.93615673  1
  Zn  Zn127  1  0.68502791  0.43340105  0.42725668  1
  Zn  Zn128  1  0.69198406  0.43571626  0.93879997  1
  Zn  Zn129  1  0.68563336  0.93903927  0.43925051  1
  Zn  Zn130  1  0.69007422  0.94810619  0.92545827  1
  Zn  Zn131  1  0.31170209  0.05749209  0.06043068  1
  Zn  Zn132  1  0.30440638  0.06055795  0.56391664  1
  Zn  Zn133  1  0.32033637  0.55834457  0.06176692  1
  Zn  Zn134  1  0.31097929  0.55637454  0.56052340  1
  Zn  Zn135  1  0.83685019  0.09339924  0.01792200  1
  Zn  Zn136  1  0.80588916  0.05942041  0.55781722  1
  Zn  Zn137  1  0.82128705  0.55828661  0.06194739  1
  Zn  Zn138  1  0.81290961  0.55915262  0.56079369  1
  Zn  Zn139  1  0.43737590  0.44038815  0.18253718  1
  Zn  Zn140  1  0.43750977  0.43565700  0.68470679  1
  Zn  Zn141  1  0.43693983  0.94006838  0.18577198  1
  Zn  Zn142  1  0.43571966  0.93689836  0.68877347  1
  Zn  Zn143  1  0.93866939  0.43794816  0.18581629  1
  Zn  Zn144  1  0.93868262  0.43544533  0.68943832  1
  Zn  Zn145  1  0.93250772  0.93872876  0.18473086  1
  Zn  Zn146  1  0.93497175  0.92865770  0.69385400  1
  Zn  Zn147  1  0.06375322  0.06506084  0.31375911  1
  Zn  Zn148  1  0.05578943  0.06507745  0.80766612  1
  Zn  Zn149  1  0.06392898  0.56187622  0.31153065  1
  Zn  Zn150  1  0.06453226  0.56270483  0.81383746  1
  Zn  Zn151  1  0.55802250  0.06832827  0.31155818  1
  Zn  Zn152  1  0.56121839  0.06170200  0.81398576  1
  Zn  Zn153  1  0.56407338  0.56337375  0.31042809  1
  Zn  Zn154  1  0.56257537  0.56603836  0.80971106  1
  Zn  Zn155  1  0.43048594  0.18715881  0.43876422  1
  Zn  Zn156  1  0.44190466  0.18212845  0.93707205  1
  Zn  Zn157  1  0.43878993  0.68822906  0.43377995  1
  Zn  Zn158  1  0.44303364  0.68748542  0.92788950  1
  Zn  Zn159  1  0.94020359  0.18649572  0.43889175  1
  Zn  Zn160  1  0.93427491  0.19922865  0.92158141  1
  Zn  Zn161  1  0.93880476  0.69109111  0.43977704  1
  Zn  Zn162  1  0.93902255  0.68405001  0.93512367  1
  Zn  Zn163  1  0.06706243  0.31350684  0.06374559  1
  Zn  Zn164  1  0.05995725  0.30760325  0.56734021  1
  Zn  Zn165  1  0.06833435  0.80860475  0.06520656  1
  Zn  Zn166  1  0.06323682  0.80925644  0.56635321  1
  Zn  Zn167  1  0.57054824  0.31290730  0.05993419  1
  Zn  Zn168  1  0.56190747  0.31407808  0.56035174  1
  Zn  Zn169  1  0.56514972  0.81568243  0.05523917  1
  Zn  Zn170  1  0.56116985  0.81243831  0.56441365  1
  O  O171  1  0.12421094  0.11564863  0.11839402  1
  O  O172  1  0.12468495  0.11179484  0.62095554  1
  O  O173  1  0.11751929  0.61269223  0.13250282  1
  O  O174  1  0.11629315  0.61333771  0.62041324  1
  O  O175  1  0.62116469  0.12878195  0.11278545  1
  O  O176  1  0.61666661  0.11686561  0.62703695  1
  O  O177  1  0.61847217  0.62002735  0.11766169  1
  O  O178  1  0.62497778  0.61024693  0.61990044  1
  O  O179  1  0.38280602  0.37989092  0.38291092  1
  O  O180  1  0.38747883  0.37808201  0.87463096  1
  O  O181  1  0.37944759  0.88195413  0.38322638  1
  O  O182  1  0.36104162  0.88799949  0.88140688  1
  O  O183  1  0.88155106  0.37605885  0.38280744  1
  O  O184  1  0.87354465  0.39305726  0.89458691  1
  O  O185  1  0.88396201  0.87440114  0.38353994  1
  O  O186  1  0.86033464  0.89427916  0.88265173  1
  O  O187  1  0.25304930  -0.00313169  0.36496867  1
  O  O188  1  0.25539522  0.00901465  0.87186285  1
  O  O189  1  0.25552074  0.50710681  0.36792578  1
  O  O190  1  0.25674106  0.50484049  0.86539491  1
  O  O191  1  0.75009784  0.01113940  0.37781164  1
  O  O192  1  0.73941135  0.01416876  0.85177993  1
  O  O193  1  0.74921622  0.51732326  0.37067314  1
  O  O194  1  0.75852314  0.49919649  0.86590047  1
  O  O195  1  0.24070932  0.50587162  0.12990651  1
  O  O196  1  0.23806595  0.50499644  0.63454991  1
  O  O197  1  0.24250854  0.99481923  0.13485553  1
  O  O198  1  0.23967140  0.98831868  0.63296841  1
  O  O199  1  0.74107079  0.51076836  0.13508528  1
  O  O200  1  0.74328961  0.49208480  0.62864498  1
  O  O201  1  0.73911101  0.98155756  0.13300726  1
  O  O202  1  0.73788282  0.99042398  0.62705538  1
  O  O203  1  0.00596562  0.36872344  0.25386942  1
  O  O204  1  0.01334494  0.36794199  0.74756300  1
  O  O205  1  0.00596047  0.86935277  0.25676581  1
  O  O206  1  0.01411256  0.86016492  0.74435798  1
  O  O207  1  0.48677352  0.36186236  0.25623800  1
  O  O208  1  0.51321874  0.37688306  0.75629701  1
  O  O209  1  0.50473121  0.86973016  0.25318000  1
  O  O210  1  0.50833286  0.86519459  0.74186213  1
  O  O211  1  0.48818217  0.14221939  0.25313179  1
  O  O212  1  0.49196027  0.12475842  0.73923035  1
  O  O213  1  0.49930967  0.63392140  0.24177265  1
  O  O214  1  0.48931293  0.62734002  0.74450044  1
  O  O215  1  1.00436896  0.13160924  0.24049883  1
  O  O216  1  0.99794745  0.13893329  0.74470651  1
  O  O217  1  0.99351714  0.62835955  0.24492360  1
  O  O218  1  1.00662572  0.62969127  0.73939442  1
  O  O219  1  0.36171451  0.24559155  -0.00595584  1
  O  O220  1  0.37734967  0.25954871  0.50890319  1
  O  O221  1  0.38465928  0.74027203  0.00247374  1
  O  O222  1  0.37567987  0.76352176  0.49566000  1
  O  O223  1  0.88441924  0.26933486  -0.00286774  1
  O  O224  1  0.86421480  0.26274672  0.49541864  1
  O  O225  1  0.90031902  0.75825238  0.00623832  1
  O  O226  1  0.86270376  0.75821896  0.50073309  1
  O  O227  1  0.11877444  0.24322922  0.49212979  1
  O  O228  1  0.13334174  0.23935575  0.99736583  1
  O  O229  1  0.12779226  0.74151596  0.49547997  1
  O  O230  1  0.12211605  0.75024705  0.98204549  1
  O  O231  1  0.63606319  0.25262304  0.49517690  1
  O  O232  1  0.62017616  0.23903424  0.98703166  1
  O  O233  1  0.63569173  0.75083998  0.49419341  1
  O  O234  1  0.62009676  0.74336376  0.98218148  1
  O  O235  1  0.49281800  0.25836095  0.13013329  1
  O  O236  1  0.49955219  0.23876300  0.62551497  1
  O  O237  1  0.51109990  0.74151555  0.13310395  1
  O  O238  1  0.51099133  0.74280444  0.63878458  1
  O  O239  1  1.01466002  0.23953992  0.13485002  1
  O  O240  1  0.99931029  0.24986957  0.64298405  1
  O  O241  1  1.01240989  0.73750543  0.13528077  1
  O  O242  1  0.99959817  0.73871008  0.63407460  1
  O  O243  1  0.00978858  0.25504454  0.36761290  1
  O  O244  1  0.01043844  0.24696623  0.85470406  1
  O  O245  1  0.00658775  0.75742241  0.36905293  1
  O  O246  1  0.01797266  0.73402990  0.86343289  1
  O  O247  1  0.49828235  0.26279130  0.37856471  1
  O  O248  1  0.50704331  0.26075355  0.87136629  1
  O  O249  1  0.50577668  0.75656711  0.36611537  1
  O  O250  1  0.51377361  0.74325819  0.85512896  1
  O  O251  1  0.22975401  0.11855514  0.49934740  1
  O  O252  1  0.24504382  0.13090457  0.99422378  1
  O  O253  1  0.24509833  0.62383994  0.49305696  1
  O  O254  1  0.25613952  0.61371362  0.98445151  1
  O  O255  1  0.74548607  0.13555597  0.49282784  1
  O  O256  1  0.72659750  0.11562456  1.00176198  1
  O  O257  1  0.75095775  0.63373191  0.49214846  1
  O  O258  1  0.73960286  0.62221111  1.00834957  1
  O  O259  1  0.24880036  0.35611585  -0.00649098  1
  O  O260  1  0.26451267  0.38406585  0.49621475  1
  O  O261  1  0.25105508  0.88069583  0.01668551  1
  O  O262  1  0.25704171  0.87299898  0.50860333  1
  O  O263  1  0.75855659  0.37453143  0.00548978  1
  O  O264  1  0.75566091  0.37265883  0.50148190  1
  O  O265  1  0.74046339  0.88312049  0.00910534  1
  O  O266  1  0.75457626  0.86799715  0.50775049  1
  O  O267  1  0.13075842  0.49454119  0.24301070  1
  O  O268  1  0.12979841  0.49023127  0.74462082  1
  O  O269  1  0.13326560  0.99631565  0.24499975  1
  O  O270  1  0.12726176  0.98959327  0.74653023  1
  O  O271  1  0.63407961  0.50340227  0.24001059  1
  O  O272  1  0.63295771  0.49456531  0.74318620  1
  O  O273  1  0.61707905  0.98992941  0.24828649  1
  O  O274  1  0.61480038  0.99023536  0.73788552  1
  O  O275  1  0.36910993  0.00649463  0.25665311  1
  O  O276  1  0.36781651  0.00394114  0.75631238  1
  O  O277  1  0.37223237  0.50750928  0.25615024  1
  O  O278  1  0.36871078  0.50270847  0.75178345  1
  O  O279  1  0.87427225  0.00682173  0.25524413  1
  O  O280  1  0.88218458  0.00438297  0.75138347  1
  O  O281  1  0.86994129  0.51522803  0.25071551  1
  O  O282  1  0.86939569  0.49049853  0.76441423  1
  O  O283  1  0.11901032  0.36854785  0.37153863  1
  O  O284  1  0.12730692  0.37782400  0.86018422  1
  O  O285  1  0.11940781  0.86996472  0.37335900  1
  O  O286  1  0.13644996  0.85847071  0.86368742  1
  O  O287  1  0.61974079  0.37078578  0.35120754  1
  O  O288  1  0.62148235  0.36778436  0.86830308  1
  O  O289  1  0.61734889  0.87230628  0.36923696  1
  O  O290  1  0.62868120  0.86313673  0.86198926  1
  O  O291  1  0.36687292  0.11822525  0.14041902  1
  O  O292  1  0.37940209  0.13145663  0.62684987  1
  O  O293  1  0.39289694  0.61532295  0.13118874  1
  O  O294  1  0.37276129  0.61809330  0.63579038  1
  O  O295  1  0.89408647  0.12312765  0.11749656  1
  O  O296  1  0.84549016  0.13605660  0.63378797  1
  O  O297  1  0.88536054  0.62720193  0.13352362  1
  O  O298  1  0.88804278  0.62481531  0.61885552  1
  O  O299  1  0.24480178  0.24758041  0.10960181  1
  O  O300  1  0.25918550  0.24650753  0.62703702  1
  O  O301  1  0.24504896  0.76633738  0.13188975  1
  O  O302  1  0.24196158  0.76234113  0.62686948  1
  O  O303  1  0.73163248  0.28317481  0.21030443  1
  O  O304  1  0.74023862  0.26870809  0.61230004  1
  O  O305  1  0.74612538  0.76870104  0.12885917  1
  O  O306  1  0.74858718  0.75565616  0.61605228  1
  O  O307  1  0.23421631  0.24940639  0.36850112  1
  O  O308  1  0.24711789  0.23807560  0.88182829  1
  O  O309  1  0.24464544  0.74340944  0.37640589  1
  O  O310  1  0.23827837  0.73683926  0.86735023  1
  O  O311  1  0.74733052  0.24241932  0.38211208  1
  O  O312  1  0.73660184  0.25485357  0.87046036  1
  O  O313  1  0.74644512  0.74460972  0.38123742  1
  O  O314  1  0.73486152  0.74702303  0.86443519  1
  O  O315  1  0.01602992  0.11531518  0.00868385  1
  O  O316  1  0.00781047  0.13109687  0.51429717  1
  O  O317  1  -0.00275510  0.60923785  0.01353113  1
  O  O318  1  0.00541965  0.61974219  0.50667825  1
  O  O319  1  0.51135031  0.11275309  -0.00724446  1
  O  O320  1  0.49966912  0.11974480  0.50914689  1
  O  O321  1  0.51439916  0.61803900  0.00496011  1
  O  O322  1  0.50237443  0.61196084  0.49702297  1
  O  O323  1  0.49850969  0.38428479  0.48891254  1
  O  O324  1  0.50691638  0.38109765  0.98851681  1
  O  O325  1  0.49208244  0.87987088  0.49692996  1
  O  O326  1  0.49961112  0.89345697  1.00011109  1
  O  O327  1  0.99226370  0.37802762  0.49720862  1
  O  O328  1  0.99903956  0.38749537  1.00501546  1
  O  O329  1  0.98979176  0.86315988  0.49246551  1
  O  O330  1  1.01692756  0.89064736  1.00570228  1
  O  O331  1  0.49815785  0.49034383  0.37727707  1
  O  O332  1  0.50072737  0.49026371  0.87576173  1
  O  O333  1  0.49345244  0.99633700  0.38134331  1
  O  O334  1  0.48679854  1.00302067  0.87908956  1
  O  O335  1  1.00063592  0.49295763  0.38126358  1
  O  O336  1  0.99796944  0.50233169  0.88854707  1
  O  O337  1  1.00332242  0.98408369  0.37216085  1
  O  O338  1  1.00954500  1.00240005  0.89133340  1
  O  O339  1  0.01567279  0.00660404  0.12416296  1
  O  O340  1  0.00943882  0.00030248  0.63296905  1
  O  O341  1  0.01089476  0.50563995  0.11983048  1
  O  O342  1  0.00629841  0.50510758  0.62083785  1
  O  O343  1  0.50058009  0.00266460  0.11150605  1
  O  O344  1  0.50222833  0.00965865  0.62103856  1
  O  O345  1  0.51434747  0.50929040  0.12051875  1
  O  O346  1  0.50932427  0.49830827  0.61409815  1
  O  O347  1  0.24497938  0.38367140  0.25078075  1
  O  O348  1  0.24344282  0.38696134  0.75407340  1
  O  O349  1  0.24756753  0.88494787  0.24370661  1
  O  O350  1  0.24224074  0.87768377  0.74338140  1
  O  O351  1  0.75484172  0.40535988  0.27142356  1
  O  O352  1  0.74284462  0.38352656  0.74182536  1
  O  O353  1  0.73588498  0.87562396  0.25546031  1
  O  O354  1  0.73804945  0.86646148  0.73514355  1
  O  O355  1  0.25306412  0.11461040  0.25483723  1
  O  O356  1  0.25173709  0.11893070  0.75739007  1
  O  O357  1  0.25781806  0.62115277  0.25431509  1
  O  O358  1  0.25612447  0.61276301  0.75511378  1
  O  O359  1  0.75064740  0.12082205  0.26026272  1
  O  O360  1  0.79270626  0.13503152  0.70291166  1
  O  O361  1  0.75719404  0.62527330  0.25546496  1
  O  O362  1  0.75006496  0.61228464  0.73792270  1
  O  O363  1  0.36970266  0.11847177  0.36861490  1
  O  O364  1  0.36554310  0.11797260  0.86800107  1
  O  O365  1  0.37178722  0.61892430  0.36855822  1
  O  O366  1  0.36990469  0.61574102  0.86063600  1
  O  O367  1  0.86380311  0.12456073  0.37770966  1
  O  O368  1  0.87047001  0.11175010  0.91131170  1
  O  O369  1  0.86753072  0.62788270  0.36693009  1
  O  O370  1  0.87878911  0.60264264  0.88333910  1
  O  O371  1  0.13224973  0.38545862  0.13146952  1
  O  O372  1  0.12066880  0.38724066  0.63284049  1
  O  O373  1  0.13467820  0.88327968  0.13302218  1
  O  O374  1  0.13065252  0.88043748  0.63220899  1
  O  O375  1  0.62193694  0.38515894  0.13694896  1
  O  O376  1  0.63074446  0.38505053  0.63150965  1
  O  O377  1  0.63031486  0.87389876  0.13421797  1
  O  O378  1  0.62980118  0.88171973  0.63056278  1
  O  O379  1  0.11788976  0.25506561  0.25862428  1
  O  O380  1  0.13144975  0.26702141  0.74834945  1
  O  O381  1  0.12155222  0.75514042  0.25935645  1
  O  O382  1  0.11822926  0.75418350  0.75452664  1
  O  O383  1  0.59549107  0.25150899  0.25008013  1
  O  O384  1  0.62597977  0.25841648  0.75771664  1
  O  O385  1  0.61463391  0.75972501  0.25557172  1
  O  O386  1  0.61900691  0.75424702  0.75685272  1
  O  O387  1  0.37954938  0.24292760  0.25150574  1
  O  O388  1  0.37708088  0.24437732  0.73984389  1
  O  O389  1  0.38948064  0.74551781  0.25584583  1
  O  O390  1  0.38173684  0.73881838  0.75536971  1
  O  O391  1  0.89463040  0.24388924  0.25491776  1
  O  O392  1  0.88472707  0.26317750  0.75694496  1
  O  O393  1  0.88203704  0.74106356  0.24769100  1
  O  O394  1  0.89123317  0.75675577  0.75334560  1
  O  O395  1  0.38565169  0.49235956  0.49517866  1
  O  O396  1  0.38852280  0.49996458  0.98696745  1
  O  O397  1  0.37731183  0.99195832  0.49635853  1
  O  O398  1  0.38688201  1.00599209  0.99164627  1
  O  O399  1  0.88007234  0.48963481  0.49480277  1
  O  O400  1  0.88689183  0.49225034  0.99507745  1
  O  O401  1  0.87028711  0.98490131  0.49874098  1
  O  O402  1  0.90131887  0.99104525  1.01254470  1
  O  O403  1  0.12635861  0.00690009  0.00848272  1
  O  O404  1  0.12173082  0.00464913  0.51204230  1
  O  O405  1  0.11567864  0.49340745  0.00760284  1
  O  O406  1  0.11959353  0.50312286  0.50705286  1
  O  O407  1  0.61196046  0.01023639  -0.00472980  1
  O  O408  1  0.61634443  -0.00093032  0.51397423  1
  O  O409  1  0.62528173  0.50566789  0.00722695  1
  O  O410  1  0.61914875  0.49678667  0.50411002  1
  O  O411  1  0.36749011  0.39004409  0.11314136  1
  O  O412  1  0.38312274  0.36388539  0.61511280  1
  O  O413  1  0.36235599  0.87933401  0.12376362  1
  O  O414  1  0.36401859  0.88154740  0.61626688  1
  O  O415  1  0.87544421  0.38376158  0.11221161  1
  O  O416  1  0.86428810  0.38421933  0.61398801  1
  O  O417  1  0.85866801  0.87371510  0.12190889  1
  O  O418  1  0.86450259  0.86932938  0.61847916  1
  O  O419  1  0.12162531  0.13217613  0.38621837  1
  O  O420  1  0.13618891  0.12086197  0.88353467  1
  O  O421  1  0.13061154  0.62867640  0.38017252  1
  O  O422  1  0.13701402  0.63257425  0.86921412  1
  O  O423  1  0.63354677  0.12715845  0.37698736  1
  O  O424  1  0.62221092  0.14027458  0.87319434  1
  O  O425  1  0.63514724  0.63300721  0.37344186  1
  O  O426  1  0.62541100  0.63315742  0.88045808  1
