# generated using pymatgen
data_V85Zn86O256
_symmetry_space_group_name_H-M   'P 1'
_cell_length_a   16.95322599
_cell_length_b   16.95374136
_cell_length_c   16.95770112
_cell_angle_alpha   89.96418643
_cell_angle_beta   89.97142308
_cell_angle_gamma   89.99347391
_symmetry_Int_Tables_number   1
_chemical_formula_structural   V85Zn86O256
_chemical_formula_sum   'V85 Zn86 O256'
_cell_volume   4873.99118764
_cell_formula_units_Z   1
loop_
 _symmetry_equiv_pos_site_id
 _symmetry_equiv_pos_as_xyz
  1  'x, y, z'
loop_
 _atom_site_type_symbol
 _atom_site_label
 _atom_site_symmetry_multiplicity
 _atom_site_fract_x
 _atom_site_fract_y
 _atom_site_fract_z
 _atom_site_occupancy
  V  V0  1  -0.00296994  0.62291967  0.62819212  1
  V  V1  1  -0.00008318  0.12429509  0.12349708  1
  V  V2  1  0.37215444  0.74521387  0.62825901  1
  V  V3  1  0.87901191  0.50496339  0.87143380  1
  V  V4  1  0.00103586  0.74681355  0.75200881  1
  V  V5  1  0.12493406  0.62536961  0.49963511  1
  V  V6  1  0.62270539  0.00451010  0.62686581  1
  V  V7  1  0.37264221  -0.01434247  0.36835213  1
  V  V8  1  0.38433489  0.49484596  0.87617182  1
  V  V9  1  0.26519295  0.00183806  0.75233796  1
  V  V10  1  0.25088267  0.11977007  0.37171552  1
  V  V11  1  0.74412517  -0.00488654  0.25116048  1
  V  V12  1  0.49451649  0.74453402  0.75088494  1
  V  V13  1  0.62664472  0.64007733  0.49754000  1
  V  V14  1  -0.00104586  0.24776330  0.74396064  1
  V  V15  1  0.24644256  0.75143175  -0.00175086  1
  V  V16  1  0.75389156  0.11805717  0.87638560  1
  V  V17  1  0.75361251  0.50090088  0.25451172  1
  V  V18  1  -0.00144769  0.62649033  0.13085985  1
  V  V19  1  0.74420809  0.74798317  -0.00287647  1
  V  V20  1  0.25401492  0.50298598  0.74943243  1
  V  V21  1  0.49418564  0.12866913  0.12637094  1
  V  V22  1  0.37402219  0.75010366  0.12451937  1
  V  V23  1  0.61566596  0.37717767  0.75689390  1
  V  V24  1  0.37553990  0.62505851  0.24803840  1
  V  V25  1  0.36377220  0.37151743  0.51009456  1
  V  V26  1  0.87666435  0.37362650  0.50217873  1
  V  V27  1  -0.00724541  -0.00244302  -0.00658636  1
  V  V28  1  0.50003457  0.37394876  0.37804763  1
  V  V29  1  0.13238356  0.24691787  0.38034088  1
  V  V30  1  0.24815234  0.88165093  0.13100729  1
  V  V31  1  0.26591364  0.12184133  0.87112450  1
  V  V32  1  0.12098171  0.49742589  0.11979508  1
  V  V33  1  0.48898155  -0.00247253  0.50568487  1
  V  V34  1  0.62280783  -0.00491297  0.12905957  1
  V  V35  1  0.87219209  0.87255674  0.50260354  1
  V  V36  1  0.49482353  0.00239139  -0.00578499  1
  V  V37  1  0.00081819  0.24946537  0.24974576  1
  V  V38  1  0.00219926  0.00264014  0.51386363  1
  V  V39  1  0.49821598  0.24740596  0.25194262  1
  V  V40  1  0.74965399  0.24747806  0.50390220  1
  V  V41  1  0.37554409  0.49885562  0.37453728  1
  V  V42  1  0.75090110  0.25183191  -0.00325132  1
  V  V43  1  0.13071560  0.37312212  0.24502081  1
  V  V44  1  0.24842289  0.87857824  0.62306388  1
  V  V45  1  0.12268229  0.88378404  0.74651902  1
  V  V46  1  0.74645693  0.62649185  0.87455886  1
  V  V47  1  0.25055478  0.25628040  0.00355471  1
  V  V48  1  0.87278538  0.12604911  0.25207322  1
  V  V49  1  0.12624899  -0.00031521  0.13167942  1
  V  V50  1  0.62413097  0.12750957  -0.00129773  1
  V  V51  1  0.25105808  0.49657848  0.24255465  1
  V  V52  1  0.13387417  0.37335331  0.74576180  1
  V  V53  1  0.74554755  0.63922943  0.37841233  1
  V  V54  1  0.75682672  0.50324569  0.74815323  1
  V  V55  1  0.12455368  0.12112840  0.51164852  1
  V  V56  1  0.62195227  0.50463903  0.11795932  1
  V  V57  1  0.00096421  0.37661581  0.37560052  1
  V  V58  1  0.87298382  0.74565726  0.62714709  1
  V  V59  1  0.62613648  0.37491766  0.25205124  1
  V  V60  1  0.25346918  0.62511153  0.87246813  1
  V  V61  1  0.25587157  0.75632147  0.49874187  1
  V  V62  1  0.51066428  0.75748335  0.25305561  1
  V  V63  1  0.11813966  0.62140846  -0.00161599  1
  V  V64  1  0.87573248  0.00089631  0.37650515  1
  V  V65  1  0.75243520  0.37560828  0.12541601  1
  V  V66  1  0.87942332  0.38080690  -0.00043281  1
  V  V67  1  0.24943693  0.62557265  0.37379577  1
  V  V68  1  0.12883456  0.24622011  0.87380030  1
  V  V69  1  0.37056807  0.88095962  -0.00650521  1
  V  V70  1  0.62406521  0.24485014  0.37818029  1
  V  V71  1  0.87860089  0.11671928  0.74985796  1
  V  V72  1  0.74772006  0.86987146  0.62428973  1
  V  V73  1  0.36980554  0.23672175  0.62617609  1
  V  V74  1  0.13137699  0.49694592  0.62326982  1
  V  V75  1  0.50145393  0.50172129  0.49872564  1
  V  V76  1  -0.00139276  0.87190636  0.36981261  1
  V  V77  1  0.49677272  0.23102284  0.74733114  1
  V  V78  1  0.50049409  0.86996664  0.87571734  1
  V  V79  1  0.62623711  0.50012703  0.62165015  1
  V  V80  1  0.11987643  0.75036523  0.36836860  1
  V  V81  1  0.38931312  0.37689995  0.00302743  1
  V  V82  1  0.00299661  0.37924700  0.87788932  1
  V  V83  1  0.87937389  0.75722873  0.12843455  1
  V  V84  1  0.62445631  0.86902028  0.75468418  1
  Zn  Zn85  1  0.00039775  0.49931426  0.50103560  1
  Zn  Zn86  1  0.49676129  0.62626212  0.62553420  1
  Zn  Zn87  1  0.87969201  0.63215616  0.25675992  1
  Zn  Zn88  1  0.36462690  0.25995141  0.13230563  1
  Zn  Zn89  1  0.75457121  -0.00713114  0.75817744  1
  Zn  Zn90  1  0.49512412  0.62017393  0.11911905  1
  Zn  Zn91  1  0.61447288  0.62774370  -0.00826627  1
  Zn  Zn92  1  0.61602044  0.25579594  0.87806489  1
  Zn  Zn93  1  0.52795849  0.86937623  0.37556380  1
  Zn  Zn94  1  0.74359802  0.87185528  0.12319886  1
  Zn  Zn95  1  0.75371669  0.37372042  0.62883441  1
  Zn  Zn96  1  0.61872045  0.12769811  0.51201827  1
  Zn  Zn97  1  0.87620968  0.25184068  0.12426855  1
  Zn  Zn98  1  0.12180528  0.87402215  0.24930681  1
  Zn  Zn99  1  0.74874986  0.12370952  0.37928132  1
  Zn  Zn100  1  0.87897523  0.24403231  0.62380141  1
  Zn  Zn101  1  0.12307394  0.75251918  0.87463471  1
  Zn  Zn102  1  -0.00538888  0.87926652  0.86980702  1
  Zn  Zn103  1  0.86544020  0.88060072  -0.01457897  1
  Zn  Zn104  1  0.87607256  0.50431488  0.37684482  1
  Zn  Zn105  1  0.12772814  0.12258044  -0.00120686  1
  Zn  Zn106  1  0.36900011  0.12266375  0.25029981  1
  Zn  Zn107  1  0.18714651  0.18413933  0.18952518  1
  Zn  Zn108  1  0.19425311  0.18687569  0.68795374  1
  Zn  Zn109  1  0.18847034  0.68649272  0.18490863  1
  Zn  Zn110  1  0.18462855  0.68823910  0.68728078  1
  Zn  Zn111  1  0.68527900  0.18568440  0.18577464  1
  Zn  Zn112  1  0.69064388  0.18938823  0.69268825  1
  Zn  Zn113  1  0.69342273  0.68679999  0.18685429  1
  Zn  Zn114  1  0.68547963  0.68607550  0.68844175  1
  Zn  Zn115  1  0.31393028  0.31063862  0.31819127  1
  Zn  Zn116  1  0.31933751  0.31201721  0.81295939  1
  Zn  Zn117  1  0.31148631  0.80996269  0.31010477  1
  Zn  Zn118  1  0.31177300  0.81363789  0.81085945  1
  Zn  Zn119  1  0.81241487  0.31121945  0.31570963  1
  Zn  Zn120  1  0.81230442  0.31345154  0.81209081  1
  Zn  Zn121  1  0.80876677  0.81697726  0.31193054  1
  Zn  Zn122  1  0.81636059  0.80993560  0.81295247  1
  Zn  Zn123  1  0.18867261  0.43773963  0.43478635  1
  Zn  Zn124  1  0.19267587  0.43678327  0.93610462  1
  Zn  Zn125  1  0.18512326  0.93921660  0.43700024  1
  Zn  Zn126  1  0.17969399  0.94033476  0.93507364  1
  Zn  Zn127  1  0.68913330  0.43727844  0.43803785  1
  Zn  Zn128  1  0.69103915  0.43954449  0.93554239  1
  Zn  Zn129  1  0.68533753  0.93778098  0.44100991  1
  Zn  Zn130  1  0.68263082  0.93591848  0.94124172  1
  Zn  Zn131  1  0.30898478  0.06708516  0.05933107  1
  Zn  Zn132  1  0.30622958  0.06081377  0.55891918  1
  Zn  Zn133  1  0.31062430  0.56130123  0.05735651  1
  Zn  Zn134  1  0.31288438  0.56481039  0.55997295  1
  Zn  Zn135  1  0.81079644  0.06372626  0.06505856  1
  Zn  Zn136  1  0.81035776  0.05948139  0.56790738  1
  Zn  Zn137  1  0.81231850  0.56549896  0.06157325  1
  Zn  Zn138  1  0.81159331  0.56229983  0.55820649  1
  Zn  Zn139  1  0.43941690  0.43420441  0.18728910  1
  Zn  Zn140  1  0.43740298  0.44038839  0.68636877  1
  Zn  Zn141  1  0.43690612  0.93740551  0.18629908  1
  Zn  Zn142  1  0.43504029  0.93103872  0.68452500  1
  Zn  Zn143  1  0.93953675  0.44019703  0.18745394  1
  Zn  Zn144  1  0.94253150  0.43389823  0.68802016  1
  Zn  Zn145  1  0.93487874  0.93979199  0.18592834  1
  Zn  Zn146  1  0.93551341  0.93439456  0.69084079  1
  Zn  Zn147  1  0.06034286  0.06030761  0.31710652  1
  Zn  Zn148  1  0.06550267  0.06392029  0.80817295  1
  Zn  Zn149  1  0.06434237  0.56213943  0.31008578  1
  Zn  Zn150  1  0.06600587  0.56230131  0.81074641  1
  Zn  Zn151  1  0.55756959  0.05733010  0.31643690  1
  Zn  Zn152  1  0.56640757  0.06011099  0.81508535  1
  Zn  Zn153  1  0.56325551  0.56745627  0.30917484  1
  Zn  Zn154  1  0.56518224  0.56255167  0.81029178  1
  Zn  Zn155  1  0.43556374  0.18166427  0.44363307  1
  Zn  Zn156  1  0.43923760  0.19540010  0.93527260  1
  Zn  Zn157  1  0.43951506  0.68875142  0.43558984  1
  Zn  Zn158  1  0.43578252  0.68611908  0.93844138  1
  Zn  Zn159  1  0.94273398  0.18755837  0.43925372  1
  Zn  Zn160  1  0.93737779  0.18865021  0.93400945  1
  Zn  Zn161  1  0.93573017  0.68737673  0.44147959  1
  Zn  Zn162  1  0.93294628  0.68910354  0.94151331  1
  Zn  Zn163  1  0.06461422  0.31046448  0.06125094  1
  Zn  Zn164  1  0.06734088  0.31008043  0.56174635  1
  Zn  Zn165  1  0.06163113  0.81358128  0.06075805  1
  Zn  Zn166  1  0.06352304  0.81278366  0.56065335  1
  Zn  Zn167  1  0.56438100  0.31468288  0.06589523  1
  Zn  Zn168  1  0.55785866  0.31372217  0.56717247  1
  Zn  Zn169  1  0.55898360  0.81067420  0.06304089  1
  Zn  Zn170  1  0.55592197  0.82001621  0.56480937  1
  O  O171  1  0.11430709  0.11828649  0.12530220  1
  O  O172  1  0.13106100  0.13069798  0.61001486  1
  O  O173  1  0.11904715  0.61906350  0.11857059  1
  O  O174  1  0.11787842  0.61714391  0.61938383  1
  O  O175  1  0.61354409  0.11985521  0.11799550  1
  O  O176  1  0.63297253  0.10850478  0.63308698  1
  O  O177  1  0.63008164  0.60923224  0.12505407  1
  O  O178  1  0.62698472  0.61426210  0.61629734  1
  O  O179  1  0.38078247  0.37904379  0.38592053  1
  O  O180  1  0.37294872  0.38695786  0.88459341  1
  O  O181  1  0.37008506  0.88527182  0.37304323  1
  O  O182  1  0.38079829  0.87359313  0.88699172  1
  O  O183  1  0.88658794  0.37243580  0.38302774  1
  O  O184  1  0.88368049  0.38191772  0.88029453  1
  O  O185  1  0.87879845  0.87767928  0.38521709  1
  O  O186  1  0.88199663  0.87655278  0.87313509  1
  O  O187  1  0.26390241  0.00404997  0.38194613  1
  O  O188  1  0.24410757  0.00713878  0.86247996  1
  O  O189  1  0.25385597  0.50558751  0.36353716  1
  O  O190  1  0.25421482  0.50682718  0.86672877  1
  O  O191  1  0.75903204  0.00578351  0.36759450  1
  O  O192  1  0.74299256  0.01302509  0.87699940  1
  O  O193  1  0.75206941  0.50320755  0.36590595  1
  O  O194  1  0.76052438  0.50468890  0.86699046  1
  O  O195  1  0.24007586  0.50604759  0.13652762  1
  O  O196  1  0.24003474  0.50961835  0.63432222  1
  O  O197  1  0.23864600  0.99340432  0.11612802  1
  O  O198  1  0.25551735  0.99085590  0.63820636  1
  O  O199  1  0.74469763  0.49592757  0.13476984  1
  O  O200  1  0.74451971  0.49981739  0.63139992  1
  O  O201  1  0.73915105  1.00228575  0.13135247  1
  O  O202  1  0.74322907  0.98641627  0.63314992  1
  O  O203  1  0.00903218  0.37116619  0.25729608  1
  O  O204  1  0.01150144  0.36741504  0.75901642  1
  O  O205  1  -0.00485158  0.87918929  0.26628736  1
  O  O206  1  0.00766886  0.86453981  0.74569215  1
  O  O207  1  0.50557912  0.36777489  0.25793839  1
  O  O208  1  0.51507004  0.38194062  0.74891657  1
  O  O209  1  0.49473965  0.86042140  0.24854779  1
  O  O210  1  0.50357891  0.86856613  0.75828905  1
  O  O211  1  0.49856631  0.12963670  0.24109366  1
  O  O212  1  0.50618825  0.13231677  0.74722502  1
  O  O213  1  0.49234873  0.63505244  0.24341563  1
  O  O214  1  0.50985560  0.64100406  0.74710535  1
  O  O215  1  0.99225240  0.12785085  0.24333775  1
  O  O216  1  0.98655168  0.13344924  0.75987725  1
  O  O217  1  0.99930636  0.62336328  0.23710538  1
  O  O218  1  1.00841032  0.63154411  0.73673893  1
  O  O219  1  0.36945315  0.26363970  -0.00099976  1
  O  O220  1  0.38407015  0.26333599  0.51306059  1
  O  O221  1  0.36743398  0.76027193  0.00742734  1
  O  O222  1  0.36163105  0.74662839  0.50469490  1
  O  O223  1  0.86777061  0.26079022  -0.00066668  1
  O  O224  1  0.86918126  0.25517165  0.50057904  1
  O  O225  1  0.86380685  0.75118386  0.01030592  1
  O  O226  1  0.88165129  0.76324003  0.51337158  1
  O  O227  1  0.11711500  0.23580738  0.48954022  1
  O  O228  1  0.13201650  0.24950707  0.98879921  1
  O  O229  1  0.13376218  0.74467402  0.49103884  1
  O  O230  1  0.12873871  0.74069305  0.99769122  1
  O  O231  1  0.63050209  0.25034102  0.49579217  1
  O  O232  1  0.63382860  0.24793961  0.99921375  1
  O  O233  1  0.61926746  0.73835331  0.50994452  1
  O  O234  1  0.63971598  0.74850320  1.00975275  1
  O  O235  1  0.50053875  0.24172630  0.13179930  1
  O  O236  1  0.49103982  0.25447880  0.63886627  1
  O  O237  1  0.48469803  0.75318163  0.13268322  1
  O  O238  1  0.48804480  0.75389678  0.63256411  1
  O  O239  1  1.00112178  0.24016284  0.13011415  1
  O  O240  1  1.00315989  0.25330845  0.64040668  1
  O  O241  1  0.98741874  0.74326111  0.11867191  1
  O  O242  1  0.99572400  0.74165115  0.63038968  1
  O  O243  1  0.01011762  0.25821147  0.36923382  1
  O  O244  1  0.01002684  0.25791620  0.86696084  1
  O  O245  1  0.00926016  0.75880661  0.38476902  1
  O  O246  1  -0.00133501  0.74219405  0.86044193  1
  O  O247  1  0.50668476  0.25279627  0.37359384  1
  O  O248  1  0.50071337  0.24913903  0.85445448  1
  O  O249  1  0.49541059  0.75224779  0.35849136  1
  O  O250  1  0.49106423  0.76143988  0.86679576  1
  O  O251  1  0.23246782  0.11766511  0.48811091  1
  O  O252  1  0.24740479  0.13345813  0.98736213  1
  O  O253  1  0.24425200  0.63333255  0.49272498  1
  O  O254  1  0.23955750  0.63076620  0.99326794  1
  O  O255  1  0.74879584  0.13570325  0.50052728  1
  O  O256  1  0.74707591  0.13353088  0.99587349  1
  O  O257  1  0.74279825  0.62149743  0.48605243  1
  O  O258  1  0.74707198  0.63043217  0.99169838  1
  O  O259  1  0.25564924  0.36117714  -0.00626251  1
  O  O260  1  0.26477906  0.37690661  0.49525664  1
  O  O261  1  0.25387183  0.87291386  0.00432677  1
  O  O262  1  0.23989517  0.86548388  0.50917493  1
  O  O263  1  0.75891817  0.36863627  0.00313813  1
  O  O264  1  0.76034296  0.36558151  0.49933083  1
  O  O265  1  0.74937709  0.86630779  0.00254585  1
  O  O266  1  0.76201458  0.88167293  0.51213419  1
  O  O267  1  0.13243314  0.49228339  0.24268136  1
  O  O268  1  0.13329445  0.49189104  0.74305306  1
  O  O269  1  0.11529693  0.99669334  0.23602946  1
  O  O270  1  0.12595270  0.98791672  0.74855831  1
  O  O271  1  0.63580994  0.49466506  0.24497577  1
  O  O272  1  0.63315447  0.49256816  0.74248157  1
  O  O273  1  0.63400019  1.01455087  0.23969555  1
  O  O274  1  0.62226084  0.98504907  0.74422497  1
  O  O275  1  0.38080155  0.00268538  0.26467490  1
  O  O276  1  0.36384465  -0.00768770  0.75360919  1
  O  O277  1  0.36843496  0.50216361  0.25284394  1
  O  O278  1  0.36346715  0.49064644  0.76188605  1
  O  O279  1  0.86832131  0.00963676  0.25392276  1
  O  O280  1  0.87631091  0.01298133  0.75160896  1
  O  O281  1  0.86514362  0.50314892  0.25147385  1
  O  O282  1  0.86744563  0.49096491  0.75770915  1
  O  O283  1  0.11986241  0.36777404  0.36868269  1
  O  O284  1  0.12080420  0.36783286  0.86788183  1
  O  O285  1  0.11643961  0.86856685  0.37343308  1
  O  O286  1  0.11659505  0.87187247  0.86411671  1
  O  O287  1  0.62064929  0.36463026  0.37263735  1
  O  O288  1  0.62972780  0.37675485  0.86056418  1
  O  O289  1  0.63503851  0.89072970  0.35771742  1
  O  O290  1  0.61238840  0.87728547  0.86759830  1
  O  O291  1  0.38537194  0.12685305  0.12562012  1
  O  O292  1  0.37302235  0.13794432  0.61426212  1
  O  O293  1  0.36969334  0.63496093  0.12736405  1
  O  O294  1  0.37572945  0.63885758  0.62203939  1
  O  O295  1  0.88376598  0.12707009  0.13473571  1
  O  O296  1  0.86739633  0.12752977  0.64465683  1
  O  O297  1  0.88411345  0.63281689  0.12387376  1
  O  O298  1  0.88506156  0.63275246  0.61517857  1
  O  O299  1  0.24992131  0.23851425  0.11005315  1
  O  O300  1  0.27065012  0.25437297  0.63683297  1
  O  O301  1  0.25551942  0.75882268  0.11868710  1
  O  O302  1  0.25359734  0.75371843  0.61813097  1
  O  O303  1  0.75080926  0.25517576  0.11386431  1
  O  O304  1  0.75027734  0.25379178  0.61486652  1
  O  O305  1  0.76146796  0.74962077  0.11712849  1
  O  O306  1  0.75865268  0.75918960  0.63245440  1
  O  O307  1  0.23869828  0.24159796  0.37407124  1
  O  O308  1  0.24516819  0.24279796  0.87654278  1
  O  O309  1  0.24289202  0.74661373  0.38139661  1
  O  O310  1  0.24976578  0.74092695  0.87873588  1
  O  O311  1  0.74103455  0.24902517  0.38492537  1
  O  O312  1  0.74748520  0.24533535  0.88593456  1
  O  O313  1  0.75087819  0.73763088  0.37030752  1
  O  O314  1  0.75887722  0.73565780  0.88190820  1
  O  O315  1  -0.00064161  0.12017218  0.00910478  1
  O  O316  1  0.01216239  0.11622348  0.49568583  1
  O  O317  1  0.01215263  0.62752577  0.00795860  1
  O  O318  1  0.00665921  0.62211397  0.51007542  1
  O  O319  1  0.50166531  0.12098637  0.00486827  1
  O  O320  1  0.50459024  0.10494569  0.49583231  1
  O  O321  1  0.50367803  0.63258512  0.00728837  1
  O  O322  1  0.50912257  0.61904607  0.49886175  1
  O  O323  1  0.49413875  0.38338053  0.49539025  1
  O  O324  1  0.48874871  0.36962650  0.99758420  1
  O  O325  1  0.50751763  0.89108053  0.49078673  1
  O  O326  1  0.49176582  0.88088949  0.99417857  1
  O  O327  1  0.99552363  0.37272147  0.49151686  1
  O  O328  1  0.99305092  0.36732927  0.98806252  1
  O  O329  1  0.99231231  0.88199549  0.49412660  1
  O  O330  1  0.99964815  0.89043843  0.99922551  1
  O  O331  1  0.49526082  0.49536406  0.37733956  1
  O  O332  1  0.48214998  0.50795796  0.86791921  1
  O  O333  1  0.48593238  0.99636654  0.38314556  1
  O  O334  1  0.50301740  0.99179479  0.88806451  1
  O  O335  1  1.00135877  0.48786318  0.37562535  1
  O  O336  1  0.99454975  0.48847753  0.86585298  1
  O  O337  1  0.99357124  0.99054692  0.38452051  1
  O  O338  1  1.00619586  1.00777462  0.89232795  1
  O  O339  1  0.00494960  0.00789934  0.11805174  1
  O  O340  1  -0.00422361  -0.00599381  0.61285553  1
  O  O341  1  0.01273181  0.50848588  0.12728446  1
  O  O342  1  0.01148060  0.50659892  0.62661914  1
  O  O343  1  0.50368109  0.00878710  0.11776303  1
  O  O344  1  0.50567098  -0.01068514  0.61406534  1
  O  O345  1  0.51852386  0.49945828  0.13393644  1
  O  O346  1  0.50978149  0.50505857  0.62003992  1
  O  O347  1  0.24064824  0.38298643  0.25716288  1
  O  O348  1  0.23934150  0.38354560  0.75824004  1
  O  O349  1  0.24885260  0.87263725  0.23375104  1
  O  O350  1  0.24287667  0.88488410  0.74676533  1
  O  O351  1  0.74739573  0.38071938  0.24678923  1
  O  O352  1  0.74166916  0.38465340  0.74871237  1
  O  O353  1  0.75918297  0.89239594  0.24152170  1
  O  O354  1  0.74107548  0.87294182  0.74563529  1
  O  O355  1  0.24947057  0.12427851  0.26448065  1
  O  O356  1  0.24693125  0.10854811  0.75455468  1
  O  O357  1  0.25438593  0.61638591  0.25417250  1
  O  O358  1  0.24128225  0.61535603  0.76041737  1
  O  O359  1  0.76034521  0.12033927  0.24960948  1
  O  O360  1  0.76027983  0.12525660  0.76081028  1
  O  O361  1  0.75047042  0.61778935  0.26342500  1
  O  O362  1  0.74568223  0.61202985  0.75685478  1
  O  O363  1  0.36413710  0.11862373  0.37762899  1
  O  O364  1  0.36476603  0.12872083  0.87625543  1
  O  O365  1  0.36909780  0.61847338  0.36893213  1
  O  O366  1  0.36063443  0.61095669  0.88514927  1
  O  O367  1  0.87857402  0.12154577  0.36469560  1
  O  O368  1  0.86457177  0.13185709  0.86510138  1
  O  O369  1  0.86336776  0.62432706  0.37663510  1
  O  O370  1  0.86924606  0.61009205  0.88164924  1
  O  O371  1  0.11817842  0.38194085  0.13572008  1
  O  O372  1  0.12086276  0.38454983  0.63383835  1
  O  O373  1  0.13088911  0.88052844  0.12608699  1
  O  O374  1  0.13752200  0.86637599  0.63389503  1
  O  O375  1  0.63246253  0.38354795  0.13215080  1
  O  O376  1  0.62773932  0.38751630  0.63233004  1
  O  O377  1  0.62092133  0.89175518  0.12089436  1
  O  O378  1  0.63215844  0.88096172  0.63247523  1
  O  O379  1  0.12170453  0.25717630  0.25686191  1
  O  O380  1  0.12263570  0.25528547  0.75561021  1
  O  O381  1  0.13086031  0.75037682  0.26420023  1
  O  O382  1  0.11664995  0.75814871  0.75091528  1
  O  O383  1  0.62100779  0.25446403  0.25847266  1
  O  O384  1  0.61523662  0.26405786  0.74520848  1
  O  O385  1  0.60860054  0.74577085  0.23730768  1
  O  O386  1  0.61368628  0.76294740  0.74136554  1
  O  O387  1  0.38168417  0.24826108  0.24894963  1
  O  O388  1  0.38816361  0.25316414  0.74043936  1
  O  O389  1  0.37587626  0.74403499  0.23970808  1
  O  O390  1  0.38248017  0.75359349  0.74223089  1
  O  O391  1  0.88068196  0.24249377  0.24916450  1
  O  O392  1  0.88405258  0.24603937  0.74974587  1
  O  O393  1  0.86709220  0.74974927  0.23262530  1
  O  O394  1  0.88662923  0.75259184  0.73513906  1
  O  O395  1  0.37953318  0.49257994  0.49499318  1
  O  O396  1  0.36814822  0.48733582  0.98931089  1
  O  O397  1  0.38451082  0.99960817  0.49514224  1
  O  O398  1  0.38370430  0.99130709  1.00792316  1
  O  O399  1  0.87831176  0.48679690  0.49751527  1
  O  O400  1  0.86933595  0.48724537  0.99020864  1
  O  O401  1  0.88088784  0.99330002  0.49746609  1
  O  O402  1  0.88875434  1.00080940  1.00826202  1
  O  O403  1  0.11285549  0.00339420  0.01164634  1
  O  O404  1  0.11609220  0.01159906  0.49613252  1
  O  O405  1  0.13510896  0.50688082  0.01059475  1
  O  O406  1  0.12660239  0.50390630  0.50805346  1
  O  O407  1  0.61378085  0.00749949  0.00820233  1
  O  O408  1  0.62113085  0.00327179  0.51369389  1
  O  O409  1  0.63259533  0.49658958  0.01588200  1
  O  O410  1  0.62177241  0.50377962  0.50698631  1
  O  O411  1  0.37636642  0.37762512  0.10950088  1
  O  O412  1  0.37580457  0.37851775  0.61196688  1
  O  O413  1  0.36653911  0.87048495  0.11540035  1
  O  O414  1  0.35850693  0.86150716  0.62814915  1
  O  O415  1  0.87332508  0.37499740  0.11613646  1
  O  O416  1  0.87772337  0.37056328  0.61367915  1
  O  O417  1  0.87689137  0.86344980  0.11970716  1
  O  O418  1  0.86715931  0.86834990  0.62135536  1
  O  O419  1  0.12993222  0.13114982  0.37686743  1
  O  O420  1  0.13136776  0.13767253  0.87237896  1
  O  O421  1  0.12837794  0.63112650  0.37884757  1
  O  O422  1  0.13330148  0.62254160  0.88374601  1
  O  O423  1  0.62446550  0.13792743  0.37586919  1
  O  O424  1  0.63430338  0.13081092  0.88112293  1
  O  O425  1  0.63693151  0.62184748  0.38218123  1
  O  O426  1  0.64120706  0.61306027  0.87800185  1
