# generated using pymatgen
data_V85Zn86O256
_symmetry_space_group_name_H-M   'P 1'
_cell_length_a   16.98391388
_cell_length_b   16.98731624
_cell_length_c   16.97796208
_cell_angle_alpha   89.93751335
_cell_angle_beta   90.07643820
_cell_angle_gamma   89.95397710
_symmetry_Int_Tables_number   1
_chemical_formula_structural   V85Zn86O256
_chemical_formula_sum   'V85 Zn86 O256'
_cell_volume   4898.32193240
_cell_formula_units_Z   1
loop_
 _symmetry_equiv_pos_site_id
 _symmetry_equiv_pos_as_xyz
  1  'x, y, z'
loop_
 _atom_site_type_symbol
 _atom_site_label
 _atom_site_symmetry_multiplicity
 _atom_site_fract_x
 _atom_site_fract_y
 _atom_site_fract_z
 _atom_site_occupancy
  V  V0  1  0.50784027  0.37615473  0.87411985  1
  V  V1  1  0.50783968  0.25364587  0.75305064  1
  V  V2  1  0.00850397  0.75097672  0.75191050  1
  V  V3  1  0.74870289  0.62655997  0.36866722  1
  V  V4  1  0.74338884  0.37831879  0.13940503  1
  V  V5  1  0.12218084  -0.00147125  0.62375411  1
  V  V6  1  0.12515351  0.37482610  0.24847474  1
  V  V7  1  0.73802327  0.37881405  0.62485616  1
  V  V8  1  0.75065581  0.87893820  0.62569902  1
  V  V9  1  0.50181082  0.00475571  0.00441353  1
  V  V10  1  0.14024786  0.24989718  0.37932814  1
  V  V11  1  0.25272462  0.24894446  0.00053488  1
  V  V12  1  0.37268468  0.01317980  0.37981837  1
  V  V13  1  0.24607632  -0.00558947  0.75241747  1
  V  V14  1  0.24229001  0.62377163  0.37219347  1
  V  V15  1  0.25171734  0.37146931  0.12183934  1
  V  V16  1  0.12457788  -0.00687787  0.13069567  1
  V  V17  1  0.87518856  -0.00193576  0.87668691  1
  V  V18  1  0.50275811  0.63907978  0.13414964  1
  V  V19  1  0.00092665  0.24989876  0.74988997  1
  V  V20  1  0.88320301  0.88127892  0.48657998  1
  V  V21  1  0.62650070  0.00762981  0.12496764  1
  V  V22  1  0.50028985  0.51003899  0.49551251  1
  V  V23  1  0.37168475  0.25342449  0.62110607  1
  V  V24  1  0.49934143  0.87403159  0.87668976  1
  V  V25  1  -0.00151012  0.63299935  0.11824041  1
  V  V26  1  0.36902777  0.49774593  0.37019125  1
  V  V27  1  -0.00015425  0.12432883  0.12546947  1
  V  V28  1  0.75056158  0.74971956  0.49687595  1
  V  V29  1  0.37586218  0.37074096  0.00353366  1
  V  V30  1  0.62677355  0.87855380  0.74691472  1
  V  V31  1  -0.00155707  0.50317635  0.50169941  1
  V  V32  1  0.24998381  0.49585613  0.74572277  1
  V  V33  1  0.25188082  0.74805852  0.00542261  1
  V  V34  1  0.12461849  0.24987898  0.87387350  1
  V  V35  1  0.25012842  0.50204326  0.24547085  1
  V  V36  1  0.87001404  0.50083149  0.36615752  1
  V  V37  1  0.62882602  0.24650374  0.37246125  1
  V  V38  1  0.74785887  0.12454699  0.87951054  1
  V  V39  1  0.37394929  0.87688095  0.50146694  1
  V  V40  1  0.24928488  0.00275839  0.25492033  1
  V  V41  1  0.87515647  0.12392765  0.26459219  1
  V  V42  1  0.50550667  0.00025849  0.50717847  1
  V  V43  1  0.00688779  0.87424133  0.87226053  1
  V  V44  1  0.37682260  0.12231356  0.75304012  1
  V  V45  1  0.49997953  0.24531713  0.23793005  1
  V  V46  1  0.25801782  0.87124050  0.13031406  1
  V  V47  1  0.75446222  0.25426839  0.00190498  1
  V  V48  1  0.62316231  0.87476302  0.25103078  1
  V  V49  1  0.87544738  0.63340529  0.24551307  1
  V  V50  1  0.00193318  0.25019870  0.25004044  1
  V  V51  1  0.12378518  0.50405834  0.11481439  1
  V  V52  1  0.12615763  0.12412390  0.00173616  1
  V  V53  1  0.11690900  0.76633345  0.36980533  1
  V  V54  1  0.87487697  0.12347952  0.74875587  1
  V  V55  1  0.50932205  0.50616023  0.01071276  1
  V  V56  1  -0.00015463  0.37560203  0.37336695  1
  V  V57  1  0.50869993  0.12160722  0.62866081  1
  V  V58  1  0.87498417  0.24989393  0.62251173  1
  V  V59  1  0.24454670  0.87214845  0.62993608  1
  V  V60  1  0.74888987  -0.00005961  0.74912103  1
  V  V61  1  0.87633373  0.25546060  0.12325919  1
  V  V62  1  0.37534883  0.50102302  0.87784356  1
  V  V63  1  0.63400520  0.73889147  0.87842172  1
  V  V64  1  0.75364740  0.73845210  0.00366138  1
  V  V65  1  -0.00840801  0.49566125  -0.00296762  1
  V  V66  1  0.87325922  0.87250485  0.01054202  1
  V  V67  1  0.13929202  0.13066174  0.49883200  1
  V  V68  1  0.37691202  0.62428291  0.74455978  1
  V  V69  1  -0.00856366  0.37500965  0.87750049  1
  V  V70  1  0.24991184  0.12318730  0.87584977  1
  V  V71  1  0.37652700  0.74693636  0.62252307  1
  V  V72  1  0.50136633  0.87479988  0.37390498  1
  V  V73  1  0.75590581  0.00648183  0.26426715  1
  V  V74  1  0.00055456  0.12314471  0.62332046  1
  V  V75  1  0.62958204  0.12294356  0.49743953  1
  V  V76  1  0.37722167  0.12686155  0.22829535  1
  V  V77  1  0.49576147  0.36932641  0.37169909  1
  V  V78  1  0.86379931  0.61934968  0.75882611  1
  V  V79  1  0.87745944  0.74772698  0.62727481  1
  V  V80  1  0.24200418  0.62436960  0.88233024  1
  V  V81  1  0.00031831  -0.00147751  0.00237941  1
  V  V82  1  0.50126343  0.74596504  0.74608121  1
  V  V83  1  0.24638289  0.74828355  0.49979125  1
  V  V84  1  0.86898894  0.37489011  0.49900438  1
  Zn  Zn85  1  0.62031379  0.13020263  0.00578221  1
  Zn  Zn86  1  0.36797096  0.65962438  0.23302503  1
  Zn  Zn87  1  0.12387004  0.37634810  0.74895449  1
  Zn  Zn88  1  0.00018273  0.00165907  0.47875987  1
  Zn  Zn89  1  0.69173627  0.45092051  0.78686621  1
  Zn  Zn90  1  0.63368686  0.50035857  0.16271271  1
  Zn  Zn91  1  0.12009185  0.62581607  0.50142908  1
  Zn  Zn92  1  0.75269436  0.87472748  0.12707248  1
  Zn  Zn93  1  0.12494707  0.74817841  0.88034103  1
  Zn  Zn94  1  0.36617725  0.37001481  0.49569619  1
  Zn  Zn95  1  0.12445179  0.49787885  0.62311583  1
  Zn  Zn96  1  0.62977310  0.25475913  0.87551176  1
  Zn  Zn97  1  0.61205868  0.63326707  0.49892865  1
  Zn  Zn98  1  0.38269444  0.86843860  0.01107975  1
  Zn  Zn99  1  0.62465495  0.75153405  0.36926194  1
  Zn  Zn100  1  0.37447101  -0.00464982  0.88008820  1
  Zn  Zn101  1  0.85943352  0.49902872  0.87567014  1
  Zn  Zn102  1  0.61701683  0.51352055  0.63342922  1
  Zn  Zn103  1  -0.00032925  0.76216177  0.24830166  1
  Zn  Zn104  1  0.00193643  0.62205236  0.62902812  1
  Zn  Zn105  1  0.24037200  0.36582830  0.61864625  1
  Zn  Zn106  1  0.75482178  0.24082453  0.49400233  1
  Zn  Zn107  1  0.18928769  0.18620515  0.18949263  1
  Zn  Zn108  1  0.18698085  0.18338830  0.68855393  1
  Zn  Zn109  1  0.18161483  0.68961952  0.18818505  1
  Zn  Zn110  1  0.18728067  0.67878447  0.68723801  1
  Zn  Zn111  1  0.68948007  0.18672096  0.18991512  1
  Zn  Zn112  1  0.69095100  0.19176853  0.68544228  1
  Zn  Zn113  1  0.68346029  0.68637542  0.18296920  1
  Zn  Zn114  1  0.68544831  0.68712058  0.68262194  1
  Zn  Zn115  1  0.31655584  0.31109235  0.30282399  1
  Zn  Zn116  1  0.31674317  0.31198281  0.81190626  1
  Zn  Zn117  1  0.30629718  0.82123116  0.31667086  1
  Zn  Zn118  1  0.31266329  0.80749882  0.81549493  1
  Zn  Zn119  1  0.81456575  0.30859498  0.31236753  1
  Zn  Zn120  1  0.81308605  0.31080842  0.80943097  1
  Zn  Zn121  1  0.80958002  0.81366885  0.30680266  1
  Zn  Zn122  1  0.81739703  0.81063725  0.81589506  1
  Zn  Zn123  1  0.18623319  0.43411318  0.43936041  1
  Zn  Zn124  1  0.18352109  0.43644229  0.93384067  1
  Zn  Zn125  1  0.18752938  0.94185700  0.43970380  1
  Zn  Zn126  1  0.18996612  0.93356689  0.94442035  1
  Zn  Zn127  1  0.66193205  0.45647494  0.37336896  1
  Zn  Zn128  1  0.69320042  0.43894139  0.95838153  1
  Zn  Zn129  1  0.68908956  0.93778617  0.44035285  1
  Zn  Zn130  1  0.68675856  0.93336818  0.93806341  1
  Zn  Zn131  1  0.31274261  0.05468140  0.06025562  1
  Zn  Zn132  1  0.31629151  0.06259420  0.56858020  1
  Zn  Zn133  1  0.31888129  0.56466340  0.06404182  1
  Zn  Zn134  1  0.31410479  0.55943056  0.55615870  1
  Zn  Zn135  1  0.81384334  0.06134776  0.06963745  1
  Zn  Zn136  1  0.81406569  0.05941929  0.56062833  1
  Zn  Zn137  1  0.81405210  0.55810678  0.06405647  1
  Zn  Zn138  1  0.80780752  0.56240715  0.56156563  1
  Zn  Zn139  1  0.43880256  0.43635238  0.18999487  1
  Zn  Zn140  1  0.44573759  0.43941771  0.68630408  1
  Zn  Zn141  1  0.43952179  0.94071105  0.18969376  1
  Zn  Zn142  1  0.43578042  0.93403832  0.68884663  1
  Zn  Zn143  1  0.93690462  0.43914431  0.18514765  1
  Zn  Zn144  1  0.93387029  0.43569954  0.68816773  1
  Zn  Zn145  1  0.95019819  0.93406541  0.29785353  1
  Zn  Zn146  1  0.93709455  0.93435227  0.68800797  1
  Zn  Zn147  1  0.06856418  0.07078916  0.31428604  1
  Zn  Zn148  1  0.06270570  0.06141241  0.81274307  1
  Zn  Zn149  1  0.05872645  0.56291202  0.30650129  1
  Zn  Zn150  1  0.05868651  0.56278844  0.80995662  1
  Zn  Zn151  1  0.56078305  0.06225209  0.31201795  1
  Zn  Zn152  1  0.56421127  0.06030332  0.81636683  1
  Zn  Zn153  1  0.55490979  0.57366793  0.31188834  1
  Zn  Zn154  1  0.56074400  0.56295131  0.81597487  1
  Zn  Zn155  1  0.44231624  0.18812268  0.43935027  1
  Zn  Zn156  1  0.43826600  0.18805878  0.93728274  1
  Zn  Zn157  1  0.42148774  0.69964740  0.40916877  1
  Zn  Zn158  1  0.43655526  0.68784336  0.94055928  1
  Zn  Zn159  1  0.95048467  0.18949953  0.44084409  1
  Zn  Zn160  1  0.93690143  0.18674934  0.93797329  1
  Zn  Zn161  1  0.93514170  0.68860630  0.43578517  1
  Zn  Zn162  1  0.93585633  0.68673789  0.93711922  1
  Zn  Zn163  1  0.06365875  0.31347547  0.05976478  1
  Zn  Zn164  1  0.06257867  0.31457920  0.56169442  1
  Zn  Zn165  1  0.06697992  0.81625249  0.06103654  1
  Zn  Zn166  1  0.06200692  0.81054506  0.56046366  1
  Zn  Zn167  1  0.56907444  0.31640586  0.06056125  1
  Zn  Zn168  1  0.55686031  0.31107877  0.55471992  1
  Zn  Zn169  1  0.57212702  0.81687302  0.06186896  1
  Zn  Zn170  1  0.56318532  0.81251940  0.56242069  1
  O  O171  1  0.12159568  0.11996758  0.11935564  1
  O  O172  1  0.12067173  0.11791289  0.61919535  1
  O  O173  1  0.10994091  0.61299498  0.13206004  1
  O  O174  1  0.12029592  0.61647137  0.61948077  1
  O  O175  1  0.62890265  0.11269367  0.12462112  1
  O  O176  1  0.61363890  0.13179534  0.61844833  1
  O  O177  1  0.60944360  0.61274418  0.13583457  1
  O  O178  1  0.63796330  0.62073584  0.60735081  1
  O  O179  1  0.37738877  0.37975339  0.37289489  1
  O  O180  1  0.38239223  0.38365376  0.88368760  1
  O  O181  1  0.38343962  0.89070927  0.38410784  1
  O  O182  1  0.39110120  0.87394512  0.87060872  1
  O  O183  1  0.87735288  0.38147486  0.37894657  1
  O  O184  1  0.88837735  0.37582501  0.86821023  1
  O  O185  1  0.87659698  0.87208078  0.38485236  1
  O  O186  1  0.88503946  0.88151970  0.88090829  1
  O  O187  1  0.26023411  -0.00457644  0.36651831  1
  O  O188  1  0.25062609  0.00208850  0.86800264  1
  O  O189  1  0.24999151  0.50360669  0.36559475  1
  O  O190  1  0.25945931  0.50371299  0.87110660  1
  O  O191  1  0.74363618  0.00258317  0.36269294  1
  O  O192  1  0.75487872  0.00659743  0.87027729  1
  O  O193  1  0.76132267  0.51355670  0.38188474  1
  O  O194  1  0.74884312  0.48287390  0.87485443  1
  O  O195  1  0.24216461  0.49422763  0.12458354  1
  O  O196  1  0.25571666  0.50113911  0.63946513  1
  O  O197  1  0.24428649  0.99324524  0.13243894  1
  O  O198  1  0.24408038  0.99175151  0.63290044  1
  O  O199  1  0.75055093  0.48242751  0.12066071  1
  O  O200  1  0.74605132  0.48214332  0.61619265  1
  O  O201  1  0.74197015  0.99711983  0.13382634  1
  O  O202  1  0.75632083  0.98613065  0.63203456  1
  O  O203  1  0.00578157  0.37058277  0.25283284  1
  O  O204  1  0.00046363  0.36749031  0.75803491  1
  O  O205  1  -0.01185071  0.86821737  0.22153455  1
  O  O206  1  -0.00768721  0.86407348  0.76137988  1
  O  O207  1  0.48774522  0.35496091  0.25828801  1
  O  O208  1  0.48939986  0.36386369  0.76336011  1
  O  O209  1  0.51007770  0.88826811  0.26383677  1
  O  O210  1  0.50763589  0.86735145  0.75477624  1
  O  O211  1  0.48677805  0.13199052  0.25174374  1
  O  O212  1  0.49549069  0.12790508  0.74749249  1
  O  O213  1  0.49224135  0.63264342  0.23891621  1
  O  O214  1  0.48767282  0.63633348  0.75855766  1
  O  O215  1  0.99428260  0.13174694  0.24363695  1
  O  O216  1  0.99395457  0.12896789  0.74507115  1
  O  O217  1  0.99293111  0.62931651  0.23732127  1
  O  O218  1  0.98854489  0.63453755  0.74867324  1
  O  O219  1  0.37039514  0.26290145  -0.00623963  1
  O  O220  1  0.38113964  0.24489927  0.51882543  1
  O  O221  1  0.36087868  0.75392075  -0.00544488  1
  O  O222  1  0.36653577  0.75661708  0.50294889  1
  O  O223  1  0.86758263  0.24070659  0.01333176  1
  O  O224  1  0.87716521  0.25719416  0.50269515  1
  O  O225  1  0.86036919  0.75833166  -0.01085653  1
  O  O226  1  0.86997808  0.76129726  0.50624692  1
  O  O227  1  0.11954111  0.24303846  0.49150824  1
  O  O228  1  0.13200259  0.24340902  0.99399997  1
  O  O229  1  0.12812791  0.74698618  0.49007990  1
  O  O230  1  0.14423741  0.75535974  0.99847699  1
  O  O231  1  0.62208209  0.23904061  0.48792040  1
  O  O232  1  0.63724958  0.24627373  0.99786091  1
  O  O233  1  0.64186839  0.75597714  0.49903380  1
  O  O234  1  0.63731706  0.75558554  0.98492368  1
  O  O235  1  0.50988536  0.25384678  0.13985791  1
  O  O236  1  0.49300159  0.24149690  0.63439250  1
  O  O237  1  0.50942738  0.73637318  0.11339196  1
  O  O238  1  0.49412410  0.75633284  0.63770413  1
  O  O239  1  0.99536782  0.24620729  0.12860044  1
  O  O240  1  0.99444819  0.24314323  0.62988960  1
  O  O241  1  1.00775753  0.73336336  0.11782464  1
  O  O242  1  0.99146268  0.75214017  0.63331315  1
  O  O243  1  0.00869557  0.25871442  0.36739327  1
  O  O244  1  0.00351014  0.25489031  0.87116916  1
  O  O245  1  0.01414926  0.74562907  0.37562578  1
  O  O246  1  0.00250458  0.75658796  0.87031119  1
  O  O247  1  0.50309289  0.25336170  0.36718221  1
  O  O248  1  0.50219662  0.25867657  0.87036637  1
  O  O249  1  0.51055327  0.77296642  0.39555751  1
  O  O250  1  0.50945907  0.75562685  0.86858936  1
  O  O251  1  0.23836297  0.12241828  0.51036765  1
  O  O252  1  0.24749844  0.12817708  0.99544467  1
  O  O253  1  0.24696483  0.62968739  0.49001299  1
  O  O254  1  0.25862907  0.63125002  0.99134006  1
  O  O255  1  0.73479987  0.12258808  0.50768812  1
  O  O256  1  0.75173317  0.13126260  0.99203051  1
  O  O257  1  0.76136160  0.63883999  0.48618300  1
  O  O258  1  0.75849468  0.63909272  1.00335622  1
  O  O259  1  0.25639040  0.37081782  0.00324289  1
  O  O260  1  0.25565576  0.38309004  0.50853223  1
  O  O261  1  0.25678500  0.86950996  0.01205899  1
  O  O262  1  0.25478604  0.87077999  0.51035083  1
  O  O263  1  0.75174966  0.35848424  0.01478142  1
  O  O264  1  0.76431988  0.36853379  0.50634955  1
  O  O265  1  0.75868215  0.86867783  -0.00116782  1
  O  O266  1  0.76075846  0.87086236  0.50580246  1
  O  O267  1  0.12946375  0.49330219  0.23864744  1
  O  O268  1  0.13904799  0.50002087  0.75109808  1
  O  O269  1  0.13992754  1.01524211  0.24000130  1
  O  O270  1  0.13825940  1.00750724  0.73999868  1
  O  O271  1  0.61835273  0.49078995  0.27362233  1
  O  O272  1  0.59922393  0.49003239  0.74221724  1
  O  O273  1  0.63351569  0.99851860  0.24499369  1
  O  O274  1  0.63111393  0.98610697  0.75503910  1
  O  O275  1  0.37280794  0.01426241  0.25773493  1
  O  O276  1  0.36651143  0.00805692  0.74982349  1
  O  O277  1  0.36534794  0.49445747  0.25867148  1
  O  O278  1  0.37401363  0.50573810  0.75859915  1
  O  O279  1  0.86164678  0.00782351  0.25478844  1
  O  O280  1  0.86918806  0.00466575  0.75550121  1
  O  O281  1  0.88041408  0.50881534  0.26059617  1
  O  O282  1  0.87685363  0.51596682  0.74824938  1
  O  O283  1  0.11886944  0.36968817  0.36775775  1
  O  O284  1  0.11580974  0.36607434  0.87128943  1
  O  O285  1  0.12730791  0.86489505  0.37970947  1
  O  O286  1  0.11027883  0.87687135  0.88094565  1
  O  O287  1  0.61030710  0.35353382  0.37731797  1
  O  O288  1  0.61156346  0.37657872  0.88148279  1
  O  O289  1  0.61820537  0.88133022  0.36772246  1
  O  O290  1  0.61758797  0.86610094  0.86458131  1
  O  O291  1  0.37968962  0.12029540  0.13003517  1
  O  O292  1  0.38566751  0.13171468  0.63593272  1
  O  O293  1  0.39189641  0.62207016  0.12785523  1
  O  O294  1  0.36799347  0.63013875  0.63733916  1
  O  O295  1  0.88169338  0.13382997  0.13502314  1
  O  O296  1  0.87988927  0.12841800  0.62835367  1
  O  O297  1  0.88858693  0.61596361  0.13376306  1
  O  O298  1  0.87423409  0.63751789  0.62957927  1
  O  O299  1  0.24301230  0.26393813  0.11801566  1
  O  O300  1  0.26874821  0.24712236  0.63814076  1
  O  O301  1  0.24499093  0.76035261  0.12283338  1
  O  O302  1  0.25360103  0.75554522  0.62220803  1
  O  O303  1  0.75666455  0.25482550  0.12249986  1
  O  O304  1  0.75733809  0.25786077  0.61760418  1
  O  O305  1  0.73973826  0.75504353  0.10710094  1
  O  O306  1  0.76013720  0.75973685  0.61743511  1
  O  O307  1  0.23866103  0.25843738  0.36866281  1
  O  O308  1  0.24648966  0.24311062  0.87967238  1
  O  O309  1  0.23439729  0.74311398  0.38104827  1
  O  O310  1  0.24731054  0.74111102  0.88098172  1
  O  O311  1  0.73262271  0.25176634  0.37359661  1
  O  O312  1  0.75325863  0.24293733  0.88316975  1
  O  O313  1  0.75097398  0.74536852  0.38193009  1
  O  O314  1  0.73894103  0.75289596  0.87943225  1
  O  O315  1  0.00579003  0.11907585  0.00446542  1
  O  O316  1  0.00965273  0.11854090  0.50872323  1
  O  O317  1  -0.00591044  0.61587088  0.01215753  1
  O  O318  1  -0.00520143  0.61390725  0.50120248  1
  O  O319  1  0.50361827  0.11018498  -0.01109004  1
  O  O320  1  0.50723426  0.11786042  0.51052752  1
  O  O321  1  0.49293596  0.60998463  0.00876780  1
  O  O322  1  0.49272267  0.61289222  0.48151406  1
  O  O323  1  0.48944576  0.37560671  0.48396078  1
  O  O324  1  0.49283679  0.38239689  0.99615911  1
  O  O325  1  0.49567262  0.88626769  0.50089938  1
  O  O326  1  0.50302466  0.88075946  0.99094528  1
  O  O327  1  0.98818058  0.38175359  0.49338244  1
  O  O328  1  1.00381936  0.38180304  0.98948129  1
  O  O329  1  0.98501405  0.87704599  0.50559768  1
  O  O330  1  0.99316583  0.87901251  0.99299586  1
  O  O331  1  0.48408144  0.49019782  0.37544364  1
  O  O332  1  0.49127810  0.49547787  0.88750474  1
  O  O333  1  0.49316092  0.99588891  0.38798510  1
  O  O334  1  0.50188675  0.98870169  0.88238415  1
  O  O335  1  0.98981725  0.49546048  0.37960245  1
  O  O336  1  1.00196591  0.49114604  0.88240868  1
  O  O337  1  1.00598755  0.99800108  0.36798391  1
  O  O338  1  0.99586038  0.99447189  0.88075785  1
  O  O339  1  0.01329739  0.00878041  0.11825696  1
  O  O340  1  0.01285591  0.00299286  0.63154461  1
  O  O341  1  0.00605570  0.50161903  0.11548069  1
  O  O342  1  -0.00505962  0.49930299  0.61218434  1
  O  O343  1  0.51043485  -0.00643245  0.11389752  1
  O  O344  1  0.49324591  0.00908954  0.61877373  1
  O  O345  1  0.50278637  0.49755992  0.11673434  1
  O  O346  1  0.49936539  0.49265312  0.59983682  1
  O  O347  1  0.24564058  0.38017315  0.23762344  1
  O  O348  1  0.25269965  0.38537229  0.75006861  1
  O  O349  1  0.25470877  0.89218244  0.24447851  1
  O  O350  1  0.25775838  0.88232202  0.74140449  1
  O  O351  1  0.75160751  0.36972980  0.23917497  1
  O  O352  1  0.75020478  0.36769228  0.73081067  1
  O  O353  1  0.74446298  0.89019586  0.24928839  1
  O  O354  1  0.74592421  0.87768920  0.74510329  1
  O  O355  1  0.26742174  0.11758025  0.24277270  1
  O  O356  1  0.25890837  0.11501763  0.75536718  1
  O  O357  1  0.25096782  0.61969660  0.25444448  1
  O  O358  1  0.26065779  0.61751130  0.76089549  1
  O  O359  1  0.75946149  0.11436303  0.24760840  1
  O  O360  1  0.75500097  0.12099263  0.75652328  1
  O  O361  1  0.75715076  0.63297962  0.26011222  1
  O  O362  1  0.76527915  0.63353737  0.74616955  1
  O  O363  1  0.37895303  0.11441013  0.37866334  1
  O  O364  1  0.37008168  0.12211433  0.86598645  1
  O  O365  1  0.35585677  0.60720364  0.37789908  1
  O  O366  1  0.36953903  0.61530447  0.86826317  1
  O  O367  1  0.88116523  0.13658028  0.36323568  1
  O  O368  1  0.86677053  0.11905256  0.86982318  1
  O  O369  1  0.86966278  0.61921394  0.36531779  1
  O  O370  1  0.87593474  0.62226315  0.86246671  1
  O  O371  1  0.13289015  0.38307785  0.12721981  1
  O  O372  1  0.12509466  0.37959368  0.63152791  1
  O  O373  1  0.13605566  0.88830059  0.12270796  1
  O  O374  1  0.13599840  0.88325793  0.61898936  1
  O  O375  1  0.63962490  0.37710223  0.12801864  1
  O  O376  1  0.63767260  0.37024918  0.61202214  1
  O  O377  1  0.62679859  0.88741854  0.13586752  1
  O  O378  1  0.63783849  0.86574139  0.63670451  1
  O  O379  1  0.12126829  0.25441229  0.25640633  1
  O  O380  1  0.11814807  0.24615485  0.75723247  1
  O  O381  1  0.12281138  0.74963766  0.26609820  1
  O  O382  1  0.11177402  0.74287024  0.75141492  1
  O  O383  1  0.61050495  0.23435211  0.26314509  1
  O  O384  1  0.61190134  0.24508896  0.75317898  1
  O  O385  1  0.63464808  0.77085084  0.25023497  1
  O  O386  1  0.61951830  0.75609927  0.75780585  1
  O  O387  1  0.38367390  0.23450878  0.24758875  1
  O  O388  1  0.38585135  0.23784403  0.74722709  1
  O  O389  1  0.38162510  0.74266922  0.30358443  1
  O  O390  1  0.38179036  0.74272742  0.74502606  1
  O  O391  1  0.88180545  0.24311861  0.24276596  1
  O  O392  1  0.88105891  0.24169111  0.74284511  1
  O  O393  1  0.87779089  0.73693602  0.25411215  1
  O  O394  1  0.88268331  0.74272224  0.74436711  1
  O  O395  1  0.38255541  0.49533038  0.48739493  1
  O  O396  1  0.38081464  0.49001237  0.99296624  1
  O  O397  1  0.38278192  0.99798492  0.49825748  1
  O  O398  1  0.38691904  0.99234939  0.99820542  1
  O  O399  1  0.87986913  0.49322245  0.48974166  1
  O  O400  1  0.88769122  0.50070460  0.99502589  1
  O  O401  1  0.87655809  0.98446991  0.50207412  1
  O  O402  1  0.88069158  0.99412360  0.99604691  1
  O  O403  1  0.12245109  0.00559311  0.00969538  1
  O  O404  1  0.12412526  0.00835719  0.51059605  1
  O  O405  1  0.11675259  0.49641325  0.00915419  1
  O  O406  1  0.10751090  0.49935145  0.49653590  1
  O  O407  1  0.61996658  -0.00027485  0.00777925  1
  O  O408  1  0.61321866  0.00669438  0.49701087  1
  O  O409  1  0.60811503  0.49855156  0.00238066  1
  O  O410  1  0.60140711  0.49732695  0.47685871  1
  O  O411  1  0.36267893  0.38335467  0.11446848  1
  O  O412  1  0.38073795  0.35718318  0.62959355  1
  O  O413  1  0.36367022  0.87911024  0.13020023  1
  O  O414  1  0.36548865  0.86828702  0.62103739  1
  O  O415  1  0.86773884  0.36118891  0.13194104  1
  O  O416  1  0.86922192  0.36881671  0.61632653  1
  O  O417  1  0.87387424  0.87406689  0.10901259  1
  O  O418  1  0.86738986  0.86528595  0.62196956  1
  O  O419  1  0.12552148  0.13811725  0.38639669  1
  O  O420  1  0.13050039  0.12854591  0.88183163  1
  O  O421  1  0.13458338  0.62282979  0.37466188  1
  O  O422  1  0.13936286  0.62224285  0.87237132  1
  O  O423  1  0.61436606  0.13477586  0.38606722  1
  O  O424  1  0.64042557  0.12587293  0.87535352  1
  O  O425  1  0.63514118  0.63278176  0.37966641  1
  O  O426  1  0.62194704  0.64078913  0.87195631  1
