# generated using pymatgen
data_V85Zn86O256
_symmetry_space_group_name_H-M   'P 1'
_cell_length_a   17.01017382
_cell_length_b   17.02197984
_cell_length_c   17.05350435
_cell_angle_alpha   90.00741751
_cell_angle_beta   90.03531275
_cell_angle_gamma   90.16981786
_symmetry_Int_Tables_number   1
_chemical_formula_structural   V85Zn86O256
_chemical_formula_sum   'V85 Zn86 O256'
_cell_volume   4937.76555683
_cell_formula_units_Z   1
loop_
 _symmetry_equiv_pos_site_id
 _symmetry_equiv_pos_as_xyz
  1  'x, y, z'
loop_
 _atom_site_type_symbol
 _atom_site_label
 _atom_site_symmetry_multiplicity
 _atom_site_fract_x
 _atom_site_fract_y
 _atom_site_fract_z
 _atom_site_occupancy
  V  V0  1  0.00127658  0.49699437  0.50274074  1
  V  V1  1  0.00164464  0.24531966  0.74549879  1
  V  V2  1  0.37475655  0.86662079  0.00207729  1
  V  V3  1  0.24632129  0.62522282  0.87941310  1
  V  V4  1  0.24236965  0.12318770  0.88264318  1
  V  V5  1  0.24803061  0.49182711  0.24026720  1
  V  V6  1  0.50061559  0.87448709  0.87421567  1
  V  V7  1  0.62223529  0.74858651  0.88485004  1
  V  V8  1  0.50070012  0.75031963  0.25010115  1
  V  V9  1  0.37203376  0.87277601  0.50049773  1
  V  V10  1  0.75573160  0.49965781  0.25357139  1
  V  V11  1  0.75333085  0.62222193  0.88209162  1
  V  V12  1  0.62560988  0.50373250  0.61871692  1
  V  V13  1  -0.00314076  0.38042790  0.87224199  1
  V  V14  1  0.49178218  0.25653775  0.23774723  1
  V  V15  1  0.74541709  0.37740902  0.62197796  1
  V  V16  1  0.62561444  0.74652225  0.38008524  1
  V  V17  1  0.62595252  0.37590412  0.24937120  1
  V  V18  1  0.75050897  0.87409880  0.12242974  1
  V  V19  1  0.75628610  0.50367993  0.75007026  1
  V  V20  1  0.87248806  0.36686691  0.50285472  1
  V  V21  1  0.25914861  -0.00610834  0.25689550  1
  V  V22  1  0.84042528  0.22906129  0.65860008  1
  V  V23  1  0.01009950  0.36618281  0.37108871  1
  V  V24  1  0.49783471  0.87786262  0.37941295  1
  V  V25  1  0.75304827  0.37583943  0.12525864  1
  V  V26  1  0.37575095  0.50318486  0.37512335  1
  V  V27  1  0.49159681  0.12713356  0.63046785  1
  V  V28  1  0.12630449  0.50052425  0.62228143  1
  V  V29  1  0.10989157  0.87039524  0.25333553  1
  V  V30  1  0.49949621  0.37656728  0.37112453  1
  V  V31  1  0.74294690  0.25165247  0.49365221  1
  V  V32  1  0.00533143  0.00418220  0.49528222  1
  V  V33  1  0.00667853  0.00595906  -0.00207689  1
  V  V34  1  0.24267102  -0.00803689  0.75125961  1
  V  V35  1  0.62924754  0.12461026  -0.00574216  1
  V  V36  1  0.00101288  0.50408979  0.00066429  1
  V  V37  1  0.49432612  0.13009265  0.12427439  1
  V  V38  1  0.74784924  0.62379675  0.38001405  1
  V  V39  1  0.75225550  0.24518010  -0.00435877  1
  V  V40  1  0.62618226  0.50700047  0.12039516  1
  V  V41  1  0.74664725  0.00079644  0.25051892  1
  V  V42  1  0.25285701  0.86826104  0.12718174  1
  V  V43  1  0.12418203  0.49956724  0.12214923  1
  V  V44  1  0.62032467  0.25585691  0.87640224  1
  V  V45  1  0.49976682  -0.00005710  0.00017109  1
  V  V46  1  0.37413863  0.62557284  0.75477695  1
  V  V47  1  0.49962669  0.50127358  0.49837882  1
  V  V48  1  0.74329710  0.12258973  0.37296580  1
  V  V49  1  0.37398362  0.00310258  0.87281362  1
  V  V50  1  0.87918173  0.74970787  0.62204183  1
  V  V51  1  0.88046063  0.87537904  0.49505350  1
  V  V52  1  0.25199275  0.74755789  0.00443203  1
  V  V53  1  0.11020727  0.74462704  0.37579648  1
  V  V54  1  0.00493987  0.12664441  0.12139466  1
  V  V55  1  0.74971395  0.75024502  0.50095538  1
  V  V56  1  0.12275010  -0.00573428  0.62706313  1
  V  V57  1  0.87808162  0.24931249  0.12848525  1
  V  V58  1  0.00486621  0.75296441  0.74668934  1
  V  V59  1  0.86553577  0.01407843  0.86145471  1
  V  V60  1  0.50526363  0.62657745  0.62007144  1
  V  V61  1  0.00221725  0.87851686  0.86698327  1
  V  V62  1  0.00348507  0.62226952  0.62276326  1
  V  V63  1  0.50245280  -0.00427923  0.51057420  1
  V  V64  1  0.12389686  0.24528882  0.88255426  1
  V  V65  1  0.25988057  0.36263872  0.62735959  1
  V  V66  1  0.00835324  0.13177430  0.61961691  1
  V  V67  1  0.87315596  0.87642307  -0.00155272  1
  V  V68  1  0.87531540  0.37864458  -0.00647649  1
  V  V69  1  0.62035187  0.12332073  0.50139748  1
  V  V70  1  0.62544072  0.00185178  0.12596175  1
  V  V71  1  0.12635131  0.75382553  0.87116772  1
  V  V72  1  0.87813899  -0.00139894  0.37328062  1
  V  V73  1  0.62483187  0.87743866  0.25177302  1
  V  V74  1  0.37359201  0.74911011  0.62469012  1
  V  V75  1  0.51012483  0.62760831  0.12510088  1
  V  V76  1  0.25131003  0.50178851  0.75313736  1
  V  V77  1  0.24625907  0.74018389  0.49694543  1
  V  V78  1  0.61914956  0.37952955  0.75387449  1
  V  V79  1  0.12723794  0.37481954  0.75055631  1
  V  V80  1  0.40559993  0.38454774  0.00169162  1
  V  V81  1  0.36981120  0.63070074  0.24503637  1
  V  V82  1  0.49099124  0.25294695  0.75144289  1
  V  V83  1  0.87482558  0.49719343  0.37768123  1
  V  V84  1  0.50272632  0.75433323  0.75260363  1
  Zn  Zn85  1  0.18536940  0.18657880  0.04819464  1
  Zn  Zn86  1  0.24204750  0.62103756  0.37637999  1
  Zn  Zn87  1  0.64214538  0.88620318  0.75422551  1
  Zn  Zn88  1  0.75489657  0.88694472  0.63222495  1
  Zn  Zn89  1  0.12738958  0.00232230  0.12706905  1
  Zn  Zn90  1  0.55704693  0.56728534  -0.04183257  1
  Zn  Zn91  1  0.87387415  0.12532384  0.24994385  1
  Zn  Zn92  1  0.33808781  0.33343244  0.47454466  1
  Zn  Zn93  1  0.07857317  0.65860628  0.03593309  1
  Zn  Zn94  1  0.75057880  0.74435978  0.00132295  1
  Zn  Zn95  1  0.62053920  0.24679280  0.37005837  1
  Zn  Zn96  1  0.87938235  0.61890575  0.75219644  1
  Zn  Zn97  1  0.24221199  0.86933845  0.62943698  1
  Zn  Zn98  1  0.36771332  0.13297678  0.24776587  1
  Zn  Zn99  1  0.36733355  0.13637910  0.75128603  1
  Zn  Zn100  1  0.00959467  0.24568002  0.25652075  1
  Zn  Zn101  1  0.19854776  0.19196198  0.44047253  1
  Zn  Zn102  1  0.25710479  0.35154542  0.10672924  1
  Zn  Zn103  1  0.63982304  0.00427346  0.64085809  1
  Zn  Zn104  1  0.89869741  0.74609447  0.12722569  1
  Zn  Zn105  1  0.88955792  0.63965025  0.25032114  1
  Zn  Zn106  1  0.33912731  0.03533516  0.40535457  1
  Zn  Zn107  1  0.18805908  0.18489961  0.21073507  1
  Zn  Zn108  1  0.18588461  0.18260318  0.68970712  1
  Zn  Zn109  1  0.06158720  0.68231612  0.19679400  1
  Zn  Zn110  1  0.18636118  0.68724898  0.68579143  1
  Zn  Zn111  1  0.68540252  0.18706299  0.18415304  1
  Zn  Zn112  1  0.67211775  0.19146138  0.68523810  1
  Zn  Zn113  1  0.72562173  0.66931637  0.16943686  1
  Zn  Zn114  1  0.70868996  0.71701100  0.70817472  1
  Zn  Zn115  1  0.30887038  0.31392819  0.30345476  1
  Zn  Zn116  1  0.30558339  0.31431855  0.90437972  1
  Zn  Zn117  1  0.30843459  0.80995893  0.31562100  1
  Zn  Zn118  1  0.31601026  0.81238276  0.81507734  1
  Zn  Zn119  1  0.81465389  0.31200204  0.31592928  1
  Zn  Zn120  1  0.80514575  0.30626142  0.81027429  1
  Zn  Zn121  1  0.81680626  0.81269382  0.30823984  1
  Zn  Zn122  1  0.81886469  0.81178250  0.81547131  1
  Zn  Zn123  1  0.18937262  0.43634531  0.43835963  1
  Zn  Zn124  1  0.18426157  0.44052197  0.94294413  1
  Zn  Zn125  1  0.18038117  0.92646876  0.43846285  1
  Zn  Zn126  1  0.18745044  0.93596989  0.93816089  1
  Zn  Zn127  1  0.68293443  0.43900365  0.43901511  1
  Zn  Zn128  1  0.68940347  0.43769769  0.93646450  1
  Zn  Zn129  1  0.68826085  0.93633370  0.44164767  1
  Zn  Zn130  1  0.68720342  0.93966996  0.93224610  1
  Zn  Zn131  1  0.31409578  0.05324858  0.06612862  1
  Zn  Zn132  1  0.30608236  0.06675934  0.56978090  1
  Zn  Zn133  1  0.32225899  0.56183861  0.06086598  1
  Zn  Zn134  1  0.31566220  0.55962057  0.56413532  1
  Zn  Zn135  1  0.81717776  0.06070211  0.05754954  1
  Zn  Zn136  1  0.81443837  0.06541384  0.55981560  1
  Zn  Zn137  1  0.82052748  0.56132592  0.06385939  1
  Zn  Zn138  1  0.81575175  0.56402632  0.56286259  1
  Zn  Zn139  1  0.43501622  0.44388924  0.17950982  1
  Zn  Zn140  1  0.43748315  0.43869602  0.69065525  1
  Zn  Zn141  1  0.43967260  0.93477362  0.18439227  1
  Zn  Zn142  1  0.43408072  0.93768561  0.68831973  1
  Zn  Zn143  1  0.94345475  0.43798295  0.18889251  1
  Zn  Zn144  1  0.93338136  0.42643645  0.68360925  1
  Zn  Zn145  1  0.93283317  0.94190947  0.18379468  1
  Zn  Zn146  1  0.93402954  0.94043956  0.68298759  1
  Zn  Zn147  1  0.06461017  0.06155658  0.30592530  1
  Zn  Zn148  1  0.05947455  0.06283437  0.80796615  1
  Zn  Zn149  1  0.06445856  0.55490518  0.31752339  1
  Zn  Zn150  1  0.06439721  0.56499758  0.81242565  1
  Zn  Zn151  1  0.52396169  0.08327389  0.33316600  1
  Zn  Zn152  1  0.56313683  0.06517736  0.81298209  1
  Zn  Zn153  1  0.56595223  0.56519510  0.30862584  1
  Zn  Zn154  1  0.57406151  0.57576610  0.79522870  1
  Zn  Zn155  1  0.37788242  0.18583791  0.43385577  1
  Zn  Zn156  1  0.43731888  0.19147953  0.94077988  1
  Zn  Zn157  1  0.43635709  0.68727842  0.43740969  1
  Zn  Zn158  1  0.40531210  0.50303149  0.88157341  1
  Zn  Zn159  1  0.93281901  0.18488482  0.44045543  1
  Zn  Zn160  1  0.93996646  0.18924939  0.93562914  1
  Zn  Zn161  1  0.93360607  0.68018838  0.43805414  1
  Zn  Zn162  1  0.93080799  0.69286631  0.93254681  1
  Zn  Zn163  1  0.06258711  0.32257687  0.06726553  1
  Zn  Zn164  1  0.07226709  0.31187364  0.55434839  1
  Zn  Zn165  1  0.06535028  0.82527013  0.05923601  1
  Zn  Zn166  1  0.06193263  0.81443662  0.55668409  1
  Zn  Zn167  1  0.56874009  0.31406257  0.06390660  1
  Zn  Zn168  1  0.51913347  0.28913218  0.53968859  1
  Zn  Zn169  1  0.56202721  0.81228633  0.06374193  1
  Zn  Zn170  1  0.56874171  0.81549065  0.56982444  1
  O  O171  1  0.11399816  0.12378372  0.12702115  1
  O  O172  1  0.11625522  0.10993910  0.62849838  1
  O  O173  1  0.12369847  0.60652251  0.12563388  1
  O  O174  1  0.11367083  0.61316690  0.63062391  1
  O  O175  1  0.61780793  0.12099631  0.11286711  1
  O  O176  1  0.61442944  0.12137068  0.61689433  1
  O  O177  1  0.62608023  0.61659055  0.13814444  1
  O  O178  1  0.61006494  0.61445575  0.63652157  1
  O  O179  1  0.38625445  0.39051472  0.36982407  1
  O  O180  1  0.38709616  0.38998346  0.88995509  1
  O  O181  1  0.38628938  0.86510349  0.38851720  1
  O  O182  1  0.37921153  0.88473929  0.88253186  1
  O  O183  1  0.87992817  0.38064259  0.38429637  1
  O  O184  1  0.88383792  0.36490392  0.88428686  1
  O  O185  1  0.86829411  0.88874582  0.38305800  1
  O  O186  1  0.88524615  0.88041100  0.88109998  1
  O  O187  1  0.24932019  -0.01991207  0.36085139  1
  O  O188  1  0.25305997  0.00308379  0.86982673  1
  O  O189  1  0.25796359  0.49976787  0.36579326  1
  O  O190  1  0.23669420  0.51143663  0.86122684  1
  O  O191  1  0.75504811  0.00410318  0.37108863  1
  O  O192  1  0.76737388  -0.00324227  0.87666072  1
  O  O193  1  0.75310464  0.50419446  0.37232561  1
  O  O194  1  0.74130171  0.51421587  0.86462446  1
  O  O195  1  0.24846989  0.50747214  0.13608041  1
  O  O196  1  0.24154292  0.50198848  0.63600535  1
  O  O197  1  0.24686989  0.98556270  0.13360134  1
  O  O198  1  0.24028323  0.99911439  0.63407955  1
  O  O199  1  0.74632625  0.49487268  0.13618952  1
  O  O200  1  0.74335455  0.49949670  0.62816351  1
  O  O201  1  0.74662675  0.99296983  0.12856521  1
  O  O202  1  0.75315170  0.99955678  0.62134552  1
  O  O203  1  -0.00069607  0.37185760  0.26678875  1
  O  O204  1  0.01200650  0.37296833  0.75363678  1
  O  O205  1  0.01277927  0.88262000  0.24161483  1
  O  O206  1  -0.00409758  0.86742215  0.75870689  1
  O  O207  1  0.50765922  0.37622794  0.24952597  1
  O  O208  1  0.51353243  0.37047896  0.74246015  1
  O  O209  1  0.50232237  0.86954670  0.26002422  1
  O  O210  1  0.49214599  0.86342714  0.75609780  1
  O  O211  1  0.51056125  0.14171134  0.23516334  1
  O  O212  1  0.49906633  0.13480645  0.74600646  1
  O  O213  1  0.49520302  0.63470030  0.24899077  1
  O  O214  1  0.48959509  0.63545157  0.74018481  1
  O  O215  1  0.99340503  0.12532630  0.23532322  1
  O  O216  1  1.00360540  0.13685503  0.73743347  1
  O  O217  1  0.99613950  0.60505461  0.24609683  1
  O  O218  1  0.99936558  0.63155672  0.74170190  1
  O  O219  1  0.38403327  0.27591353  -0.01002652  1
  O  O220  1  0.41522181  0.26107462  0.50539023  1
  O  O221  1  0.36353743  0.76546872  -0.00973863  1
  O  O222  1  0.36796298  0.75416420  0.50522071  1
  O  O223  1  0.87042428  0.25699761  0.00725187  1
  O  O224  1  0.85789755  0.25506278  0.49555424  1
  O  O225  1  0.87185528  0.76569451  0.00061932  1
  O  O226  1  0.87143971  0.75742299  0.50034437  1
  O  O227  1  0.12991859  0.22941873  0.51667967  1
  O  O228  1  0.11359522  0.25298981  0.98593240  1
  O  O229  1  0.13471349  0.76101475  0.48562747  1
  O  O230  1  0.13472215  0.74974374  0.98767518  1
  O  O231  1  0.62115795  0.23760375  0.49548393  1
  O  O232  1  0.63341512  0.24541448  0.99545092  1
  O  O233  1  0.63626019  0.75773482  0.48980573  1
  O  O234  1  0.62784898  0.75657209  0.98825526  1
  O  O235  1  0.50778669  0.24208719  0.12791433  1
  O  O236  1  0.51014695  0.23735666  0.64109324  1
  O  O237  1  0.51117977  0.74719886  0.14500353  1
  O  O238  1  0.49583028  0.74365029  0.63060143  1
  O  O239  1  0.99509559  0.24635571  0.12758888  1
  O  O240  1  1.00879917  0.24334535  0.63311792  1
  O  O241  1  1.01255425  0.73566367  0.10526605  1
  O  O242  1  1.00145693  0.74182850  0.62715982  1
  O  O243  1  -0.01167876  0.26419958  0.37820982  1
  O  O244  1  0.00618182  0.25809669  0.86565724  1
  O  O245  1  0.01185629  0.74611797  0.38793618  1
  O  O246  1  0.00657328  0.75696760  0.86662496  1
  O  O247  1  0.50434882  0.26952212  0.35541642  1
  O  O248  1  0.51595781  0.24586953  0.86884909  1
  O  O249  1  0.50742296  0.75688907  0.37342970  1
  O  O250  1  0.50774201  0.75742476  0.86603839  1
  O  O251  1  0.28341824  0.11575304  0.47320104  1
  O  O252  1  0.24800806  0.11203357  0.98830499  1
  O  O253  1  0.25597646  0.63561308  0.49873348  1
  O  O254  1  0.25999138  0.63357844  0.98760727  1
  O  O255  1  0.73724836  0.13018163  0.49295430  1
  O  O256  1  0.74102242  0.13469809  1.00921081  1
  O  O257  1  0.75821723  0.63242825  0.48691549  1
  O  O258  1  0.75557219  0.62268607  0.98503550  1
  O  O259  1  0.25521186  0.37338790  -0.00724088  1
  O  O260  1  0.24854157  0.38379301  0.52189828  1
  O  O261  1  0.25469912  0.86941556  0.00574998  1
  O  O262  1  0.26002171  0.86550463  0.50165204  1
  O  O263  1  0.75799087  0.36775212  0.00422617  1
  O  O264  1  0.75131132  0.37205764  0.50301846  1
  O  O265  1  0.75921489  0.88154964  0.00635010  1
  O  O266  1  0.76197000  0.86360473  0.49925231  1
  O  O267  1  0.14490415  0.50181297  0.24687859  1
  O  O268  1  0.12960117  0.49399671  0.74218903  1
  O  O269  1  0.13575749  0.98451175  0.25088926  1
  O  O270  1  0.13231328  1.00026119  0.74243406  1
  O  O271  1  0.63679185  0.49184841  0.24635645  1
  O  O272  1  0.63647291  0.49569173  0.73939724  1
  O  O273  1  0.62999238  0.99333034  0.24363578  1
  O  O274  1  0.62602462  0.99838591  0.75422875  1
  O  O275  1  0.36112571  -0.01347505  0.24938120  1
  O  O276  1  0.36764452  0.00114795  0.76318290  1
  O  O277  1  0.37084848  0.50960943  0.25668024  1
  O  O278  1  0.36513999  0.50991915  0.74910594  1
  O  O279  1  0.86644075  0.00016955  0.25856811  1
  O  O280  1  0.88129914  -0.00154880  0.76328814  1
  O  O281  1  0.86255996  0.49069668  0.25668529  1
  O  O282  1  0.86035485  0.49653155  0.74117693  1
  O  O283  1  0.10874963  0.37507831  0.38450600  1
  O  O284  1  0.11752174  0.36685312  0.86600691  1
  O  O285  1  0.12484386  0.86252107  0.36026888  1
  O  O286  1  0.11473045  0.86441330  0.87874096  1
  O  O287  1  0.61746070  0.37986805  0.36252194  1
  O  O288  1  0.63285125  0.36803303  0.86457347  1
  O  O289  1  0.61763025  0.86805252  0.37306467  1
  O  O290  1  0.61881553  0.86715402  0.87213216  1
  O  O291  1  0.39083411  0.11542292  0.12840472  1
  O  O292  1  0.38736073  0.11855585  0.63393466  1
  O  O293  1  0.38889816  0.61988348  0.14244337  1
  O  O294  1  0.38270156  0.62897648  0.63435383  1
  O  O295  1  0.88195141  0.13581821  0.12266671  1
  O  O296  1  0.88402799  0.14268996  0.61782597  1
  O  O297  1  0.83860767  0.64263406  0.13691954  1
  O  O298  1  0.88886961  0.62999453  0.62665467  1
  O  O299  1  0.23650677  0.24253789  0.13058817  1
  O  O300  1  0.24855263  0.26420301  0.63815214  1
  O  O301  1  0.24687214  0.75910187  0.10850303  1
  O  O302  1  0.25291317  0.75044935  0.61681920  1
  O  O303  1  0.75732151  0.25568204  0.11585050  1
  O  O304  1  0.74022382  0.25845680  0.60868473  1
  O  O305  1  0.73643377  0.77134342  0.11810419  1
  O  O306  1  0.76123358  0.73608972  0.60667992  1
  O  O307  1  0.28415636  0.25864094  0.39493579  1
  O  O308  1  0.23604368  0.23445226  0.87050400  1
  O  O309  1  0.24334443  0.74521416  0.38369522  1
  O  O310  1  0.24349674  0.74612839  0.87919226  1
  O  O311  1  0.74184890  0.24288980  0.37640584  1
  O  O312  1  0.74059904  0.25360661  0.89023202  1
  O  O313  1  0.74554139  0.74354038  0.38126184  1
  O  O314  1  0.74103823  0.73887575  0.87611967  1
  O  O315  1  -0.00443622  0.11795352  0.00947434  1
  O  O316  1  -0.00679557  0.11485344  0.50984955  1
  O  O317  1  -0.01116532  0.60841967  -0.01652887  1
  O  O318  1  -0.00648208  0.60783515  0.51049353  1
  O  O319  1  0.50741585  0.12071350  0.00629927  1
  O  O320  1  0.50587902  0.11073047  0.51151912  1
  O  O321  1  0.50381014  0.63919674  0.02664613  1
  O  O322  1  0.49487549  0.61693775  0.51061880  1
  O  O323  1  0.50933399  0.39218627  0.48365202  1
  O  O324  1  0.50599528  0.38549532  1.00568836  1
  O  O325  1  0.49436057  0.87676195  0.49823147  1
  O  O326  1  0.49282395  0.87984748  0.99642444  1
  O  O327  1  0.99313249  0.38047769  0.49820035  1
  O  O328  1  0.99295580  0.38180433  0.98961010  1
  O  O329  1  0.98787911  0.88670981  0.50162495  1
  O  O330  1  0.99199983  0.88411924  0.98928185  1
  O  O331  1  0.49681638  0.49817658  0.37768454  1
  O  O332  1  0.51614985  0.51576770  0.86962535  1
  O  O333  1  0.50516943  0.98320258  0.39055590  1
  O  O334  1  0.49101691  0.99628340  0.88104624  1
  O  O335  1  0.99607266  0.48744214  0.38680778  1
  O  O336  1  1.00768963  0.48567306  0.87843931  1
  O  O337  1  0.98959113  1.01155573  0.38216917  1
  O  O338  1  0.99616104  0.99407604  0.87891549  1
  O  O339  1  -0.00114247  0.00965544  0.11503337  1
  O  O340  1  0.00400296  0.00929725  0.61752650  1
  O  O341  1  0.00745853  0.49058251  0.11064976  1
  O  O342  1  0.00539121  0.50140086  0.62186353  1
  O  O343  1  0.50671657  0.00689567  0.11965905  1
  O  O344  1  0.50036578  0.00481284  0.61980008  1
  O  O345  1  0.51731693  0.51440266  0.13799416  1
  O  O346  1  0.50409227  0.50567408  0.61736158  1
  O  O347  1  0.26213433  0.39100439  0.23833540  1
  O  O348  1  0.23830352  0.38715133  0.74247798  1
  O  O349  1  0.24649045  0.87426219  0.24112346  1
  O  O350  1  0.25670757  0.88728577  0.74889168  1
  O  O351  1  0.74391427  0.38067703  0.24745820  1
  O  O352  1  0.74096981  0.38285544  0.74410037  1
  O  O353  1  0.74420423  0.88136730  0.24170723  1
  O  O354  1  0.74418967  0.83121069  0.73545110  1
  O  O355  1  0.25481219  0.09836208  0.24806344  1
  O  O356  1  0.25104384  0.11217662  0.76115632  1
  O  O357  1  0.26876533  0.61677933  0.25337161  1
  O  O358  1  0.25471560  0.62099355  0.75453436  1
  O  O359  1  0.74792991  0.11863035  0.25434456  1
  O  O360  1  0.77668303  0.19544415  0.73379351  1
  O  O361  1  0.74861401  0.61097802  0.26743156  1
  O  O362  1  0.75106340  0.61886099  0.75695487  1
  O  O363  1  0.40888587  0.11043231  0.35397759  1
  O  O364  1  0.36560765  0.11529152  0.87803969  1
  O  O365  1  0.37955135  0.61519349  0.36461900  1
  O  O366  1  0.36072567  0.62199743  0.85936141  1
  O  O367  1  0.86353531  0.11405170  0.37426394  1
  O  O368  1  0.87984967  0.11291190  0.87765664  1
  O  O369  1  0.86623210  0.61436783  0.37213513  1
  O  O370  1  0.85748539  0.63288072  0.86737531  1
  O  O371  1  0.13526930  0.39249236  0.11887196  1
  O  O372  1  0.13150633  0.38380678  0.63437418  1
  O  O373  1  0.13479210  0.87443068  0.13756468  1
  O  O374  1  0.12314731  0.88878513  0.62154954  1
  O  O375  1  0.63334502  0.38503439  0.13333711  1
  O  O376  1  0.63034944  0.39096832  0.63476192  1
  O  O377  1  0.62935679  0.88458699  0.12941547  1
  O  O378  1  0.63237674  0.88152354  0.63263409  1
  O  O379  1  0.12254633  0.22008603  0.29516769  1
  O  O380  1  0.11823647  0.25781958  0.75764987  1
  O  O381  1  0.11793056  0.76032465  0.26216086  1
  O  O382  1  0.11469986  0.74804072  0.75620397  1
  O  O383  1  0.62005352  0.26546109  0.24499101  1
  O  O384  1  0.61938252  0.26148188  0.76038499  1
  O  O385  1  0.61611832  0.75963121  0.26689954  1
  O  O386  1  0.60929040  0.74397476  0.76048212  1
  O  O387  1  0.38892502  0.25259747  0.24407817  1
  O  O388  1  0.39231989  0.25268591  0.76494882  1
  O  O389  1  0.38509547  0.73779598  0.26041642  1
  O  O390  1  0.38067539  0.74307538  0.74562303  1
  O  O391  1  0.87414910  0.25010801  0.23638639  1
  O  O392  1  0.89781819  0.27081406  0.74676156  1
  O  O393  1  0.88107774  0.75386349  0.24220869  1
  O  O394  1  0.89295660  0.74759689  0.74158829  1
  O  O395  1  0.38526388  0.50362298  0.48846746  1
  O  O396  1  0.38504816  0.49504101  0.99751499  1
  O  O397  1  0.38524004  0.98573247  0.50381432  1
  O  O398  1  0.37939675  0.99089950  0.99034485  1
  O  O399  1  0.88254036  0.48898927  0.49970773  1
  O  O400  1  0.88145579  0.48477422  1.00552886  1
  O  O401  1  0.88281749  0.99436418  0.49133531  1
  O  O402  1  0.88566383  0.99280235  0.99028634  1
  O  O403  1  0.11027216  -0.00843815  0.00338307  1
  O  O404  1  0.11234630  -0.00580795  0.50431299  1
  O  O405  1  0.11217003  0.50418872  0.00466815  1
  O  O406  1  0.11447914  0.49250464  0.51287541  1
  O  O407  1  0.62041326  0.00770375  0.00279531  1
  O  O408  1  0.61626272  0.00707192  0.50188911  1
  O  O409  1  0.63507599  0.50145953  0.01612479  1
  O  O410  1  0.61688452  0.50249582  0.51042090  1
  O  O411  1  0.37470222  0.38353328  0.10649191  1
  O  O412  1  0.35864299  0.38009795  0.63403317  1
  O  O413  1  0.36634001  0.87904737  0.11272964  1
  O  O414  1  0.37422434  0.86696687  0.61485450  1
  O  O415  1  0.87349433  0.36618093  0.11598962  1
  O  O416  1  0.86201554  0.35708256  0.62168590  1
  O  O417  1  0.86646476  0.87708221  0.11408915  1
  O  O418  1  0.87617960  0.86680204  0.61268683  1
  O  O419  1  0.12440596  0.15269912  0.35067006  1
  O  O420  1  0.12936107  0.13299080  0.87004423  1
  O  O421  1  0.12641856  0.63980973  0.36913439  1
  O  O422  1  0.13496110  0.63872599  0.87011675  1
  O  O423  1  0.62213248  0.12401142  0.38533537  1
  O  O424  1  0.62269324  0.13465661  0.88972842  1
  O  O425  1  0.63332688  0.63582732  0.37273864  1
  O  O426  1  0.63501710  0.63481810  0.87742634  1
