# generated using pymatgen
data_V85Zn86O256
_symmetry_space_group_name_H-M   'P 1'
_cell_length_a   17.00467137
_cell_length_b   16.99009996
_cell_length_c   16.98192571
_cell_angle_alpha   90.01334046
_cell_angle_beta   90.04671504
_cell_angle_gamma   90.25711879
_symmetry_Int_Tables_number   1
_chemical_formula_structural   V85Zn86O256
_chemical_formula_sum   'V85 Zn86 O256'
_cell_volume   4906.21509427
_cell_formula_units_Z   1
loop_
 _symmetry_equiv_pos_site_id
 _symmetry_equiv_pos_as_xyz
  1  'x, y, z'
loop_
 _atom_site_type_symbol
 _atom_site_label
 _atom_site_symmetry_multiplicity
 _atom_site_fract_x
 _atom_site_fract_y
 _atom_site_fract_z
 _atom_site_occupancy
  V  V0  1  0.49947252  0.75078757  0.24984463  1
  V  V1  1  0.00412625  0.87122915  0.86004391  1
  V  V2  1  0.75058754  0.12502758  0.87640307  1
  V  V3  1  0.24439916  0.73923187  -0.00484730  1
  V  V4  1  0.12822995  0.12653721  -0.00164439  1
  V  V5  1  0.12768313  0.25105872  0.37268926  1
  V  V6  1  0.13406119  0.37292279  0.75060580  1
  V  V7  1  0.00118241  0.25386308  0.24732126  1
  V  V8  1  0.36876873  0.62197478  0.75022980  1
  V  V9  1  0.86736759  0.49253957  0.37885327  1
  V  V10  1  0.61681516  0.74906709  0.86783965  1
  V  V11  1  0.74802380  0.37908180  0.12452042  1
  V  V12  1  0.25642532  0.37435412  0.62278167  1
  V  V13  1  0.13093428  0.37358994  0.24226360  1
  V  V14  1  0.75133323  0.24949828  -0.00144140  1
  V  V15  1  0.62115789  0.75132324  0.37627824  1
  V  V16  1  0.37281913  0.49861161  0.86924473  1
  V  V17  1  0.49798760  0.12560839  0.63314083  1
  V  V18  1  0.50055958  0.48656262  -0.00387736  1
  V  V19  1  -0.00583969  -0.01105346  0.00567606  1
  V  V20  1  0.50094110  0.36554209  0.38359212  1
  V  V21  1  0.62571936  0.00107047  0.62565034  1
  V  V22  1  0.12691349  -0.00249649  0.63473299  1
  V  V23  1  0.37616927  0.62279077  0.24993511  1
  V  V24  1  0.12569775  0.50507105  0.11953560  1
  V  V25  1  0.24498991  0.87961113  0.62833142  1
  V  V26  1  0.37628688  0.87618891  0.50083765  1
  V  V27  1  0.25357607  0.12324692  0.36710355  1
  V  V28  1  -0.00322909  0.49055976  0.49899987  1
  V  V29  1  0.62666635  0.49835714  0.12656583  1
  V  V30  1  0.37245674  0.00129034  0.37191723  1
  V  V31  1  0.50002520  0.00233182  0.50012570  1
  V  V32  1  0.61724854  0.62110239  0.49942580  1
  V  V33  1  0.00109062  0.63118096  0.62596884  1
  V  V34  1  0.12452761  0.75526292  0.36741943  1
  V  V35  1  0.75355132  0.86867326  0.11988590  1
  V  V36  1  0.87667101  0.62984690  0.74424636  1
  V  V37  1  0.00182317  0.24516406  0.75142080  1
  V  V38  1  0.62755544  0.50177062  0.63220467  1
  V  V39  1  0.38033574  0.11868450  0.23268867  1
  V  V40  1  0.37368010  0.75085039  0.12539273  1
  V  V41  1  0.62396677  0.62648066  -0.00384041  1
  V  V42  1  0.74798330  0.75147707  0.49934486  1
  V  V43  1  0.74891276  -0.00107721  0.75068015  1
  V  V44  1  0.87293019  0.00865178  0.37366363  1
  V  V45  1  0.37539512  0.24632609  0.63134915  1
  V  V46  1  0.87373685  0.87685247  0.49625680  1
  V  V47  1  0.62190277  0.87606495  0.25067718  1
  V  V48  1  -0.00560215  0.12580330  0.12734252  1
  V  V49  1  0.12319883  0.62321266  0.49864331  1
  V  V50  1  0.87226186  -0.00966272  0.88174205  1
  V  V51  1  0.00829965  0.51063669  -0.00706575  1
  V  V52  1  0.37502867  0.87433484  -0.01133080  1
  V  V53  1  0.25153888  0.74928136  0.50240942  1
  V  V54  1  0.37855520  0.75292176  0.63443173  1
  V  V55  1  0.61799342  0.87123228  0.74903965  1
  V  V56  1  0.25816666  0.25276956  0.49965843  1
  V  V57  1  0.49623824  0.62404334  0.62615165  1
  V  V58  1  0.74451000  0.13353683  0.37432923  1
  V  V59  1  0.49899922  0.00464840  -0.00626405  1
  V  V60  1  0.12619058  -0.00208718  0.13629619  1
  V  V61  1  0.00035795  0.00095213  0.49887802  1
  V  V62  1  0.74540370  0.61780770  0.86140789  1
  V  V63  1  0.50280341  0.25915498  0.75315149  1
  V  V64  1  0.87640856  0.12196385  0.75125841  1
  V  V65  1  0.61922539  0.00495919  0.12415613  1
  V  V66  1  0.27406107  0.00889353  0.77241680  1
  V  V67  1  0.35619401  0.37524696  -0.00432121  1
  V  V68  1  0.62526706  0.13661259  0.49778994  1
  V  V69  1  0.13062486  0.49750781  0.62752944  1
  V  V70  1  0.12763316  0.12410120  0.49913597  1
  V  V71  1  0.75186058  0.00646694  0.24952742  1
  V  V72  1  0.62340358  0.25689685  0.87485222  1
  V  V73  1  0.37040319  0.26916237  0.12410333  1
  V  V74  1  0.38094152  0.49239618  0.38621873  1
  V  V75  1  0.24817230  0.88456350  0.13344979  1
  V  V76  1  0.00245301  0.12269366  0.62545103  1
  V  V77  1  0.87190800  0.49638207  0.86469161  1
  V  V78  1  0.50066795  0.62608605  0.12313889  1
  V  V79  1  0.87572346  0.25188838  0.12738513  1
  V  V80  1  0.25175511  0.49388481  0.24366291  1
  V  V81  1  0.87354256  0.25406837  0.61809001  1
  V  V82  1  0.13646566  0.24398024  0.87892317  1
  V  V83  1  0.00016296  0.37134347  0.87530071  1
  V  V84  1  0.25078631  0.62096333  0.37509667  1
  Zn  Zn85  1  0.74852591  0.62381962  0.37293163  1
  Zn  Zn86  1  -0.00252958  0.63130578  0.12330447  1
  Zn  Zn87  1  0.49015644  0.87387663  0.86844964  1
  Zn  Zn88  1  0.75040439  0.87583857  0.62527881  1
  Zn  Zn89  1  0.74984698  0.50147681  0.25185724  1
  Zn  Zn90  1  0.10802462  0.73616080  0.86097427  1
  Zn  Zn91  1  0.62474595  0.36507157  0.26049031  1
  Zn  Zn92  1  0.88021464  0.75312548  0.62378690  1
  Zn  Zn93  1  0.75457065  0.26204424  0.49040440  1
  Zn  Zn94  1  0.49760862  0.87686584  0.37404612  1
  Zn  Zn95  1  -0.00286503  0.37196379  0.37760093  1
  Zn  Zn96  1  0.87276997  0.63075481  0.24503424  1
  Zn  Zn97  1  0.23803437  0.61695907  0.86919605  1
  Zn  Zn98  1  0.50419477  0.24713215  0.24431649  1
  Zn  Zn99  1  -0.00635841  0.75618038  0.23988661  1
  Zn  Zn100  1  0.75323856  0.75363112  -0.00776832  1
  Zn  Zn101  1  0.91268639  0.79941930  0.06801244  1
  Zn  Zn102  1  0.01377974  0.88518887  0.36572326  1
  Zn  Zn103  1  0.76097116  0.38836967  0.62558652  1
  Zn  Zn104  1  0.63329530  0.38689670  0.75766026  1
  Zn  Zn105  1  0.87711884  0.37907301  -0.00171446  1
  Zn  Zn106  1  0.61875144  0.12824308  0.00295438  1
  Zn  Zn107  1  0.19202989  0.18601426  0.18091804  1
  Zn  Zn108  1  0.19042349  0.18224171  0.69242074  1
  Zn  Zn109  1  0.19056978  0.68477157  0.18469623  1
  Zn  Zn110  1  0.18494699  0.68772982  0.69091338  1
  Zn  Zn111  1  0.68790205  0.18696853  0.18739921  1
  Zn  Zn112  1  0.68792173  0.18849800  0.68985875  1
  Zn  Zn113  1  0.68763078  0.68471730  0.19189413  1
  Zn  Zn114  1  0.68831943  0.68872864  0.68392768  1
  Zn  Zn115  1  0.31767425  0.30973372  0.30951398  1
  Zn  Zn116  1  0.31750617  0.30791709  0.81366273  1
  Zn  Zn117  1  0.31021228  0.81127640  0.31372814  1
  Zn  Zn118  1  0.27235910  0.80327522  0.79824744  1
  Zn  Zn119  1  0.81522496  0.31941622  0.30920253  1
  Zn  Zn120  1  0.80986839  0.31320998  0.80241055  1
  Zn  Zn121  1  0.80830310  0.81888004  0.31025762  1
  Zn  Zn122  1  0.80751808  0.80952755  0.81125714  1
  Zn  Zn123  1  0.18774943  0.43544479  0.43469524  1
  Zn  Zn124  1  0.18736655  0.43938044  0.93370670  1
  Zn  Zn125  1  0.19176473  0.93929038  0.44201007  1
  Zn  Zn126  1  0.18541733  0.93468955  0.94548679  1
  Zn  Zn127  1  0.68251095  0.43171767  0.44746998  1
  Zn  Zn128  1  0.68939769  0.43873790  0.94057376  1
  Zn  Zn129  1  0.68574435  0.94080753  0.43747618  1
  Zn  Zn130  1  0.68304993  0.93548816  0.93734389  1
  Zn  Zn131  1  0.33283252  0.08440380  0.02043237  1
  Zn  Zn132  1  0.31272856  0.06472938  0.56132202  1
  Zn  Zn133  1  0.31474736  0.55919857  0.06309845  1
  Zn  Zn134  1  0.31194661  0.56260495  0.56386155  1
  Zn  Zn135  1  0.81067981  0.06237404  0.06532225  1
  Zn  Zn136  1  0.81017946  0.06753470  0.56148982  1
  Zn  Zn137  1  0.82160686  0.58083595  0.04770410  1
  Zn  Zn138  1  0.81131159  0.56468333  0.55632272  1
  Zn  Zn139  1  0.44343579  0.43759910  0.19232116  1
  Zn  Zn140  1  0.44180645  0.43894886  0.68434440  1
  Zn  Zn141  1  0.43490145  0.93794101  0.18238676  1
  Zn  Zn142  1  0.43446972  0.94076313  0.69062468  1
  Zn  Zn143  1  0.91798261  0.47129797  0.16791374  1
  Zn  Zn144  1  0.94545843  0.43731054  0.68862598  1
  Zn  Zn145  1  0.93828502  0.93737902  0.19559905  1
  Zn  Zn146  1  0.93604252  0.93795789  0.68599317  1
  Zn  Zn147  1  0.06020832  0.06905421  0.31251651  1
  Zn  Zn148  1  0.06147719  0.05693018  0.81696363  1
  Zn  Zn149  1  0.05541875  0.56431379  0.30901158  1
  Zn  Zn150  1  0.06185249  0.56032041  0.80636927  1
  Zn  Zn151  1  0.56127082  0.06517793  0.31160446  1
  Zn  Zn152  1  0.56392101  0.06501456  0.81512601  1
  Zn  Zn153  1  0.56101329  0.56042926  0.31370178  1
  Zn  Zn154  1  0.54908803  0.56589647  0.80978556  1
  Zn  Zn155  1  0.43820742  0.18737160  0.43868467  1
  Zn  Zn156  1  0.43816377  0.19399360  0.93523948  1
  Zn  Zn157  1  0.43561056  0.68700462  0.43818010  1
  Zn  Zn158  1  0.43277983  0.68674003  0.93570103  1
  Zn  Zn159  1  0.93958707  0.18667423  0.43576489  1
  Zn  Zn160  1  0.93889704  0.18387755  0.94055544  1
  Zn  Zn161  1  0.91795864  0.70437427  0.39926005  1
  Zn  Zn162  1  0.93244860  0.68648322  0.93034472  1
  Zn  Zn163  1  0.06719761  0.31579579  0.06092747  1
  Zn  Zn164  1  0.06615967  0.30801712  0.56336053  1
  Zn  Zn165  1  0.07690038  0.80885621  0.06174018  1
  Zn  Zn166  1  0.06238403  0.81470634  0.55416202  1
  Zn  Zn167  1  0.56089265  0.30416239  0.07236336  1
  Zn  Zn168  1  0.55865540  0.31727457  0.56250885  1
  Zn  Zn169  1  0.56356872  0.81550262  0.05996236  1
  Zn  Zn170  1  0.55970588  0.81293639  0.56369504  1
  O  O171  1  0.11391409  0.12102117  0.11707828  1
  O  O172  1  0.12158759  0.11738752  0.61896044  1
  O  O173  1  0.12125744  0.60836964  0.12992610  1
  O  O174  1  0.12239316  0.61668465  0.62104136  1
  O  O175  1  0.63507827  0.10869224  0.11974050  1
  O  O176  1  0.61758067  0.12094612  0.61869811  1
  O  O177  1  0.62243018  0.61859747  0.11438129  1
  O  O178  1  0.61507538  0.62248213  0.62078325  1
  O  O179  1  0.38124293  0.38677955  0.36980039  1
  O  O180  1  0.36991932  0.38039432  0.88826812  1
  O  O181  1  0.37207847  0.88531250  0.38035915  1
  O  O182  1  0.37175766  0.86584428  0.88745853  1
  O  O183  1  0.87887224  0.38481816  0.37927595  1
  O  O184  1  0.88503622  0.37899505  0.86871427  1
  O  O185  1  0.86733490  0.89319193  0.38622395  1
  O  O186  1  0.87960367  0.88429694  0.87211980  1
  O  O187  1  0.26097016  0.01136751  0.38243830  1
  O  O188  1  0.24567469  -0.00703689  0.86750132  1
  O  O189  1  0.25875853  0.50139812  0.36549076  1
  O  O190  1  0.26685928  0.50310339  0.88175574  1
  O  O191  1  0.75321744  0.01010677  0.36867991  1
  O  O192  1  0.75564907  0.00324585  0.87339326  1
  O  O193  1  0.75930763  0.49326743  0.38034210  1
  O  O194  1  0.75975305  0.50628011  0.87706988  1
  O  O195  1  0.24362331  0.50363605  0.13689872  1
  O  O196  1  0.23986863  0.48787185  0.61695994  1
  O  O197  1  0.24204771  0.98714233  0.12082286  1
  O  O198  1  0.24190962  0.99437774  0.61884949  1
  O  O199  1  0.74066880  0.49128745  0.11632087  1
  O  O200  1  0.73132210  0.50901248  0.62219349  1
  O  O201  1  0.74439786  0.99275057  0.13245091  1
  O  O202  1  0.74358001  1.00185483  0.63203311  1
  O  O203  1  0.01342936  0.36059059  0.25040543  1
  O  O204  1  0.01312070  0.36678954  0.75834052  1
  O  O205  1  -0.00056344  0.86896767  0.25652452  1
  O  O206  1  -0.00216953  0.87768072  0.76060689  1
  O  O207  1  0.50131309  0.37121682  0.26119024  1
  O  O208  1  0.50813835  0.36220127  0.74392774  1
  O  O209  1  0.50407840  0.86883372  0.24924351  1
  O  O210  1  0.51353815  0.88185436  0.75246349  1
  O  O211  1  0.48281102  0.12677943  0.25246001  1
  O  O212  1  0.50785687  0.13381487  0.73754552  1
  O  O213  1  0.49617061  0.63024760  0.24283399  1
  O  O214  1  0.48385201  0.62918156  0.73767065  1
  O  O215  1  1.00613467  0.14055433  0.23719388  1
  O  O216  1  0.99664584  0.12549599  0.74621405  1
  O  O217  1  0.99573160  0.63446005  0.24529667  1
  O  O218  1  0.99134907  0.62057943  0.73571199  1
  O  O219  1  0.38115800  0.27236016  0.00838136  1
  O  O220  1  0.36437625  0.24626256  0.51152028  1
  O  O221  1  0.37134011  0.75616743  0.00857451  1
  O  O222  1  0.36883971  0.75526379  0.50761472  1
  O  O223  1  0.86905325  0.25385690  0.00782496  1
  O  O224  1  0.87975519  0.24473015  0.51516533  1
  O  O225  1  0.85966651  0.72014106  0.00974940  1
  O  O226  1  0.86489050  0.76150082  0.49042085  1
  O  O227  1  0.13500079  0.24273897  0.49411585  1
  O  O228  1  0.11714959  0.23539180  0.99457372  1
  O  O229  1  0.13309511  0.73858802  0.49618196  1
  O  O230  1  0.14289930  0.75445258  0.98765231  1
  O  O231  1  0.62583936  0.23803243  0.50953270  1
  O  O232  1  0.63389408  0.24847046  0.99560774  1
  O  O233  1  0.62961853  0.74597289  0.49690346  1
  O  O234  1  0.62795876  0.73979815  0.99138316  1
  O  O235  1  0.47652144  0.24782137  0.12325535  1
  O  O236  1  0.49353763  0.24500252  0.63158696  1
  O  O237  1  0.49579385  0.74557868  0.12958948  1
  O  O238  1  0.48575838  0.74427014  0.62186148  1
  O  O239  1  0.99438692  0.24633948  0.12670395  1
  O  O240  1  0.99623879  0.24187192  0.63106638  1
  O  O241  1  1.00142710  0.74890851  0.12029242  1
  O  O242  1  1.00006816  0.73514700  0.61227848  1
  O  O243  1  0.00738682  0.24686053  0.36432269  1
  O  O244  1  0.00627045  0.25535957  0.87139486  1
  O  O245  1  0.02324380  0.74908883  0.38421055  1
  O  O246  1  -0.00442547  0.76747340  0.88157915  1
  O  O247  1  0.48988245  0.26172217  0.36938092  1
  O  O248  1  0.51150174  0.24362548  0.86571058  1
  O  O249  1  0.50277778  0.75281843  0.36820125  1
  O  O250  1  0.51381843  0.74909401  0.87809125  1
  O  O251  1  0.24729032  0.13449147  0.49081937  1
  O  O252  1  0.22408614  0.11538469  1.01029828  1
  O  O253  1  0.24029461  0.62724138  0.49735934  1
  O  O254  1  0.25480528  0.63752810  1.00603285  1
  O  O255  1  0.74104775  0.12983872  0.49150250  1
  O  O256  1  0.75193598  0.13733563  0.99590474  1
  O  O257  1  0.73823543  0.63660080  0.49740613  1
  O  O258  1  0.73382276  0.61915224  0.98484028  1
  O  O259  1  0.25823908  0.37752495  0.00276149  1
  O  O260  1  0.24200258  0.36226972  0.51015322  1
  O  O261  1  0.25851333  0.86608343  0.00787549  1
  O  O262  1  0.25844537  0.87086017  0.50975570  1
  O  O263  1  0.75305653  0.36428875  0.00586246  1
  O  O264  1  0.74318345  0.36945820  0.51614945  1
  O  O265  1  0.74439430  0.87369841  0.01541734  1
  O  O266  1  0.75515230  0.87067774  0.50173691  1
  O  O267  1  0.13189478  0.49160772  0.24394668  1
  O  O268  1  0.12027201  0.48470973  0.73713668  1
  O  O269  1  0.11980312  1.00869584  0.23542217  1
  O  O270  1  0.12315931  1.00172432  0.73546826  1
  O  O271  1  0.62424367  0.50040575  0.23363196  1
  O  O272  1  0.61584455  0.50504038  0.73722578  1
  O  O273  1  0.62997701  0.99645689  0.24408832  1
  O  O274  1  0.63053492  0.99363389  0.74627927  1
  O  O275  1  0.37829103  0.00984534  0.25817717  1
  O  O276  1  0.37468187  0.00439958  0.76256083  1
  O  O277  1  0.36731116  0.50463328  0.25391228  1
  O  O278  1  0.38356882  0.50484355  0.75985971  1
  O  O279  1  0.86191215  -0.00179294  0.26090567  1
  O  O280  1  0.86939229  0.00315193  0.75949270  1
  O  O281  1  0.87346356  0.49571625  0.27095054  1
  O  O282  1  0.88280537  0.50784877  0.75791675  1
  O  O283  1  0.12406428  0.36746839  0.36313669  1
  O  O284  1  0.12047584  0.36651767  0.86836354  1
  O  O285  1  0.13329478  0.85923890  0.38327086  1
  O  O286  1  0.10283891  0.88179379  0.88218935  1
  O  O287  1  0.60598249  0.38645677  0.37498534  1
  O  O288  1  0.63191533  0.36120389  0.87611798  1
  O  O289  1  0.62103099  0.87150925  0.36829615  1
  O  O290  1  0.62771820  0.86374390  0.86559441  1
  O  O291  1  0.37040058  0.11418678  0.13382128  1
  O  O292  1  0.38653584  0.13477136  0.61965720  1
  O  O293  1  0.38177240  0.62957816  0.13028470  1
  O  O294  1  0.37784039  0.63204653  0.62818490  1
  O  O295  1  0.88404472  0.13747490  0.12023870  1
  O  O296  1  0.88460756  0.12874289  0.63119787  1
  O  O297  1  0.88731070  0.58530799  0.13570505  1
  O  O298  1  0.88362722  0.62327289  0.62841366  1
  O  O299  1  0.27201030  0.24177039  0.12228436  1
  O  O300  1  0.25684365  0.25276893  0.62034476  1
  O  O301  1  0.25265565  0.75702416  0.11547768  1
  O  O302  1  0.25698013  0.76050770  0.61979792  1
  O  O303  1  0.75846733  0.25702701  0.11757643  1
  O  O304  1  0.77112581  0.23892515  0.62578783  1
  O  O305  1  0.74260514  0.76736582  0.13051695  1
  O  O306  1  0.75457965  0.75204889  0.61041639  1
  O  O307  1  0.24982840  0.24405563  0.38186911  1
  O  O308  1  0.23496147  0.25179599  0.87210528  1
  O  O309  1  0.24476170  0.74154027  0.38238291  1
  O  O310  1  0.26551055  0.74024036  0.89393141  1
  O  O311  1  0.76022098  0.23745653  0.37148634  1
  O  O312  1  0.74656453  0.24590176  0.88206792  1
  O  O313  1  0.73830868  0.75272205  0.38599986  1
  O  O314  1  0.73885456  0.73613235  0.87364428  1
  O  O315  1  0.00355807  0.11447155  0.01110027  1
  O  O316  1  0.00815817  0.12013469  0.50483405  1
  O  O317  1  0.00046055  0.61167710  -0.00635124  1
  O  O318  1  0.01444778  0.61083666  0.50895692  1
  O  O319  1  0.50062484  0.10804032  -0.00126137  1
  O  O320  1  0.50699176  0.12227937  0.50851475  1
  O  O321  1  0.50885614  0.61867933  0.00351941  1
  O  O322  1  0.50846291  0.63532121  0.51050983  1
  O  O323  1  0.49455692  0.36816419  0.48411841  1
  O  O324  1  0.49959954  0.38622579  1.00589808  1
  O  O325  1  0.49322892  0.88387349  0.49888804  1
  O  O326  1  0.49255032  0.87944163  0.99580987  1
  O  O327  1  1.01345061  0.38626212  0.49906544  1
  O  O328  1  1.00156433  0.37880968  0.98469345  1
  O  O329  1  0.99085062  0.88252496  0.49020840  1
  O  O330  1  0.99291230  0.88438629  1.00873904  1
  O  O331  1  0.48453864  0.49524184  0.37200793  1
  O  O332  1  0.48711972  0.50486350  0.88665343  1
  O  O333  1  0.48814447  1.00102832  0.38092622  1
  O  O334  1  0.51072049  0.99388021  0.88983351  1
  O  O335  1  0.99292196  0.49736763  0.38428069  1
  O  O336  1  0.99637946  0.48860259  0.87533849  1
  O  O337  1  0.99037813  1.00604264  0.37935710  1
  O  O338  1  0.99041159  0.98902354  0.88496584  1
  O  O339  1  0.00138353  0.00748791  0.12280498  1
  O  O340  1  0.00783581  0.00306179  0.61862930  1
  O  O341  1  0.01266198  0.49189545  0.10631018  1
  O  O342  1  0.01207461  0.50420271  0.61794375  1
  O  O343  1  0.51210588  -0.00893774  0.11429879  1
  O  O344  1  0.50360941  0.00954879  0.62118053  1
  O  O345  1  0.50799448  0.50607555  0.11633024  1
  O  O346  1  0.50423140  0.51660475  0.62310040  1
  O  O347  1  0.24307339  0.38302892  0.25538064  1
  O  O348  1  0.24020206  0.36536076  0.74066629  1
  O  O349  1  0.25660541  0.87045763  0.23222454  1
  O  O350  1  0.25923204  0.89994954  0.73381362  1
  O  O351  1  0.74533955  0.37927794  0.23599001  1
  O  O352  1  0.74276052  0.36991433  0.73529155  1
  O  O353  1  0.74150683  0.88695574  0.24358076  1
  O  O354  1  0.74101554  0.88138671  0.74668271  1
  O  O355  1  0.26255197  0.13034135  0.26096926  1
  O  O356  1  0.24943483  0.10406558  0.74611293  1
  O  O357  1  0.25626219  0.61451701  0.25534937  1
  O  O358  1  0.26576273  0.61895500  0.74480247  1
  O  O359  1  0.74318324  0.11384332  0.25838241  1
  O  O360  1  0.75563017  0.11815916  0.75784412  1
  O  O361  1  0.75299410  0.61831747  0.25520918  1
  O  O362  1  0.75595148  0.62349539  0.75557177  1
  O  O363  1  0.36905056  0.11817490  0.37146340  1
  O  O364  1  0.35346236  0.12862647  0.91937621  1
  O  O365  1  0.37111731  0.61416771  0.37019424  1
  O  O366  1  0.37412492  0.61691810  0.86534855  1
  O  O367  1  0.86361529  0.11446145  0.38349099  1
  O  O368  1  0.87155577  0.11447893  0.87094289  1
  O  O369  1  0.86811943  0.60336940  0.38280541  1
  O  O370  1  0.86618904  0.61640870  0.86194236  1
  O  O371  1  0.12539032  0.38183455  0.13565978  1
  O  O372  1  0.13395555  0.37679712  0.63256090  1
  O  O373  1  0.13921854  0.88407155  0.12047841  1
  O  O374  1  0.13552905  0.88365338  0.61438072  1
  O  O375  1  0.63385338  0.38593352  0.11644777  1
  O  O376  1  0.61221213  0.40001501  0.62124884  1
  O  O377  1  0.63406301  0.88375768  0.13137834  1
  O  O378  1  0.62513269  0.88174512  0.63244928  1
  O  O379  1  0.12403248  0.25478248  0.25058282  1
  O  O380  1  0.12105682  0.25273776  0.75756131  1
  O  O381  1  0.13151782  0.74263520  0.26701928  1
  O  O382  1  0.16561602  0.76487488  0.76734880  1
  O  O383  1  0.61553558  0.25732541  0.22663628  1
  O  O384  1  0.61884931  0.24986984  0.75893454  1
  O  O385  1  0.61830439  0.75521693  0.25625100  1
  O  O386  1  0.63001870  0.75940322  0.75469369  1
  O  O387  1  0.37563586  0.23896139  0.23679694  1
  O  O388  1  0.38561010  0.25143303  0.74074290  1
  O  O389  1  0.37910387  0.74263865  0.24596254  1
  O  O390  1  0.36360474  0.74430617  0.73814942  1
  O  O391  1  0.88556383  0.25970345  0.23517798  1
  O  O392  1  0.88384345  0.23970488  0.74388456  1
  O  O393  1  0.88394183  0.74063955  0.28917586  1
  O  O394  1  0.86924179  0.73486155  0.74480660  1
  O  O395  1  0.36794809  0.50165923  0.48446322  1
  O  O396  1  0.38132761  0.48893804  0.99732887  1
  O  O397  1  0.38044992  0.99721561  0.49283094  1
  O  O398  1  0.39266934  0.98666982  1.00767560  1
  O  O399  1  0.88649245  0.49965301  0.49546296  1
  O  O400  1  0.88697300  0.49860708  0.97998398  1
  O  O401  1  0.87912730  0.99628516  0.49526107  1
  O  O402  1  0.88163871  1.00600260  0.99163472  1
  O  O403  1  0.11068668  0.00758673  0.00977967  1
  O  O404  1  0.11935181  0.00631316  0.50458263  1
  O  O405  1  0.11993339  0.49235039  0.00718660  1
  O  O406  1  0.12279147  0.50583808  0.50666280  1
  O  O407  1  0.61578102  -0.00190622  0.00720797  1
  O  O408  1  0.61906809  0.00924143  0.50621981  1
  O  O409  1  0.61746137  0.50705391  0.00341987  1
  O  O410  1  0.62439430  0.51723846  0.50905139  1
  O  O411  1  0.37195674  0.37425509  0.11876435  1
  O  O412  1  0.36376361  0.36604286  0.63097293  1
  O  O413  1  0.36425788  0.87028057  0.11727510  1
  O  O414  1  0.36944775  0.87044726  0.62080957  1
  O  O415  1  0.86475602  0.37309889  0.12003072  1
  O  O416  1  0.88270918  0.35657365  0.63369546  1
  O  O417  1  0.85804783  0.87937997  0.13006912  1
  O  O418  1  0.87507934  0.87370690  0.61006475  1
  O  O419  1  0.13583620  0.13043288  0.37746267  1
  O  O420  1  0.11435274  0.12920191  0.88988145  1
  O  O421  1  0.13108137  0.62832916  0.38387924  1
  O  O422  1  0.12587702  0.62409724  0.86889117  1
  O  O423  1  0.63260517  0.12089539  0.38519773  1
  O  O424  1  0.63414923  0.13586385  0.87916804  1
  O  O425  1  0.62230237  0.63103711  0.38375344  1
  O  O426  1  0.62739333  0.62790164  0.87528842  1
