# generated using pymatgen
data_V85Zn86O256
_symmetry_space_group_name_H-M   'P 1'
_cell_length_a   16.99006965
_cell_length_b   16.98452331
_cell_length_c   16.98413656
_cell_angle_alpha   89.88250952
_cell_angle_beta   90.01622761
_cell_angle_gamma   90.01023649
_symmetry_Int_Tables_number   1
_chemical_formula_structural   V85Zn86O256
_chemical_formula_sum   'V85 Zn86 O256'
_cell_volume   4901.07171275
_cell_formula_units_Z   1
loop_
 _symmetry_equiv_pos_site_id
 _symmetry_equiv_pos_as_xyz
  1  'x, y, z'
loop_
 _atom_site_type_symbol
 _atom_site_label
 _atom_site_symmetry_multiplicity
 _atom_site_fract_x
 _atom_site_fract_y
 _atom_site_fract_z
 _atom_site_occupancy
  V  V0  1  0.62308352  0.37479404  0.24515842  1
  V  V1  1  0.49792586  0.12240577  0.12472283  1
  V  V2  1  0.74831728  0.87652601  0.62435628  1
  V  V3  1  0.24870310  0.37376461  0.61924524  1
  V  V4  1  0.25160710  0.47725185  0.24503191  1
  V  V5  1  0.00002920  0.62681844  0.12814626  1
  V  V6  1  0.74877822  0.00086335  0.74877746  1
  V  V7  1  0.75350959  0.62157754  0.37358733  1
  V  V8  1  0.26657657  0.86707049  0.14383124  1
  V  V9  1  0.62186217  0.75078825  0.87308425  1
  V  V10  1  0.75603920  0.62656497  0.85605291  1
  V  V11  1  0.76065510  0.36681726  0.12218753  1
  V  V12  1  0.37141918  0.12351576  0.25254433  1
  V  V13  1  0.37340188  0.12800757  0.74765495  1
  V  V14  1  0.51669126  0.37798944  0.87639037  1
  V  V15  1  0.86871880  0.00081207  0.36697805  1
  V  V16  1  0.87563581  0.87404983  0.00108247  1
  V  V17  1  0.12812373  0.12723037  -0.00399679  1
  V  V18  1  0.74876836  0.87923019  0.12917844  1
  V  V19  1  0.25133216  0.61459036  0.88208891  1
  V  V20  1  0.74842308  0.11894636  0.36669549  1
  V  V21  1  0.37886971  0.38272238  0.49794811  1
  V  V22  1  0.37109565  0.25322220  0.62035249  1
  V  V23  1  0.00146648  -0.00011251  0.00210902  1
  V  V24  1  0.24362468  0.00760911  0.25813711  1
  V  V25  1  0.75317478  0.47721704  0.73880592  1
  V  V26  1  0.87411848  -0.00102572  0.87442270  1
  V  V27  1  -0.00283120  0.00302945  0.49901480  1
  V  V28  1  0.12422750  0.75201710  0.87630597  1
  V  V29  1  0.62049484  0.74623194  0.36849662  1
  V  V30  1  0.37160393  0.00253000  0.37673755  1
  V  V31  1  -0.01490176  0.49957137  -0.00251819  1
  V  V32  1  0.24899693  0.87482744  0.62467548  1
  V  V33  1  0.74839153  0.74541993  -0.00060460  1
  V  V34  1  0.62452201  -0.00012453  0.62434527  1
  V  V35  1  0.12829499  0.50752870  0.61759849  1
  V  V36  1  0.49024219  0.63755578  0.13513354  1
  V  V37  1  0.62239651  0.48567842  0.62534806  1
  V  V38  1  0.37715967  0.38174192  -0.00214896  1
  V  V39  1  0.23279134  0.74192835  0.50019327  1
  V  V40  1  0.50247850  0.00072668  -0.00112813  1
  V  V41  1  0.13233638  0.26834639  0.37239816  1
  V  V42  1  -0.00432087  0.74068227  0.75094835  1
  V  V43  1  -0.00082621  0.87013297  0.37632645  1
  V  V44  1  0.37454496  0.87584987  -0.00156231  1
  V  V45  1  0.74546359  0.13020631  0.87435916  1
  V  V46  1  0.75597151  0.49303140  0.25080967  1
  V  V47  1  0.87690605  0.61952297  0.25370602  1
  V  V48  1  0.87582147  0.12559188  0.74699356  1
  V  V49  1  0.24983307  -0.00005453  0.74987752  1
  V  V50  1  0.61860167  0.61570252  0.49801656  1
  V  V51  1  0.62338410  0.12289230  0.49862529  1
  V  V52  1  0.62776435  0.87998696  0.25036491  1
  V  V53  1  0.62368428  0.13519640  -0.00244780  1
  V  V54  1  -0.01629690  0.49796213  0.49616645  1
  V  V55  1  0.12647714  0.37369280  0.76273865  1
  V  V56  1  0.51141877  0.25620836  0.75465137  1
  V  V57  1  0.25086305  0.24669963  -0.00618238  1
  V  V58  1  0.87472079  0.74882303  0.12767398  1
  V  V59  1  0.36747975  0.25221338  0.12352873  1
  V  V60  1  0.12333382  0.00312297  0.62440653  1
  V  V61  1  0.49892251  0.62362042  0.62599698  1
  V  V62  1  0.12361244  0.87657265  0.75053446  1
  V  V63  1  0.74954521  0.74832611  0.49982091  1
  V  V64  1  0.12354937  0.00203078  0.12710965  1
  V  V65  1  0.87300967  0.74069014  0.62908714  1
  V  V66  1  -0.00086520  0.12683015  0.62179340  1
  V  V67  1  -0.00661809  0.26005241  0.25417911  1
  V  V68  1  0.87344190  0.26227442  0.61935172  1
  V  V69  1  0.25287243  0.75340053  0.00462581  1
  V  V70  1  0.50022130  0.38323082  0.37799937  1
  V  V71  1  0.49860898  0.86849575  0.37220471  1
  V  V72  1  0.00527153  0.25239398  0.75284035  1
  V  V73  1  0.62293405  0.24942439  0.37354743  1
  V  V74  1  0.11686517  0.87193052  0.25565090  1
  V  V75  1  0.24690911  0.63143241  0.36134641  1
  V  V76  1  -0.00075567  0.87451271  0.87589548  1
  V  V77  1  0.12271896  0.62605968  0.00487848  1
  V  V78  1  0.77154441  0.25063942  0.00163275  1
  V  V79  1  0.37404961  0.00523089  0.87376417  1
  V  V80  1  0.37315617  0.87024940  0.50170778  1
  V  V81  1  0.49990951  0.12654184  0.62487916  1
  V  V82  1  0.75317758  0.25678444  0.50384832  1
  V  V83  1  0.87306153  0.87533480  0.50040016  1
  V  V84  1  0.13519820  0.13119319  0.48873645  1
  Zn  Zn85  1  0.49707378  -0.00166541  0.50188470  1
  Zn  Zn86  1  0.49618537  0.75191423  0.74999954  1
  Zn  Zn87  1  0.39227548  0.50471223  0.87775021  1
  Zn  Zn88  1  0.24294030  0.13018375  0.86875040  1
  Zn  Zn89  1  0.88069984  0.50059473  0.85467977  1
  Zn  Zn90  1  0.61404112  0.61155078  -0.00381461  1
  Zn  Zn91  1  0.01034980  0.62927032  0.61870323  1
  Zn  Zn92  1  0.37677246  0.62426705  0.75623582  1
  Zn  Zn93  1  0.25317113  0.49863961  0.75309807  1
  Zn  Zn94  1  0.49614631  0.25017569  0.24919361  1
  Zn  Zn95  1  -0.00671837  0.36659941  0.88489682  1
  Zn  Zn96  1  0.37445604  0.74651730  0.62909447  1
  Zn  Zn97  1  0.87109933  0.12724473  0.24097147  1
  Zn  Zn98  1  0.94144639  0.41456688  0.35291574  1
  Zn  Zn99  1  0.12665764  0.47943676  0.13740250  1
  Zn  Zn100  1  0.50161302  0.87428147  0.87267959  1
  Zn  Zn101  1  0.62879114  0.00270635  0.12974691  1
  Zn  Zn102  1  0.00280256  0.74404744  0.25956209  1
  Zn  Zn103  1  0.61352483  0.49749217  0.11012609  1
  Zn  Zn104  1  0.38235814  0.51516056  0.36759821  1
  Zn  Zn105  1  -0.01141303  0.14387301  0.12191152  1
  Zn  Zn106  1  0.62104260  0.87572879  0.74898686  1
  Zn  Zn107  1  0.18064863  0.19514014  0.19009439  1
  Zn  Zn108  1  0.18614556  0.18895036  0.68380367  1
  Zn  Zn109  1  0.18566264  0.68880191  0.18844333  1
  Zn  Zn110  1  0.19239052  0.68954586  0.69415460  1
  Zn  Zn111  1  0.68697914  0.18848008  0.18316100  1
  Zn  Zn112  1  0.68967245  0.18925128  0.68515989  1
  Zn  Zn113  1  0.68104435  0.68441214  0.18396195  1
  Zn  Zn114  1  0.67989134  0.68970811  0.68289151  1
  Zn  Zn115  1  0.31208121  0.30938097  0.31587602  1
  Zn  Zn116  1  0.31796513  0.31647559  0.81297288  1
  Zn  Zn117  1  0.30425169  0.81388358  0.31765940  1
  Zn  Zn118  1  0.31360420  0.80927206  0.81430305  1
  Zn  Zn119  1  0.80974773  0.30702860  0.31470032  1
  Zn  Zn120  1  0.82215392  0.31254071  0.81441340  1
  Zn  Zn121  1  0.81248276  0.80927398  0.31242603  1
  Zn  Zn122  1  0.81106885  0.81398589  0.81012961  1
  Zn  Zn123  1  0.19406451  0.44555186  0.43516288  1
  Zn  Zn124  1  0.17764056  0.42736363  0.96334956  1
  Zn  Zn125  1  0.18464108  0.93804305  0.44023276  1
  Zn  Zn126  1  0.18915134  0.93794171  0.93902284  1
  Zn  Zn127  1  0.69948326  0.43484067  0.43480541  1
  Zn  Zn128  1  0.69761613  0.43278367  0.92825611  1
  Zn  Zn129  1  0.68628595  0.93615346  0.43779240  1
  Zn  Zn130  1  0.68708877  0.93723869  0.93874635  1
  Zn  Zn131  1  0.30965741  0.05907681  0.06647410  1
  Zn  Zn132  1  0.31126699  0.06300177  0.56287182  1
  Zn  Zn133  1  0.31864185  0.56330931  0.07270423  1
  Zn  Zn134  1  0.31298476  0.56109698  0.55981343  1
  Zn  Zn135  1  0.81269883  0.06210193  0.06077302  1
  Zn  Zn136  1  0.81172793  0.06692624  0.55874437  1
  Zn  Zn137  1  0.78032654  0.54237919  0.04529335  1
  Zn  Zn138  1  0.80704247  0.55898530  0.56405641  1
  Zn  Zn139  1  0.43714822  0.44468696  0.18575442  1
  Zn  Zn140  1  0.43706023  0.44155043  0.69253176  1
  Zn  Zn141  1  0.42820240  0.91505831  0.19775974  1
  Zn  Zn142  1  0.43915446  0.93662935  0.68820839  1
  Zn  Zn143  1  0.93910575  0.43767845  0.17686330  1
  Zn  Zn144  1  0.94340413  0.43912253  0.68407860  1
  Zn  Zn145  1  0.93547533  0.94043816  0.18670555  1
  Zn  Zn146  1  0.93620321  0.93497079  0.68693439  1
  Zn  Zn147  1  0.05254670  0.06876802  0.31136245  1
  Zn  Zn148  1  0.06047374  0.06353374  0.81221854  1
  Zn  Zn149  1  0.07290513  0.55870850  0.31884262  1
  Zn  Zn150  1  0.07147855  0.55967142  0.81452154  1
  Zn  Zn151  1  0.55720888  0.05814510  0.31318311  1
  Zn  Zn152  1  0.56201366  0.06562728  0.81074248  1
  Zn  Zn153  1  0.56347928  0.56123790  0.30048076  1
  Zn  Zn154  1  0.57195215  0.56243725  0.80691699  1
  Zn  Zn155  1  0.43556321  0.19113199  0.43801825  1
  Zn  Zn156  1  0.43750044  0.19023761  0.93511046  1
  Zn  Zn157  1  0.43423211  0.68570071  0.43918124  1
  Zn  Zn158  1  0.43942424  0.68390736  0.95037167  1
  Zn  Zn159  1  0.93903504  0.19161115  0.43330088  1
  Zn  Zn160  1  0.94174503  0.18070398  0.93513753  1
  Zn  Zn161  1  0.94085192  0.68185463  0.44404658  1
  Zn  Zn162  1  0.93280325  0.68501680  0.93702582  1
  Zn  Zn163  1  0.06767683  0.31676307  0.07029512  1
  Zn  Zn164  1  0.06218674  0.31601911  0.56027940  1
  Zn  Zn165  1  0.06530043  0.81393130  0.06885680  1
  Zn  Zn166  1  0.05795270  0.81551643  0.56552484  1
  Zn  Zn167  1  0.55926511  0.31304190  0.06280723  1
  Zn  Zn168  1  0.55849517  0.30844548  0.55921027  1
  Zn  Zn169  1  0.56329310  0.80949700  0.06136579  1
  Zn  Zn170  1  0.56210738  0.80850914  0.55940440  1
  O  O171  1  0.12946218  0.11159241  0.11810313  1
  O  O172  1  0.11800119  0.12230858  0.61487193  1
  O  O173  1  0.11274591  0.63209256  0.11966281  1
  O  O174  1  0.13168003  0.60969258  0.63602799  1
  O  O175  1  0.61600863  0.12190200  0.11785011  1
  O  O176  1  0.62093609  0.12084210  0.61508135  1
  O  O177  1  0.61924052  0.61966484  0.11908406  1
  O  O178  1  0.61823096  0.62035203  0.61414139  1
  O  O179  1  0.38583409  0.36601803  0.38408122  1
  O  O180  1  0.38759037  0.37761610  0.88512490  1
  O  O181  1  0.38036324  0.88023930  0.38192133  1
  O  O182  1  0.37428517  0.88787610  0.88304687  1
  O  O183  1  0.83871171  0.39035584  0.37939138  1
  O  O184  1  0.88202410  0.38742885  0.87059593  1
  O  O185  1  0.87699657  0.88134586  0.38063184  1
  O  O186  1  0.87924549  0.87943939  0.88074862  1
  O  O187  1  0.26020994  -0.00441682  0.36905397  1
  O  O188  1  0.25970160  0.00125982  0.86891811  1
  O  O189  1  0.25219852  0.51214049  0.36031368  1
  O  O190  1  0.24143891  0.51247011  0.89046207  1
  O  O191  1  0.75624710  0.00802594  0.38195219  1
  O  O192  1  0.75523808  0.00849369  0.87129894  1
  O  O193  1  0.74276390  0.51463503  0.36498153  1
  O  O194  1  0.74742514  0.51131765  0.85190275  1
  O  O195  1  0.25010428  0.50725364  0.14338610  1
  O  O196  1  0.24349370  0.49213276  0.62848778  1
  O  O197  1  0.24492195  0.98776298  0.13946286  1
  O  O198  1  0.24383619  0.99459165  0.63101012  1
  O  O199  1  0.75009321  0.48651722  0.14250402  1
  O  O200  1  0.73758872  0.49881029  0.63174435  1
  O  O201  1  0.74631057  0.98254677  0.11366455  1
  O  O202  1  0.74489027  0.99718764  0.62834494  1
  O  O203  1  -0.01092401  0.36889440  0.25495241  1
  O  O204  1  0.01114143  0.36712995  0.74765251  1
  O  O205  1  0.00227034  0.87600613  0.25944697  1
  O  O206  1  0.00523144  0.86857111  0.75656170  1
  O  O207  1  0.50917922  0.37016352  0.25700587  1
  O  O208  1  0.49735796  0.36313502  0.76014224  1
  O  O209  1  0.50968780  0.87429982  0.26418277  1
  O  O210  1  0.50298356  0.87159301  0.75515421  1
  O  O211  1  0.48970580  0.12171926  0.24087386  1
  O  O212  1  0.49378800  0.13563384  0.74490945  1
  O  O213  1  0.50475965  0.63074763  0.23906091  1
  O  O214  1  0.50227402  0.62738873  0.73873137  1
  O  O215  1  0.99596102  0.13981783  0.24512312  1
  O  O216  1  0.99705618  0.13202739  0.74284367  1
  O  O217  1  0.99536470  0.62311115  0.24653984  1
  O  O218  1  1.00750969  0.63915060  0.75078380  1
  O  O219  1  0.36939420  0.24797118  0.00785337  1
  O  O220  1  0.38113694  0.25896735  0.51394002  1
  O  O221  1  0.36401235  0.76521591  -0.00630047  1
  O  O222  1  0.36791623  0.76306800  0.50401490  1
  O  O223  1  0.86987413  0.24424077  0.00135570  1
  O  O224  1  0.86497261  0.24101199  0.50705723  1
  O  O225  1  0.86898092  0.75604107  0.00656553  1
  O  O226  1  0.86925003  0.75536134  0.50858039  1
  O  O227  1  0.11614334  0.23819185  0.48758408  1
  O  O228  1  0.13750760  0.23552893  1.00920930  1
  O  O229  1  0.13424176  0.75569301  0.50477870  1
  O  O230  1  0.12981446  0.74598585  0.99635326  1
  O  O231  1  0.62819822  0.23907339  0.49331546  1
  O  O232  1  0.62387582  0.23592670  1.00119176  1
  O  O233  1  0.63085229  0.73983644  0.48910571  1
  O  O234  1  0.63729845  0.75351290  0.98843689  1
  O  O235  1  0.49064077  0.23493188  0.12505202  1
  O  O236  1  0.49204419  0.24691636  0.63490799  1
  O  O237  1  0.50478454  0.74012061  0.12374399  1
  O  O238  1  0.49940543  0.73766790  0.62477115  1
  O  O239  1  1.01093802  0.25693234  0.14501450  1
  O  O240  1  0.99325856  0.24543174  0.62969314  1
  O  O241  1  0.99313232  0.74317277  0.12927796  1
  O  O242  1  0.99160341  0.74875829  0.63287707  1
  O  O243  1  0.00965815  0.25153211  0.36446551  1
  O  O244  1  -0.00606030  0.24828539  0.85774113  1
  O  O245  1  -0.00936828  0.76597666  0.37826524  1
  O  O246  1  0.00222676  0.75482238  0.86957110  1
  O  O247  1  0.51158696  0.25485238  0.37273516  1
  O  O248  1  0.49766518  0.25457375  0.86017270  1
  O  O249  1  0.50832714  0.75830156  0.38321872  1
  O  O250  1  0.51294819  0.74834923  0.87925949  1
  O  O251  1  0.23388684  0.12379171  0.50465172  1
  O  O252  1  0.24503921  0.12772177  0.99833179  1
  O  O253  1  0.24780675  0.64122660  0.50602151  1
  O  O254  1  0.24218950  0.63523186  1.00167296  1
  O  O255  1  0.73722281  0.12976510  0.49042301  1
  O  O256  1  0.74411139  0.13383972  0.99437835  1
  O  O257  1  0.74253971  0.62828006  0.49074013  1
  O  O258  1  0.75585185  0.64185161  0.99028302  1
  O  O259  1  0.27334687  0.36050736  -0.00933833  1
  O  O260  1  0.25930013  0.37827476  0.51268056  1
  O  O261  1  0.25569039  0.87070080  0.00964746  1
  O  O262  1  0.25451585  0.86767381  0.50366650  1
  O  O263  1  0.74871215  0.35431866  0.00288118  1
  O  O264  1  0.73676749  0.35453742  0.50338237  1
  O  O265  1  0.75577523  0.86530376  0.00580466  1
  O  O266  1  0.75330719  0.86802361  0.50405923  1
  O  O267  1  0.14215836  0.50198994  0.24898254  1
  O  O268  1  0.12867428  0.48894675  0.74259302  1
  O  O269  1  0.12671075  1.00085182  0.24492764  1
  O  O270  1  0.12894500  0.99643094  0.74477130  1
  O  O271  1  0.63832345  0.48320249  0.25446747  1
  O  O272  1  0.63878304  0.50126538  0.73361442  1
  O  O273  1  0.62243324  0.98530374  0.25063472  1
  O  O274  1  0.63135936  1.00272749  0.74180135  1
  O  O275  1  0.36515383  0.00354923  0.25822432  1
  O  O276  1  0.37030669  0.00612696  0.75595410  1
  O  O277  1  0.35909464  0.48892307  0.25573191  1
  O  O278  1  0.36988108  0.50529468  0.76001930  1
  O  O279  1  0.87584098  0.00010462  0.26476478  1
  O  O280  1  0.86946551  0.00529549  0.75427850  1
  O  O281  1  0.87029921  0.50920481  0.24796896  1
  O  O282  1  0.85722094  0.49795761  0.73556580  1
  O  O283  1  0.12752383  0.36699055  0.38417227  1
  O  O284  1  0.11944344  0.38154360  0.86608181  1
  O  O285  1  0.10912719  0.88755149  0.36832683  1
  O  O286  1  0.11940887  0.87193377  0.87144923  1
  O  O287  1  0.62077966  0.36624115  0.36919590  1
  O  O288  1  0.61514883  0.36854385  0.88091381  1
  O  O289  1  0.61891074  0.86710651  0.37156498  1
  O  O290  1  0.62581568  0.86548504  0.87308997  1
  O  O291  1  0.37999008  0.12822142  0.13297822  1
  O  O292  1  0.37909342  0.13315905  0.62718079  1
  O  O293  1  0.38874902  0.63113802  0.12368758  1
  O  O294  1  0.38956762  0.62158566  0.62169501  1
  O  O295  1  0.88003059  0.11222429  0.12955634  1
  O  O296  1  0.88205402  0.12787708  0.62991737  1
  O  O297  1  0.88549603  0.63005818  0.13734077  1
  O  O298  1  0.87002174  0.64029929  0.62238730  1
  O  O299  1  0.26178286  0.24287805  0.11661880  1
  O  O300  1  0.26117258  0.26078620  0.63112309  1
  O  O301  1  0.23921016  0.76093036  0.11287113  1
  O  O302  1  0.25078665  0.75636888  0.61602170  1
  O  O303  1  0.74828923  0.25148296  0.10941697  1
  O  O304  1  0.76176076  0.23893563  0.61519443  1
  O  O305  1  0.75441547  0.75694079  0.11740356  1
  O  O306  1  0.75435019  0.75606180  0.62003664  1
  O  O307  1  0.23162556  0.24900572  0.37042646  1
  O  O308  1  0.25982672  0.24520810  0.88778895  1
  O  O309  1  0.25274169  0.74482482  0.39099888  1
  O  O310  1  0.24339871  0.74645316  0.88854005  1
  O  O311  1  0.73717243  0.23860501  0.38319943  1
  O  O312  1  0.75908724  0.23823763  0.88695569  1
  O  O313  1  0.74147124  0.74019966  0.37936630  1
  O  O314  1  0.74640622  0.74238252  0.87745705  1
  O  O315  1  0.01068181  0.11915508  0.00467977  1
  O  O316  1  0.00575285  0.11970123  0.50379641  1
  O  O317  1  0.00272240  0.62579292  0.01073581  1
  O  O318  1  0.00001809  0.60952836  0.50573624  1
  O  O319  1  0.50483232  0.11987685  0.00383424  1
  O  O320  1  0.50908224  0.12544623  0.50424248  1
  O  O321  1  0.50338899  0.62110567  0.01460581  1
  O  O322  1  0.51197500  0.62640999  0.50555327  1
  O  O323  1  0.49309489  0.37100708  0.48859902  1
  O  O324  1  0.49171430  0.36264362  0.98417329  1
  O  O325  1  0.49077576  0.87613830  0.49193764  1
  O  O326  1  0.49344299  0.88586490  0.99743833  1
  O  O327  1  1.00665703  0.39813228  0.50615960  1
  O  O328  1  1.00062475  0.39749916  1.00086440  1
  O  O329  1  0.99350646  0.88270620  0.49459057  1
  O  O330  1  0.99625330  0.87865089  0.99553240  1
  O  O331  1  0.50026942  0.48642249  0.36705976  1
  O  O332  1  0.50936966  0.48307269  0.86767339  1
  O  O333  1  0.48802774  0.98873760  0.37804214  1
  O  O334  1  0.49184298  1.00309704  0.88262054  1
  O  O335  1  1.00013747  0.50471586  0.38935327  1
  O  O336  1  0.99556226  0.51425296  0.89032070  1
  O  O337  1  0.98716669  0.99330712  0.38045845  1
  O  O338  1  0.99399922  0.99446157  0.88096946  1
  O  O339  1  0.01290547  -0.00639109  0.11878373  1
  O  O340  1  0.00384153  0.00512116  0.62000195  1
  O  O341  1  0.00456315  0.51089580  0.11529169  1
  O  O342  1  0.01542624  0.50468261  0.62074954  1
  O  O343  1  0.49748590  0.01074902  0.11393291  1
  O  O344  1  0.50505910  0.00892487  0.62315735  1
  O  O345  1  0.50418649  0.51390959  0.13173313  1
  O  O346  1  0.51504516  0.50807229  0.63158070  1
  O  O347  1  0.24788544  0.37766463  0.24748952  1
  O  O348  1  0.24291081  0.37507930  0.74385810  1
  O  O349  1  0.22864281  0.89174628  0.25749978  1
  O  O350  1  0.24343128  0.87952861  0.74564554  1
  O  O351  1  0.74125038  0.37301209  0.24040681  1
  O  O352  1  0.74726671  0.37959548  0.75171489  1
  O  O353  1  0.74191445  0.86799308  0.24002076  1
  O  O354  1  0.74763698  0.88418032  0.74238247  1
  O  O355  1  0.25871658  0.11542483  0.24308111  1
  O  O356  1  0.25439783  0.11886339  0.74869742  1
  O  O357  1  0.25738207  0.64341668  0.26169462  1
  O  O358  1  0.24926670  0.62340196  0.77033950  1
  O  O359  1  0.74748985  0.13132242  0.26362307  1
  O  O360  1  0.75443821  0.12198728  0.75748739  1
  O  O361  1  0.75711132  0.61527121  0.25397008  1
  O  O362  1  0.74985971  0.63208545  0.75649306  1
  O  O363  1  0.38400113  0.11527015  0.36490505  1
  O  O364  1  0.37447544  0.11677574  0.86720058  1
  O  O365  1  0.35646828  0.62381379  0.38999449  1
  O  O366  1  0.36361636  0.62109262  0.88526682  1
  O  O367  1  0.86353943  0.11608692  0.37634443  1
  O  O368  1  0.86678366  0.11783021  0.86866070  1
  O  O369  1  0.86377384  0.63361364  0.36560537  1
  O  O370  1  0.85910381  0.62155044  0.87366101  1
  O  O371  1  0.14670333  0.39237028  0.07187742  1
  O  O372  1  0.13505725  0.38263191  0.63125008  1
  O  O373  1  0.13302436  0.88465038  0.13641358  1
  O  O374  1  0.12845145  0.88328895  0.63087430  1
  O  O375  1  0.62978243  0.37223666  0.13270317  1
  O  O376  1  0.61641461  0.38750247  0.61839716  1
  O  O377  1  0.63117112  0.87431347  0.13423193  1
  O  O378  1  0.63076849  0.88165722  0.62159000  1
  O  O379  1  0.11479816  0.25004493  0.26479486  1
  O  O380  1  0.11547137  0.25917029  0.74216180  1
  O  O381  1  0.12064040  0.76795170  0.24731229  1
  O  O382  1  0.11682475  0.75783345  0.75587752  1
  O  O383  1  0.62469200  0.25706576  0.25786491  1
  O  O384  1  0.60987082  0.24583941  0.74316909  1
  O  O385  1  0.63172278  0.75823444  0.26411441  1
  O  O386  1  0.62380354  0.75287581  0.76138723  1
  O  O387  1  0.37404124  0.23910541  0.24300944  1
  O  O388  1  0.38263210  0.24683135  0.73920440  1
  O  O389  1  0.34149740  0.82462402  0.21054383  1
  O  O390  1  0.37635140  0.74274978  0.74724697  1
  O  O391  1  0.88813905  0.24586505  0.25941137  1
  O  O392  1  0.88262511  0.24322294  0.73925352  1
  O  O393  1  0.87598301  0.73818247  0.24503675  1
  O  O394  1  0.88518687  0.75860606  0.74103062  1
  O  O395  1  0.37194481  0.48547152  0.49362025  1
  O  O396  1  0.37188863  0.48285160  1.00229274  1
  O  O397  1  0.37190902  0.99124349  0.49221463  1
  O  O398  1  0.38213577  1.00167653  0.98835960  1
  O  O399  1  0.88444720  0.49839055  0.50993816  1
  O  O400  1  0.88513375  0.51217678  1.00586407  1
  O  O401  1  0.87791225  0.99457423  0.49305526  1
  O  O402  1  0.88119240  0.99299667  0.99308634  1
  O  O403  1  0.12294571  0.00398340  0.00919063  1
  O  O404  1  0.11843223  0.00939042  0.50564390  1
  O  O405  1  0.11081093  0.52338333  -0.00306227  1
  O  O406  1  0.13167062  0.50113680  0.51678456  1
  O  O407  1  0.61468190  0.00849067  0.00075940  1
  O  O408  1  0.62216584  0.00940369  0.50350593  1
  O  O409  1  0.67096287  0.50794117  0.00757742  1
  O  O410  1  0.63632608  0.50829585  0.51082839  1
  O  O411  1  0.39058083  0.36052520  0.10908074  1
  O  O412  1  0.37120437  0.37203623  0.61933212  1
  O  O413  1  0.36949149  0.90311091  0.10009510  1
  O  O414  1  0.36809049  0.87845018  0.61514164  1
  O  O415  1  0.85943918  0.37427665  0.12504808  1
  O  O416  1  0.87937778  0.36029447  0.62693701  1
  O  O417  1  0.86779286  0.86959237  0.12206729  1
  O  O418  1  0.86795353  0.86832182  0.61848377  1
  O  O419  1  0.12371057  0.11973845  0.38816800  1
  O  O420  1  0.12657460  0.11552292  0.89029977  1
  O  O421  1  0.14665940  0.62625636  0.37592094  1
  O  O422  1  0.13210898  0.63467080  0.88554415  1
  O  O423  1  0.62610296  0.12869165  0.37930687  1
  O  O424  1  0.63721549  0.11909148  0.88286828  1
  O  O425  1  0.63044050  0.62932178  0.37837417  1
  O  O426  1  0.63948313  0.63257351  0.87657975  1
