# generated using pymatgen
data_V85Zn86O256
_symmetry_space_group_name_H-M   'P 1'
_cell_length_a   16.95826590
_cell_length_b   16.98609226
_cell_length_c   16.96102027
_cell_angle_alpha   90.14640165
_cell_angle_beta   89.84216250
_cell_angle_gamma   89.96565331
_symmetry_Int_Tables_number   1
_chemical_formula_structural   V85Zn86O256
_chemical_formula_sum   'V85 Zn86 O256'
_cell_volume   4885.66569624
_cell_formula_units_Z   1
loop_
 _symmetry_equiv_pos_site_id
 _symmetry_equiv_pos_as_xyz
  1  'x, y, z'
loop_
 _atom_site_type_symbol
 _atom_site_label
 _atom_site_symmetry_multiplicity
 _atom_site_fract_x
 _atom_site_fract_y
 _atom_site_fract_z
 _atom_site_occupancy
  V  V0  1  -0.00192026  0.37988976  0.87358420  1
  V  V1  1  0.75197686  0.74663446  -0.00443086  1
  V  V2  1  0.12673174  0.87194888  0.25006299  1
  V  V3  1  0.62725462  0.75001038  0.38535215  1
  V  V4  1  0.23354557  0.24914493  -0.00838038  1
  V  V5  1  0.38865466  0.24795338  0.62904425  1
  V  V6  1  0.25080318  0.87300819  0.12560685  1
  V  V7  1  0.12616878  0.37005617  0.75474884  1
  V  V8  1  0.62085818  0.24848321  0.86700646  1
  V  V9  1  0.61822474  0.25079847  0.37400458  1
  V  V10  1  0.24999441  0.12645692  0.37607310  1
  V  V11  1  0.12034476  0.37403366  0.23741752  1
  V  V12  1  0.75104181  0.24705806  -0.00853508  1
  V  V13  1  0.62933685  0.12451481  -0.00851914  1
  V  V14  1  0.75399050  0.00331619  0.24987592  1
  V  V15  1  0.25147100  0.74066239  -0.00469358  1
  V  V16  1  0.25148656  0.62100569  0.37639274  1
  V  V17  1  0.12561082  0.62410292  0.50173637  1
  V  V18  1  0.49982534  0.12814657  0.12558307  1
  V  V19  1  0.75215452  0.87555071  0.12459468  1
  V  V20  1  0.62751008  0.87541047  0.25108652  1
  V  V21  1  0.25151543  0.37290024  0.62561027  1
  V  V22  1  0.62790560  0.74484880  0.87248542  1
  V  V23  1  0.38442463  0.37288020  0.50053907  1
  V  V24  1  0.50199536  0.51812457  0.50362904  1
  V  V25  1  0.00213665  0.25091758  0.75113985  1
  V  V26  1  0.38038173  0.87994443  0.50223222  1
  V  V27  1  0.49739083  -0.00108667  -0.00430452  1
  V  V28  1  0.61912403  0.37345526  0.25379072  1
  V  V29  1  0.77051021  0.75559870  0.49923862  1
  V  V30  1  0.86485080  0.62333786  0.75213155  1
  V  V31  1  0.37864439  0.49266918  0.37677962  1
  V  V32  1  0.00440827  0.61073412  0.11769087  1
  V  V33  1  0.24739088  0.49371544  0.23823943  1
  V  V34  1  0.88284438  0.23982693  0.12462498  1
  V  V35  1  0.50267151  0.74923569  0.25030255  1
  V  V36  1  0.50078595  0.74216565  0.74645059  1
  V  V37  1  0.49903008  0.37085982  0.86611367  1
  V  V38  1  0.74683199  0.62684633  0.38115212  1
  V  V39  1  0.62457596  0.51584150  0.62537625  1
  V  V40  1  0.63020609  0.62293845  -0.00295149  1
  V  V41  1  0.74794720  0.50081811  0.25072610  1
  V  V42  1  -0.00393968  0.74800902  0.74684150  1
  V  V43  1  0.87752752  0.38264451  -0.00263479  1
  V  V44  1  0.63100081  0.37674387  0.74391155  1
  V  V45  1  0.61301729  0.12063456  0.50186013  1
  V  V46  1  0.87520868  0.62127006  0.25155613  1
  V  V47  1  0.50209644  0.87811267  0.37802217  1
  V  V48  1  0.38068273  0.00076368  0.37845858  1
  V  V49  1  0.62423688  0.87451636  0.74670305  1
  V  V50  1  0.37645086  0.13184602  0.74870388  1
  V  V51  1  0.12580764  0.00016624  0.62831691  1
  V  V52  1  0.87719832  -0.00114292  0.37164508  1
  V  V53  1  -0.00702008  -0.00563397  0.50161456  1
  V  V54  1  0.12669130  0.12641337  0.50138771  1
  V  V55  1  0.25118056  0.87924577  0.62865654  1
  V  V56  1  0.74691069  0.37511758  0.12292469  1
  V  V57  1  0.75226777  0.00587273  0.75380178  1
  V  V58  1  -0.00133121  0.87291605  0.37867602  1
  V  V59  1  0.37869115  0.74888153  0.12519158  1
  V  V60  1  0.50252042  0.49893903  -0.00193238  1
  V  V61  1  0.00055439  0.74766204  0.24755849  1
  V  V62  1  0.12941729  0.74277309  0.87564785  1
  V  V63  1  0.37415650  0.12453146  0.24924334  1
  V  V64  1  0.87894632  0.87561631  0.00008354  1
  V  V65  1  0.87093832  0.25887815  0.62339817  1
  V  V66  1  0.75454882  0.12621276  0.37172997  1
  V  V67  1  0.36286594  0.00296009  0.86896170  1
  V  V68  1  0.36606221  0.25490969  0.11866254  1
  V  V69  1  0.12532159  0.50029784  0.62804227  1
  V  V70  1  0.76354854  0.87426057  0.61817705  1
  V  V71  1  -0.00440548  0.12510716  0.62740105  1
  V  V72  1  -0.00391549  0.62908935  0.62768452  1
  V  V73  1  0.85933108  0.50250883  0.86990035  1
  V  V74  1  0.37876902  0.74459609  0.62418275  1
  V  V75  1  0.62569716  0.00084461  0.12440244  1
  V  V76  1  -0.00594382  0.49169768  0.49745464  1
  V  V77  1  0.12098721  0.00604205  0.11841063  1
  V  V78  1  0.36792897  0.62520850  0.75256633  1
  V  V79  1  -0.00192141  0.87494912  0.87776032  1
  V  V80  1  0.61271290  0.00194593  0.62000357  1
  V  V81  1  0.37125629  0.50259688  0.87165467  1
  V  V82  1  0.12749637  0.74803778  0.37560242  1
  V  V83  1  0.12853111  0.87945303  0.75148432  1
  V  V84  1  0.75123040  0.25754723  0.50054250  1
  Zn  Zn85  1  0.50305756  0.62441541  0.12666792  1
  Zn  Zn86  1  0.37571848  0.87435560  -0.00289470  1
  Zn  Zn87  1  0.22729416  0.12610446  0.87767346  1
  Zn  Zn88  1  0.24947987  0.25231504  0.50015212  1
  Zn  Zn89  1  0.00533462  0.01870950  -0.00003519  1
  Zn  Zn90  1  0.87615301  0.74859152  0.12331003  1
  Zn  Zn91  1  0.11384016  0.24723773  0.36619500  1
  Zn  Zn92  1  0.75355573  0.38654458  0.62312545  1
  Zn  Zn93  1  0.25102755  0.75012012  0.50052105  1
  Zn  Zn94  1  0.49792327  0.87441203  0.87459070  1
  Zn  Zn95  1  0.24727987  0.50356857  0.75436123  1
  Zn  Zn96  1  0.86660062  0.13326266  0.76093100  1
  Zn  Zn97  1  0.37804971  0.62168504  0.25094662  1
  Zn  Zn98  1  0.13123581  0.60721732  1.00911374  1
  Zn  Zn99  1  0.49447439  0.25648630  0.25189200  1
  Zn  Zn100  1  -0.00663330  0.36184450  0.37094077  1
  Zn  Zn101  1  0.95016548  0.19190651  0.27836563  1
  Zn  Zn102  1  0.37176345  0.37684341  0.00029191  1
  Zn  Zn103  1  0.86623666  0.48832529  0.38598551  1
  Zn  Zn104  1  0.86805901  0.00821901  0.88180327  1
  Zn  Zn105  1  0.62220928  0.50071968  0.12718499  1
  Zn  Zn106  1  0.25055323  -0.00072473  0.24866530  1
  Zn  Zn107  1  0.18147234  0.18736996  0.18718257  1
  Zn  Zn108  1  0.19454037  0.18402146  0.69168272  1
  Zn  Zn109  1  0.18934229  0.68194214  0.18673873  1
  Zn  Zn110  1  0.18723263  0.69123758  0.68862245  1
  Zn  Zn111  1  0.69031715  0.18957274  0.18528799  1
  Zn  Zn112  1  0.68260288  0.18712579  0.68307300  1
  Zn  Zn113  1  0.68770602  0.68873608  0.18609381  1
  Zn  Zn114  1  0.69020145  0.69294966  0.67984899  1
  Zn  Zn115  1  0.30840094  0.31165771  0.30939748  1
  Zn  Zn116  1  0.31032568  0.31068232  0.81583257  1
  Zn  Zn117  1  0.31494524  0.81106915  0.31246229  1
  Zn  Zn118  1  0.31332962  0.81423077  0.81350777  1
  Zn  Zn119  1  0.80982732  0.31412120  0.31156891  1
  Zn  Zn120  1  0.81100734  0.31410860  0.80956697  1
  Zn  Zn121  1  0.81597715  0.81463923  0.31323921  1
  Zn  Zn122  1  0.81201153  0.81376590  0.81070141  1
  Zn  Zn123  1  0.18280410  0.43233073  0.43387180  1
  Zn  Zn124  1  0.19155386  0.43032053  0.95096109  1
  Zn  Zn125  1  0.18961370  0.93823653  0.44039194  1
  Zn  Zn126  1  0.18835202  0.92882504  0.94044125  1
  Zn  Zn127  1  0.68173443  0.43958508  0.43787388  1
  Zn  Zn128  1  0.68646217  0.43373482  0.93415448  1
  Zn  Zn129  1  0.68989182  0.93921629  0.43945219  1
  Zn  Zn130  1  0.68569006  0.93299495  0.93607329  1
  Zn  Zn131  1  0.30663166  0.06676880  0.05766258  1
  Zn  Zn132  1  0.31399193  0.06237022  0.56514943  1
  Zn  Zn133  1  0.31936382  0.56326568  0.06011984  1
  Zn  Zn134  1  0.31266878  0.56033105  0.56437386  1
  Zn  Zn135  1  0.81308063  0.06075124  0.05974588  1
  Zn  Zn136  1  0.80703664  0.06777133  0.56497513  1
  Zn  Zn137  1  0.81498227  0.56254197  0.06452251  1
  Zn  Zn138  1  0.81183588  0.56764663  0.56509639  1
  Zn  Zn139  1  0.43583246  0.43861796  0.18667728  1
  Zn  Zn140  1  0.44253328  0.43873768  0.68545919  1
  Zn  Zn141  1  0.43840824  0.93735103  0.18966358  1
  Zn  Zn142  1  0.43541977  0.93673297  0.69263567  1
  Zn  Zn143  1  0.93490348  0.43326597  0.18849796  1
  Zn  Zn144  1  0.93707514  0.44266206  0.68865733  1
  Zn  Zn145  1  0.94110589  0.94166732  0.18787283  1
  Zn  Zn146  1  0.93903517  0.93763740  0.69036671  1
  Zn  Zn147  1  0.06642718  0.05736025  0.31033961  1
  Zn  Zn148  1  0.05260727  0.06148388  0.81276591  1
  Zn  Zn149  1  0.06458644  0.55841858  0.31086086  1
  Zn  Zn150  1  0.08416179  0.53599831  0.84778919  1
  Zn  Zn151  1  0.56453334  0.06526336  0.31297019  1
  Zn  Zn152  1  0.55830042  0.06207129  0.80734901  1
  Zn  Zn153  1  0.56202018  0.56304356  0.31538957  1
  Zn  Zn154  1  0.56267936  0.56111859  0.80995769  1
  Zn  Zn155  1  0.43550078  0.18953438  0.44020801  1
  Zn  Zn156  1  0.43666630  0.18409418  0.93565557  1
  Zn  Zn157  1  0.43584030  0.69054381  0.43587694  1
  Zn  Zn158  1  0.44047407  0.68556773  0.93573123  1
  Zn  Zn159  1  0.93499600  0.18395797  0.44784621  1
  Zn  Zn160  1  0.94240343  0.18999897  0.93417089  1
  Zn  Zn161  1  0.94031362  0.68037357  0.43537409  1
  Zn  Zn162  1  0.93878405  0.68534219  0.93269837  1
  Zn  Zn163  1  0.05982809  0.32014604  0.06288637  1
  Zn  Zn164  1  0.06226431  0.31163347  0.56542118  1
  Zn  Zn165  1  0.06669798  0.80745927  0.06204987  1
  Zn  Zn166  1  0.06297120  0.81140123  0.56263539  1
  Zn  Zn167  1  0.56072523  0.31185312  0.05873768  1
  Zn  Zn168  1  0.56622257  0.31394330  0.56047889  1
  Zn  Zn169  1  0.56438952  0.81359774  0.06203152  1
  Zn  Zn170  1  0.56382672  0.81458818  0.56444248  1
  O  O171  1  0.14005848  0.10311475  0.12382881  1
  O  O172  1  0.12076335  0.11924101  0.62019859  1
  O  O173  1  0.11004258  0.62534822  0.12543023  1
  O  O174  1  0.11870225  0.62096359  0.62321835  1
  O  O175  1  0.61830545  0.12124772  0.11532746  1
  O  O176  1  0.63086752  0.11399574  0.61384321  1
  O  O177  1  0.62405468  0.62333394  0.11174911  1
  O  O178  1  0.62400206  0.61498428  0.62906714  1
  O  O179  1  0.36595963  0.38398167  0.38595654  1
  O  O180  1  0.38670473  0.38117012  0.87248626  1
  O  O181  1  0.37906187  0.88132462  0.38263794  1
  O  O182  1  0.37713243  0.88956568  0.87527971  1
  O  O183  1  0.88067365  0.37989220  0.36515391  1
  O  O184  1  0.87577246  0.38149079  0.87949888  1
  O  O185  1  0.88278820  0.88819406  0.37334559  1
  O  O186  1  0.88112047  0.87520033  0.88355060  1
  O  O187  1  0.26092225  0.00820142  0.37496192  1
  O  O188  1  0.26079605  0.00199550  0.88643775  1
  O  O189  1  0.25894423  0.50669134  0.37330918  1
  O  O190  1  0.26973083  0.48784230  0.87218235  1
  O  O191  1  0.75863149  0.00635485  0.37180653  1
  O  O192  1  0.74744311  -0.01018730  0.85723811  1
  O  O193  1  0.74690431  0.51124841  0.37227260  1
  O  O194  1  0.75900026  0.49768185  0.87359597  1
  O  O195  1  0.25995795  0.50467426  0.13968745  1
  O  O196  1  0.24623500  0.48904791  0.62898448  1
  O  O197  1  0.24766404  0.98545956  0.12309729  1
  O  O198  1  0.24364937  0.98630821  0.62132259  1
  O  O199  1  0.74725910  0.48996246  0.12915040  1
  O  O200  1  0.72950513  0.50013399  0.60760903  1
  O  O201  1  0.74561960  0.99601255  0.12903980  1
  O  O202  1  0.74310277  0.98822152  0.63226697  1
  O  O203  1  0.01623936  0.38717182  0.25231451  1
  O  O204  1  0.00681434  0.36923560  0.75022528  1
  O  O205  1  0.00515610  0.86462516  0.25663216  1
  O  O206  1  0.00507983  0.86673225  0.75661261  1
  O  O207  1  0.51478148  0.37454421  0.24250881  1
  O  O208  1  0.51071211  0.37866975  0.75959353  1
  O  O209  1  0.50770338  0.87003076  0.25710758  1
  O  O210  1  0.51067671  0.86514277  0.75083475  1
  O  O211  1  0.49576257  0.12540161  0.23841362  1
  O  O212  1  0.47722429  0.12098551  0.75320338  1
  O  O213  1  0.49921350  0.63243749  0.24783373  1
  O  O214  1  0.49201225  0.63734895  0.75181006  1
  O  O215  1  1.01816951  0.12012292  0.23645344  1
  O  O216  1  1.00047666  0.13600790  0.74277875  1
  O  O217  1  0.99436376  0.62831648  0.24404333  1
  O  O218  1  0.99433916  0.63440403  0.74028674  1
  O  O219  1  0.37644461  0.24887944  0.01157037  1
  O  O220  1  0.37202992  0.25672942  0.50922828  1
  O  O221  1  0.37160260  0.75061205  0.00634984  1
  O  O222  1  0.37418320  0.75903027  0.50851263  1
  O  O223  1  0.86706756  0.26005307  0.00290678  1
  O  O224  1  0.86290209  0.24474387  0.51178469  1
  O  O225  1  0.86608247  0.75637635  -0.00254084  1
  O  O226  1  0.86995891  0.75294643  0.49268376  1
  O  O227  1  0.12462608  0.23443618  0.50176987  1
  O  O228  1  0.13591424  0.25625064  1.00841979  1
  O  O229  1  0.12756959  0.74289939  0.49342810  1
  O  O230  1  0.13464020  0.74600498  0.99138416  1
  O  O231  1  0.63095611  0.24244231  0.49286502  1
  O  O232  1  0.63132650  0.24328389  0.99109131  1
  O  O233  1  0.63228366  0.75689109  0.48807793  1
  O  O234  1  0.63093402  0.74436641  0.99194124  1
  O  O235  1  0.49427476  0.23866778  0.12293672  1
  O  O236  1  0.48762102  0.25359910  0.62256792  1
  O  O237  1  0.49399194  0.75214711  0.12988907  1
  O  O238  1  0.48962689  0.75743390  0.63427624  1
  O  O239  1  0.98059698  0.25962897  0.11939185  1
  O  O240  1  0.98985831  0.24665999  0.63045824  1
  O  O241  1  0.99968396  0.74463926  0.13856581  1
  O  O242  1  1.00566184  0.74230078  0.63462618  1
  O  O243  1  -0.00435971  0.24278639  0.37270929  1
  O  O244  1  -0.00996130  0.26611216  0.85821331  1
  O  O245  1  0.00626970  0.75064644  0.36626756  1
  O  O246  1  0.00763903  0.75847300  0.86763367  1
  O  O247  1  0.51368462  0.24369879  0.37111886  1
  O  O248  1  0.50975103  0.26005548  0.88374706  1
  O  O249  1  0.50888657  0.75600903  0.37141252  1
  O  O250  1  0.50975949  0.75316290  0.86626450  1
  O  O251  1  0.24199727  0.12305545  0.49496048  1
  O  O252  1  0.25169762  0.14187819  0.99408492  1
  O  O253  1  0.24547898  0.62396602  0.49226562  1
  O  O254  1  0.24876747  0.63678718  1.00704171  1
  O  O255  1  0.74247528  0.13310088  0.48863832  1
  O  O256  1  0.73754872  0.13226632  1.00293844  1
  O  O257  1  0.75810659  0.63776589  0.48797468  1
  O  O258  1  0.74334054  0.63536539  1.00441052  1
  O  O259  1  0.25827169  0.35738634  -0.00044079  1
  O  O260  1  0.25879934  0.37663987  0.51113912  1
  O  O261  1  0.25415166  0.86091221  0.01122380  1
  O  O262  1  0.26058940  0.87222351  0.50848226  1
  O  O263  1  0.75437407  0.36720997  0.00501128  1
  O  O264  1  0.74139944  0.36072101  0.49982921  1
  O  O265  1  0.75816523  0.86860621  0.00367810  1
  O  O266  1  0.75141793  0.87213960  0.51116583  1
  O  O267  1  0.14094004  0.49260612  0.25454214  1
  O  O268  1  0.12716839  0.48897260  0.74664169  1
  O  O269  1  0.13087207  0.98698161  0.23748596  1
  O  O270  1  0.11421356  0.98626362  0.74604960  1
  O  O271  1  0.62940297  0.49197228  0.25014133  1
  O  O272  1  0.61702083  0.49436970  0.73255490  1
  O  O273  1  0.63165710  0.99479375  0.24464051  1
  O  O274  1  0.63212348  0.99259413  0.74355570  1
  O  O275  1  0.37254621  0.00491002  0.25958597  1
  O  O276  1  0.37292089  0.00523645  0.76320359  1
  O  O277  1  0.36683687  0.49744985  0.26000998  1
  O  O278  1  0.37901641  0.51015447  0.75383694  1
  O  O279  1  0.87022547  -0.00158124  0.26042606  1
  O  O280  1  0.85938708  -0.00114024  0.74997609  1
  O  O281  1  0.86662613  0.51044583  0.24898328  1
  O  O282  1  0.87250963  0.51477991  0.75261876  1
  O  O283  1  0.11714655  0.36750584  0.36890697  1
  O  O284  1  0.11428171  0.37795922  0.86065983  1
  O  O285  1  0.12131248  0.86906603  0.37103337  1
  O  O286  1  0.11857767  0.86698266  0.86850789  1
  O  O287  1  0.63266941  0.36326405  0.36430799  1
  O  O288  1  0.61853915  0.36834638  0.86619128  1
  O  O289  1  0.62282606  0.86989286  0.37097627  1
  O  O290  1  0.62412943  0.86426302  0.86315254  1
  O  O291  1  0.38228603  0.13148574  0.12814020  1
  O  O292  1  0.36436933  0.13253945  0.63942824  1
  O  O293  1  0.37983129  0.63833615  0.12738856  1
  O  O294  1  0.37032042  0.63810093  0.63204151  1
  O  O295  1  0.87701679  0.14077071  0.10710014  1
  O  O296  1  0.87888652  0.13489811  0.63058547  1
  O  O297  1  0.88329166  0.62827346  0.13496217  1
  O  O298  1  0.88520664  0.62214532  0.63774705  1
  O  O299  1  0.26350052  0.24268347  0.11667644  1
  O  O300  1  0.25732775  0.26128565  0.62412470  1
  O  O301  1  0.25860016  0.75404693  0.12016997  1
  O  O302  1  0.25985298  0.76117961  0.62471674  1
  O  O303  1  0.75456799  0.25725716  0.11193770  1
  O  O304  1  0.75489053  0.25029767  0.61687299  1
  O  O305  1  0.75097794  0.75706483  0.11332666  1
  O  O306  1  0.74679980  0.76521800  0.61268343  1
  O  O307  1  0.25265779  0.23480415  0.37893901  1
  O  O308  1  0.24501256  0.24918680  0.88657760  1
  O  O309  1  0.24757363  0.73755004  0.37450101  1
  O  O310  1  0.24363668  0.75818756  0.88535371  1
  O  O311  1  0.74309039  0.24215825  0.38018320  1
  O  O312  1  0.73929653  0.25624679  0.88501134  1
  O  O313  1  0.74617004  0.74800776  0.38139167  1
  O  O314  1  0.73975305  0.75660141  0.88447976  1
  O  O315  1  0.04122239  0.12717204  -0.03572365  1
  O  O316  1  0.00836081  0.11419539  0.50793266  1
  O  O317  1  -0.00363769  0.63214230  0.01671246  1
  O  O318  1  0.00565481  0.62105328  0.51082067  1
  O  O319  1  0.50818016  0.11687781  0.00664227  1
  O  O320  1  0.51361436  0.12688714  0.49530457  1
  O  O321  1  0.51148046  0.61556808  -0.00117814  1
  O  O322  1  0.49609145  0.61700453  0.50145463  1
  O  O323  1  0.48698152  0.37976387  0.50215728  1
  O  O324  1  0.50213557  0.38538882  0.98889610  1
  O  O325  1  0.48815748  0.87020606  0.49470856  1
  O  O326  1  0.50049832  0.88740638  0.99891648  1
  O  O327  1  1.00441618  0.39024643  0.50314009  1
  O  O328  1  0.98678690  0.36878686  0.98662406  1
  O  O329  1  1.00739309  0.88679440  0.49609910  1
  O  O330  1  0.99072908  0.86345709  0.99244177  1
  O  O331  1  0.48905475  0.50562033  0.38795868  1
  O  O332  1  0.49556974  0.49211692  0.88001138  1
  O  O333  1  0.48856001  0.99519855  0.36931482  1
  O  O334  1  0.49252855  0.99899541  0.88321556  1
  O  O335  1  1.00050097  0.50731690  0.39354120  1
  O  O336  1  0.98071431  0.48342364  0.86244662  1
  O  O337  1  0.99537470  0.99448849  0.38271312  1
  O  O338  1  0.99831154  0.98127700  0.87901235  1
  O  O339  1  0.01510259  -0.00492679  0.11935396  1
  O  O340  1  0.00402047  0.00334376  0.61971763  1
  O  O341  1  -0.00686386  0.51247354  0.12461136  1
  O  O342  1  0.00520479  0.50903179  0.61768751  1
  O  O343  1  0.50395026  0.00794394  0.11720081  1
  O  O344  1  0.51359059  -0.00727182  0.63087272  1
  O  O345  1  0.50060107  0.50064749  0.11095064  1
  O  O346  1  0.50736271  0.50053146  0.61159823  1
  O  O347  1  0.24338738  0.38850953  0.25343911  1
  O  O348  1  0.24238162  0.37345033  0.74225462  1
  O  O349  1  0.24651842  0.87161096  0.24091215  1
  O  O350  1  0.23904476  0.86953411  0.74192538  1
  O  O351  1  0.74004403  0.37996941  0.23990729  1
  O  O352  1  0.73568399  0.37534800  0.74703795  1
  O  O353  1  0.74715883  0.88125636  0.24465527  1
  O  O354  1  0.74155568  0.87696250  0.73795344  1
  O  O355  1  0.25526295  0.12287989  0.26034230  1
  O  O356  1  0.25938985  0.12742513  0.76508056  1
  O  O357  1  0.25146419  0.61229805  0.25978407  1
  O  O358  1  0.26268868  0.62500929  0.74842224  1
  O  O359  1  0.74170575  0.11885180  0.26248083  1
  O  O360  1  0.74553887  0.10792991  0.74485276  1
  O  O361  1  0.75688115  0.62305174  0.25661723  1
  O  O362  1  0.76715702  0.63902008  0.74501325  1
  O  O363  1  0.37051282  0.11827393  0.37251256  1
  O  O364  1  0.37414923  0.11353977  0.86882680  1
  O  O365  1  0.36654507  0.61563526  0.37571697  1
  O  O366  1  0.38167476  0.61490171  0.86506522  1
  O  O367  1  0.86593555  0.11709451  0.37485118  1
  O  O368  1  0.87945468  0.11979429  0.87366594  1
  O  O369  1  0.86613996  0.62129216  0.36530943  1
  O  O370  1  0.88088554  0.61620449  0.86176669  1
  O  O371  1  0.12297552  0.38002263  0.13739249  1
  O  O372  1  0.13287289  0.37932536  0.63205794  1
  O  O373  1  0.13551028  0.87337932  0.13100788  1
  O  O374  1  0.13194147  0.87816543  0.63239091  1
  O  O375  1  0.63432469  0.37297518  0.12916710  1
  O  O376  1  0.62519248  0.38047134  0.63235490  1
  O  O377  1  0.63171724  0.88133514  0.12981696  1
  O  O378  1  0.63204479  0.88104018  0.63219635  1
  O  O379  1  0.13435550  0.26843608  0.24926743  1
  O  O380  1  0.11292132  0.25900751  0.73866852  1
  O  O381  1  0.11872521  0.75096942  0.25563514  1
  O  O382  1  0.11759407  0.76133737  0.75448779  1
  O  O383  1  0.62551302  0.25633730  0.25668052  1
  O  O384  1  0.62899463  0.25529037  0.76039205  1
  O  O385  1  0.62346195  0.75722874  0.25873766  1
  O  O386  1  0.62026404  0.75415419  0.75275408  1
  O  O387  1  0.37557758  0.24475255  0.23822373  1
  O  O388  1  0.37285529  0.24004115  0.74581398  1
  O  O389  1  0.38327632  0.74876611  0.24220356  1
  O  O390  1  0.38170074  0.74520232  0.74565760  1
  O  O391  1  0.86332105  0.24773697  0.22994688  1
  O  O392  1  0.88127139  0.25039018  0.74150431  1
  O  O393  1  0.88387293  0.74012265  0.25173160  1
  O  O394  1  0.88760463  0.74018007  0.75998378  1
  O  O395  1  0.38499181  0.49438396  0.49787538  1
  O  O396  1  0.38573703  0.49987595  0.99036714  1
  O  O397  1  0.37201590  0.99092245  0.49218693  1
  O  O398  1  0.38361049  1.00213163  0.99100878  1
  O  O399  1  0.89011137  0.50622631  0.50425602  1
  O  O400  1  0.86734932  0.48874175  0.99099109  1
  O  O401  1  0.88644496  1.00946872  0.49165689  1
  O  O402  1  0.88248830  0.98825674  1.00063829  1
  O  O403  1  0.12457705  -0.01395826  0.01504077  1
  O  O404  1  0.11692026  0.00790140  0.50629719  1
  O  O405  1  0.11855482  0.51077467  -0.04363714  1
  O  O406  1  0.11664474  0.50584658  0.50766521  1
  O  O407  1  0.61969447  0.00611080  0.00204967  1
  O  O408  1  0.63048908  0.00799532  0.50778190  1
  O  O409  1  0.61979558  0.50741851  -0.00350132  1
  O  O410  1  0.60784940  0.49791654  0.50576980  1
  O  O411  1  0.38208204  0.35745265  0.12417577  1
  O  O412  1  0.37029140  0.36880948  0.62179995  1
  O  O413  1  0.36918137  0.86514624  0.12534965  1
  O  O414  1  0.36940951  0.87016180  0.62163237  1
  O  O415  1  0.86375094  0.37102198  0.11615050  1
  O  O416  1  0.87083957  0.36441978  0.63251556  1
  O  O417  1  0.87189262  0.87276926  0.11608260  1
  O  O418  1  0.86189775  0.87733798  0.62925201  1
  O  O419  1  0.13522384  0.12131855  0.38466082  1
  O  O420  1  0.09670405  0.12446759  0.89710501  1
  O  O421  1  0.13403634  0.62752088  0.37973653  1
  O  O422  1  0.11945010  0.64433299  0.86383429  1
  O  O423  1  0.63349941  0.13049586  0.38126921  1
  O  O424  1  0.61475820  0.13319621  0.88332585  1
  O  O425  1  0.63749387  0.63733006  0.36870791  1
  O  O426  1  0.62166652  0.63490626  0.88203759  1
