# generated using pymatgen
data_V85Zn86O256
_symmetry_space_group_name_H-M   'P 1'
_cell_length_a   16.96739716
_cell_length_b   16.98279743
_cell_length_c   16.99794490
_cell_angle_alpha   90.05907293
_cell_angle_beta   90.07396488
_cell_angle_gamma   90.13579541
_symmetry_Int_Tables_number   1
_chemical_formula_structural   V85Zn86O256
_chemical_formula_sum   'V85 Zn86 O256'
_cell_volume   4898.00313011
_cell_formula_units_Z   1
loop_
 _symmetry_equiv_pos_site_id
 _symmetry_equiv_pos_as_xyz
  1  'x, y, z'
loop_
 _atom_site_type_symbol
 _atom_site_label
 _atom_site_symmetry_multiplicity
 _atom_site_fract_x
 _atom_site_fract_y
 _atom_site_fract_z
 _atom_site_occupancy
  V  V0  1  0.62630769  0.87649418  0.74979973  1
  V  V1  1  0.62628763  0.49916251  0.63003254  1
  V  V2  1  0.48515083  0.74647909  0.74498458  1
  V  V3  1  0.12628498  0.25022133  0.37125940  1
  V  V4  1  0.75694242  0.25434584  0.49836883  1
  V  V5  1  0.12357000  0.25026744  0.87285409  1
  V  V6  1  0.00673012  0.87134128  0.86518640  1
  V  V7  1  0.62556553  0.22248273  0.91656580  1
  V  V8  1  0.88713134  0.75442891  0.63055887  1
  V  V9  1  0.12383581  0.12286550  0.50259740  1
  V  V10  1  0.88149079  0.24965273  0.63899437  1
  V  V11  1  0.87930835  0.50138894  0.38035706  1
  V  V12  1  0.49579799  0.37685880  0.37417644  1
  V  V13  1  0.62463605  0.00040393  0.62696107  1
  V  V14  1  0.00261363  0.50211274  0.00157798  1
  V  V15  1  0.74752276  0.37325552  0.12623219  1
  V  V16  1  0.24979789  0.86652877  0.62969587  1
  V  V17  1  0.74808464  -0.00024702  0.24960503  1
  V  V18  1  0.00009729  0.37991779  0.37740240  1
  V  V19  1  0.74928515  0.75211211  0.50059501  1
  V  V20  1  0.87490451  0.87641425  0.50018221  1
  V  V21  1  0.50437643  0.25347898  0.24908959  1
  V  V22  1  0.61787265  0.00040552  0.11614253  1
  V  V23  1  0.12927693  0.74743477  0.37148459  1
  V  V24  1  0.12674770  -0.00506366  0.13019051  1
  V  V25  1  0.48510101  0.62759154  0.62610672  1
  V  V26  1  0.38185708  0.37311560  -0.00477560  1
  V  V27  1  0.74793094  0.37836220  0.62835341  1
  V  V28  1  0.62241502  0.50290463  0.12586931  1
  V  V29  1  0.25500575  0.62558317  0.87024411  1
  V  V30  1  -0.00001393  0.12395405  0.12367431  1
  V  V31  1  0.87421944  0.12485794  0.24802008  1
  V  V32  1  0.62402243  0.62801081  0.50153643  1
  V  V33  1  0.87724987  0.87601150  -0.00488809  1
  V  V34  1  0.37619219  0.12019103  0.25758298  1
  V  V35  1  0.25144719  0.25023520  -0.00130078  1
  V  V36  1  0.25321044  -0.00165908  0.25590977  1
  V  V37  1  0.12561765  0.62443901  -0.00014084  1
  V  V38  1  0.00104183  0.62587505  0.12435094  1
  V  V39  1  -0.00023289  -0.00269451  -0.00372454  1
  V  V40  1  0.87602982  0.62748853  0.24934074  1
  V  V41  1  -0.00213119  0.37562926  0.87372641  1
  V  V42  1  0.00535497  0.87355620  0.36875547  1
  V  V43  1  0.75059981  0.87971734  0.62914221  1
  V  V44  1  0.62614283  0.12509603  0.50063269  1
  V  V45  1  0.74532533  0.49739483  0.25050999  1
  V  V46  1  0.37943749  0.49808585  0.87158559  1
  V  V47  1  0.49316229  0.49985823  0.49598573  1
  V  V48  1  0.75047386  0.74454275  -0.00884540  1
  V  V49  1  0.37884714  -0.00056405  0.87941417  1
  V  V50  1  0.24421928  0.00074009  0.74888827  1
  V  V51  1  0.37863160  0.24616955  0.62935355  1
  V  V52  1  0.87523891  0.00010570  0.37426450  1
  V  V53  1  0.62866887  0.62408252  -0.00632676  1
  V  V54  1  0.50237303  0.11930149  0.11658144  1
  V  V55  1  0.12479754  0.75240435  0.86370015  1
  V  V56  1  0.25100761  0.24932547  0.49788374  1
  V  V57  1  0.25318943  0.75198743  0.00003749  1
  V  V58  1  0.24979478  0.37552722  0.62341126  1
  V  V59  1  0.62143326  0.87460748  0.25301562  1
  V  V60  1  0.49602944  0.73807396  0.24714206  1
  V  V61  1  0.37429698  0.86867310  0.49911976  1
  V  V62  1  0.00101236  0.00187886  0.50217602  1
  V  V63  1  0.62663419  0.25699131  0.37085262  1
  V  V64  1  0.37560013  0.24920327  0.12413719  1
  V  V65  1  -0.00096552  0.60928370  0.62330789  1
  V  V66  1  0.86700991  0.50547699  0.87669960  1
  V  V67  1  0.26636910  0.61699607  0.37127276  1
  V  V68  1  0.74902315  0.87429747  0.12402738  1
  V  V69  1  0.49339115  0.00210113  0.49460949  1
  V  V70  1  0.49982480  0.87419693  0.87928061  1
  V  V71  1  0.87235941  0.25026550  0.12208348  1
  V  V72  1  0.87200306  0.09428318  0.77356622  1
  V  V73  1  0.12123566  0.37262623  0.75043975  1
  V  V74  1  0.74957418  0.62636317  0.37546959  1
  V  V75  1  0.00150652  0.25018465  0.24871067  1
  V  V76  1  0.24906776  0.87301914  0.13093060  1
  V  V77  1  0.37731573  0.73857067  0.12760984  1
  V  V78  1  0.25307804  0.50314261  0.74814935  1
  V  V79  1  0.49974691  0.50618058  0.00200809  1
  V  V80  1  0.12625364  0.12522270  -0.00098107  1
  V  V81  1  0.87238446  0.62925210  0.75419165  1
  V  V82  1  0.75036752  0.12664042  0.37336335  1
  V  V83  1  0.87524649  0.74918707  0.12481664  1
  V  V84  1  0.87283974  0.37213820  0.00016297  1
  Zn  Zn85  1  0.00533067  0.75456531  0.24592782  1
  Zn  Zn86  1  0.25098560  0.74420099  0.50605978  1
  Zn  Zn87  1  0.12063407  0.61785660  0.49576052  1
  Zn  Zn88  1  0.38265874  0.12294989  0.75141647  1
  Zn  Zn89  1  0.52205830  0.26238728  0.76670047  1
  Zn  Zn90  1  0.62785851  0.74209337  0.86750906  1
  Zn  Zn91  1  0.25534951  0.11713851  0.37880257  1
  Zn  Zn92  1  0.12053260  -0.00440742  0.63285688  1
  Zn  Zn93  1  0.88143624  0.38265567  0.50388722  1
  Zn  Zn94  1  0.26371344  0.49986148  0.24849014  1
  Zn  Zn95  1  0.62162250  0.75136364  0.37448854  1
  Zn  Zn96  1  0.13012295  0.38118648  0.24794684  1
  Zn  Zn97  1  0.74326917  0.50622746  0.75984939  1
  Zn  Zn98  1  0.25150041  0.12580254  0.87272500  1
  Zn  Zn99  1  0.11952983  0.49426602  0.61714508  1
  Zn  Zn100  1  0.37140446  0.37829631  0.49479919  1
  Zn  Zn101  1  0.24865676  0.37904998  0.12691073  1
  Zn  Zn102  1  0.48841985  0.88094427  0.36927276  1
  Zn  Zn103  1  0.50671380  0.12864368  0.63067426  1
  Zn  Zn104  1  0.00126115  0.13563323  0.63459001  1
  Zn  Zn105  1  0.38279163  0.87832917  0.00471954  1
  Zn  Zn106  1  0.12932719  0.49979495  0.13010730  1
  Zn  Zn107  1  0.19036501  0.18393742  0.18679583  1
  Zn  Zn108  1  0.19016485  0.18569337  0.68835395  1
  Zn  Zn109  1  0.18797909  0.68483991  0.19189090  1
  Zn  Zn110  1  0.18397980  0.68570903  0.68615862  1
  Zn  Zn111  1  0.68516957  0.18685666  0.18134539  1
  Zn  Zn112  1  0.69787016  0.18069611  0.69607722  1
  Zn  Zn113  1  0.68633211  0.68626462  0.18363947  1
  Zn  Zn114  1  0.68821238  0.69057476  0.68694228  1
  Zn  Zn115  1  0.31448694  0.31372610  0.30891123  1
  Zn  Zn116  1  0.31508752  0.31715747  0.80995437  1
  Zn  Zn117  1  0.31337694  0.81017260  0.31391458  1
  Zn  Zn118  1  0.31064315  0.81661436  0.81220758  1
  Zn  Zn119  1  0.81564913  0.31496194  0.30974065  1
  Zn  Zn120  1  0.68895782  0.32018477  0.79966415  1
  Zn  Zn121  1  0.81238272  0.81261388  0.31283405  1
  Zn  Zn122  1  0.81600317  0.81719338  0.81068376  1
  Zn  Zn123  1  0.18365004  0.44240379  0.43608239  1
  Zn  Zn124  1  0.19130504  0.43679911  0.94063209  1
  Zn  Zn125  1  0.18742951  0.93243745  0.44060051  1
  Zn  Zn126  1  0.18847908  0.93662377  0.93869166  1
  Zn  Zn127  1  0.68574855  0.43986540  0.44108583  1
  Zn  Zn128  1  0.68404133  0.42947059  0.94142812  1
  Zn  Zn129  1  0.68547658  0.93902747  0.43858662  1
  Zn  Zn130  1  0.68377053  0.93450524  0.93868941  1
  Zn  Zn131  1  0.31387478  0.06426359  0.06348994  1
  Zn  Zn132  1  0.31265342  0.05987410  0.56424123  1
  Zn  Zn133  1  0.31176896  0.56024243  0.06124077  1
  Zn  Zn134  1  0.30607881  0.56225843  0.55500942  1
  Zn  Zn135  1  0.81324034  0.05646906  0.06392939  1
  Zn  Zn136  1  0.81243356  0.06658087  0.56512998  1
  Zn  Zn137  1  0.81236676  0.56174154  0.06224737  1
  Zn  Zn138  1  0.81327771  0.56746303  0.56476403  1
  Zn  Zn139  1  0.43625632  0.43911401  0.18694385  1
  Zn  Zn140  1  0.44196158  0.43518561  0.68448436  1
  Zn  Zn141  1  0.43494625  0.93393367  0.18639005  1
  Zn  Zn142  1  0.43441764  0.93671362  0.68671880  1
  Zn  Zn143  1  0.93881607  0.43936293  0.19065859  1
  Zn  Zn144  1  0.92783214  0.43445964  0.69487674  1
  Zn  Zn145  1  0.93659619  0.93692479  0.18526645  1
  Zn  Zn146  1  0.93670881  0.94179868  0.69003286  1
  Zn  Zn147  1  0.06431401  0.06318077  0.31310790  1
  Zn  Zn148  1  0.05681138  0.06435239  0.81236881  1
  Zn  Zn149  1  0.06633153  0.56355531  0.30749150  1
  Zn  Zn150  1  0.06076733  0.56449335  0.80859660  1
  Zn  Zn151  1  0.56281741  0.06474761  0.31037732  1
  Zn  Zn152  1  0.56052417  0.06926457  0.81204726  1
  Zn  Zn153  1  0.56047642  0.56030007  0.31288308  1
  Zn  Zn154  1  0.55815507  0.56262271  0.81140378  1
  Zn  Zn155  1  0.44045087  0.18798155  0.44035018  1
  Zn  Zn156  1  0.44284789  0.18433352  0.93334134  1
  Zn  Zn157  1  0.44145499  0.69377407  0.43719468  1
  Zn  Zn158  1  0.43944678  0.68735195  0.93660680  1
  Zn  Zn159  1  0.93978651  0.18790327  0.43643403  1
  Zn  Zn160  1  0.93620729  0.19044688  0.93500330  1
  Zn  Zn161  1  0.93856595  0.68934949  0.44021053  1
  Zn  Zn162  1  0.93973502  0.68994674  0.93624520  1
  Zn  Zn163  1  0.06275651  0.31383685  0.06249743  1
  Zn  Zn164  1  0.06346142  0.31485311  0.55888686  1
  Zn  Zn165  1  0.06570612  0.81024921  0.05878028  1
  Zn  Zn166  1  0.06893171  0.81333002  0.55645285  1
  Zn  Zn167  1  0.56293439  0.31614498  0.05916766  1
  Zn  Zn168  1  0.56587042  0.31463052  0.56295376  1
  Zn  Zn169  1  0.56491440  0.80767501  0.06569401  1
  Zn  Zn170  1  0.55807730  0.81356276  0.56435734  1
  O  O171  1  0.12009766  0.11705467  0.11816351  1
  O  O172  1  0.12049527  0.12488799  0.61434014  1
  O  O173  1  0.11884580  0.62855012  0.11618565  1
  O  O174  1  0.10603861  0.62248616  0.63090785  1
  O  O175  1  0.61473146  0.11171610  0.13462220  1
  O  O176  1  0.63185290  0.11253747  0.61879680  1
  O  O177  1  0.63215387  0.61133714  0.11159645  1
  O  O178  1  0.61968664  0.62070358  0.61468622  1
  O  O179  1  0.39144885  0.36286516  0.37971453  1
  O  O180  1  0.36661477  0.38643354  0.88589091  1
  O  O181  1  0.37034006  0.87573748  0.39277765  1
  O  O182  1  0.38195936  0.88270114  0.87632326  1
  O  O183  1  0.88252918  0.38487571  0.37385863  1
  O  O184  1  0.88716363  0.38623080  0.88601210  1
  O  O185  1  0.88127737  0.88078112  0.38091388  1
  O  O186  1  0.89132478  0.86660429  0.88687240  1
  O  O187  1  0.23889512  -0.00189873  0.35954667  1
  O  O188  1  0.25846667  -0.00597921  0.86329614  1
  O  O189  1  0.25216982  0.51437072  0.37738054  1
  O  O190  1  0.25618661  0.50713929  0.86919098  1
  O  O191  1  0.75509252  0.00621018  0.37057354  1
  O  O192  1  0.75250168  0.02922197  0.91178244  1
  O  O193  1  0.75382602  0.50480796  0.36745960  1
  O  O194  1  0.76350067  0.49392241  0.87930885  1
  O  O195  1  0.24793169  0.49802268  0.12628730  1
  O  O196  1  0.25210398  0.49061976  0.63183724  1
  O  O197  1  0.24505359  0.99257898  0.13057722  1
  O  O198  1  0.24904618  0.99587737  0.63833402  1
  O  O199  1  0.74588942  0.49433631  0.13302609  1
  O  O200  1  0.74185293  0.49454761  0.61821598  1
  O  O201  1  0.74084920  0.99413341  0.13086990  1
  O  O202  1  0.74053430  0.98798325  0.61551170  1
  O  O203  1  0.00130499  0.36701717  0.25958071  1
  O  O204  1  0.01089207  0.38362460  0.76120901  1
  O  O205  1  -0.00556564  0.87615528  0.26406615  1
  O  O206  1  0.00000404  0.88157685  0.76744720  1
  O  O207  1  0.49699999  0.35962356  0.25665841  1
  O  O208  1  0.47683070  0.36435373  0.75800365  1
  O  O209  1  0.50877246  0.87122462  0.25164447  1
  O  O210  1  0.50530663  0.86338753  0.75384969  1
  O  O211  1  0.49273608  0.13368908  0.24580705  1
  O  O212  1  0.49802762  0.13891692  0.74480600  1
  O  O213  1  0.50577067  0.63982037  0.25205939  1
  O  O214  1  0.50279304  0.63911340  0.74209768  1
  O  O215  1  0.99377626  0.12811286  0.24341892  1
  O  O216  1  0.97876159  0.10845796  0.74358711  1
  O  O217  1  0.99232528  0.62885442  0.24183670  1
  O  O218  1  0.98641777  0.62207122  0.73712177  1
  O  O219  1  0.37341469  0.25468242  0.00375606  1
  O  O220  1  0.36254401  0.24831678  0.50703369  1
  O  O221  1  0.36630621  0.75102479  0.00542689  1
  O  O222  1  0.37560049  0.76519014  0.50357590  1
  O  O223  1  0.88207991  0.26350726  0.00654098  1
  O  O224  1  0.86273914  0.25464576  0.49096001  1
  O  O225  1  0.86894446  0.75612978  0.00447999  1
  O  O226  1  0.86914318  0.75759559  0.50960660  1
  O  O227  1  0.13205525  0.24241354  0.49277484  1
  O  O228  1  0.13072214  0.24579763  0.99193907  1
  O  O229  1  0.12809094  0.74379349  0.48828453  1
  O  O230  1  0.13735174  0.74408083  0.99263892  1
  O  O231  1  0.63600103  0.24577585  0.49302578  1
  O  O232  1  0.62797392  0.23445616  1.01815094  1
  O  O233  1  0.62760636  0.74262882  0.50086121  1
  O  O234  1  0.63339207  0.74071673  0.99990003  1
  O  O235  1  0.49445700  0.24299420  0.13263232  1
  O  O236  1  0.48126751  0.25398532  0.61493566  1
  O  O237  1  0.49187267  0.75515884  0.13742076  1
  O  O238  1  0.50168140  0.74362591  0.63718511  1
  O  O239  1  0.99399490  0.24241735  0.12845552  1
  O  O240  1  0.98595392  0.25446413  0.61509925  1
  O  O241  1  0.99415778  0.74572674  0.12420189  1
  O  O242  1  0.98852789  0.75725252  0.62250495  1
  O  O243  1  0.00795093  0.25552603  0.36875833  1
  O  O244  1  0.01280887  0.26391140  0.88211947  1
  O  O245  1  0.00734035  0.75785584  0.37511891  1
  O  O246  1  0.01087420  0.76245747  0.88118379  1
  O  O247  1  0.50907680  0.25462925  0.37007216  1
  O  O248  1  0.52099532  0.24534551  0.88291114  1
  O  O249  1  0.50180724  0.75746773  0.36024457  1
  O  O250  1  0.50255101  0.75425344  0.86124479  1
  O  O251  1  0.24163836  0.13011085  0.49888183  1
  O  O252  1  0.24384571  0.13069134  0.99605469  1
  O  O253  1  0.24572455  0.62962196  0.48795552  1
  O  O254  1  0.24602550  0.63379335  0.98951216  1
  O  O255  1  0.74622633  0.13404794  0.49239716  1
  O  O256  1  0.75226982  0.08438457  0.96583080  1
  O  O257  1  0.74179943  0.63209245  0.49711761  1
  O  O258  1  0.74475659  0.63480865  1.00234764  1
  O  O259  1  0.26277015  0.36811032  0.00319972  1
  O  O260  1  0.24771088  0.36582018  0.50626227  1
  O  O261  1  0.25120118  0.86379318  0.00827569  1
  O  O262  1  0.26140930  0.87692125  0.50991165  1
  O  O263  1  0.76556106  0.38483975  0.01454990  1
  O  O264  1  0.75191887  0.36822122  0.50604061  1
  O  O265  1  0.75899584  0.86891566  0.00358346  1
  O  O266  1  0.75474335  0.87183809  0.50708496  1
  O  O267  1  0.13627862  0.49928914  0.24833741  1
  O  O268  1  0.13502100  0.48940018  0.74766483  1
  O  O269  1  0.13378765  1.00802515  0.23601611  1
  O  O270  1  0.13967094  1.00473608  0.75265015  1
  O  O271  1  0.63591685  0.50790450  0.24082196  1
  O  O272  1  0.62609048  0.51024179  0.73514971  1
  O  O273  1  0.63022161  0.99112822  0.24613899  1
  O  O274  1  0.61523542  0.98781089  0.73840739  1
  O  O275  1  0.36550335  0.00899928  0.24440583  1
  O  O276  1  0.36561403  -0.00000878  0.75929899  1
  O  O277  1  0.37729417  0.50216653  0.25165160  1
  O  O278  1  0.36128891  0.49389784  0.75808004  1
  O  O279  1  0.86846950  0.00505042  0.25316307  1
  O  O280  1  0.86844712  -0.00713988  0.76405757  1
  O  O281  1  0.86497855  0.50782868  0.25762337  1
  O  O282  1  0.87102997  0.50900073  0.76167608  1
  O  O283  1  0.11896481  0.36298206  0.37366391  1
  O  O284  1  0.11989421  0.37078956  0.86981939  1
  O  O285  1  0.11578657  0.86193014  0.38307136  1
  O  O286  1  0.11522602  0.86651308  0.88269375  1
  O  O287  1  0.61748576  0.36305943  0.38059644  1
  O  O288  1  0.62567250  0.35242002  0.88892257  1
  O  O289  1  0.62720698  0.87285127  0.36228054  1
  O  O290  1  0.61760919  0.87791198  0.86432204  1
  O  O291  1  0.38137217  0.13127843  0.13453088  1
  O  O292  1  0.37373731  0.13928389  0.62344677  1
  O  O293  1  0.37030326  0.64005128  0.11996826  1
  O  O294  1  0.38663848  0.62038333  0.61955117  1
  O  O295  1  0.87806968  0.12884513  0.12737631  1
  O  O296  1  0.87946945  0.14284599  0.61556900  1
  O  O297  1  0.88010158  0.63036422  0.12884522  1
  O  O298  1  0.88374827  0.63421556  0.63121312  1
  O  O299  1  0.26341707  0.24454516  0.11802494  1
  O  O300  1  0.25355053  0.25610100  0.61563699  1
  O  O301  1  0.25473154  0.75531634  0.12004328  1
  O  O302  1  0.24656367  0.76244542  0.62722479  1
  O  O303  1  0.75757505  0.26341292  0.13615773  1
  O  O304  1  0.76361472  0.25903304  0.61412460  1
  O  O305  1  0.75484747  0.75570724  0.11467517  1
  O  O306  1  0.75681235  0.76238967  0.61895764  1
  O  O307  1  0.24270317  0.24936693  0.38397890  1
  O  O308  1  0.24048018  0.25097167  0.87962744  1
  O  O309  1  0.23892863  0.74633525  0.37703738  1
  O  O310  1  0.24725646  0.74542128  0.88070563  1
  O  O311  1  0.74409991  0.24842074  0.37696831  1
  O  O312  1  0.71936190  0.23678754  0.87629861  1
  O  O313  1  0.74803552  0.74405119  0.38215508  1
  O  O314  1  0.74807633  0.75960859  0.88771897  1
  O  O315  1  0.00505994  0.11571360  0.00447996  1
  O  O316  1  0.00822879  0.11650463  0.49759646  1
  O  O317  1  0.00563746  0.62145780  0.00433816  1
  O  O318  1  -0.00465843  0.63015790  0.52091921  1
  O  O319  1  0.48758940  0.12180025  0.01927838  1
  O  O320  1  0.50754470  0.11937954  0.50558134  1
  O  O321  1  0.50790079  0.61420636  -0.00087099  1
  O  O322  1  0.50641099  0.62171139  0.50546468  1
  O  O323  1  0.50008442  0.38394483  0.49275619  1
  O  O324  1  0.48890160  0.38678490  1.00258959  1
  O  O325  1  0.48816806  0.88164952  0.50172867  1
  O  O326  1  0.50149318  0.86185354  0.98317602  1
  O  O327  1  0.99909274  0.37121540  0.48157379  1
  O  O328  1  0.99359071  0.38241917  0.99371869  1
  O  O329  1  0.99520174  0.88451393  0.49047444  1
  O  O330  1  0.99459117  0.88021813  0.99772482  1
  O  O331  1  0.51051752  0.48790607  0.38404658  1
  O  O332  1  0.48640939  0.50703337  0.88281717  1
  O  O333  1  0.50857421  0.99858520  0.38927209  1
  O  O334  1  0.48545993  0.98846066  0.86557264  1
  O  O335  1  0.98928024  0.49247258  0.36437855  1
  O  O336  1  0.99511751  0.49365105  0.88116245  1
  O  O337  1  0.99674861  0.99464710  0.38190173  1
  O  O338  1  1.01307869  0.98522321  0.88960344  1
  O  O339  1  0.00847072  0.00246844  0.11825340  1
  O  O340  1  0.00174702  -0.00292071  0.61025813  1
  O  O341  1  0.00010747  0.50835804  0.11812394  1
  O  O342  1  -0.00655377  0.50702919  0.62659589  1
  O  O343  1  0.50637130  0.00754243  0.13532574  1
  O  O344  1  0.51040147  -0.00011662  0.61639420  1
  O  O345  1  0.51203951  0.49261540  0.11501604  1
  O  O346  1  0.50674397  0.50790886  0.61755581  1
  O  O347  1  0.24895976  0.37593755  0.24548621  1
  O  O348  1  0.24148034  0.38245829  0.74225007  1
  O  O349  1  0.25731870  0.88221149  0.23832321  1
  O  O350  1  0.25462911  0.88504589  0.73751139  1
  O  O351  1  0.75652524  0.38822436  0.24062198  1
  O  O352  1  0.75380693  0.38685274  0.73165649  1
  O  O353  1  0.74280213  0.87888128  0.24402458  1
  O  O354  1  0.73982850  0.87123098  0.74000978  1
  O  O355  1  0.25940945  0.11611090  0.25143490  1
  O  O356  1  0.25537251  0.11229923  0.75197456  1
  O  O357  1  0.25009085  0.62880159  0.26878290  1
  O  O358  1  0.24242747  0.61477834  0.75889504  1
  O  O359  1  0.75503797  0.12011163  0.25385950  1
  O  O360  1  0.77949000  0.12096567  0.74012289  1
  O  O361  1  0.75480452  0.61844896  0.25452413  1
  O  O362  1  0.76505322  0.62320171  0.74151750  1
  O  O363  1  0.37451699  0.13242108  0.36208347  1
  O  O364  1  0.37337239  0.11047343  0.87413357  1
  O  O365  1  0.36440698  0.63295776  0.38097436  1
  O  O366  1  0.36241812  0.61597432  0.88008114  1
  O  O367  1  0.87081839  0.11963944  0.36800181  1
  O  O368  1  0.88173120  0.11804005  0.87144128  1
  O  O369  1  0.87028293  0.62046785  0.37055902  1
  O  O370  1  0.88381292  0.61705054  0.86741926  1
  O  O371  1  0.12770086  0.37701079  0.12793260  1
  O  O372  1  0.13324876  0.37135557  0.63292048  1
  O  O373  1  0.13607861  0.88358345  0.11922008  1
  O  O374  1  0.14421235  0.88149842  0.61336449  1
  O  O375  1  0.63792021  0.38862147  0.11597181  1
  O  O376  1  0.63439173  0.39003241  0.61445612  1
  O  O377  1  0.62831887  0.87962297  0.13544931  1
  O  O378  1  0.63130177  0.88065185  0.62976214  1
  O  O379  1  0.12066827  0.24313673  0.25972212  1
  O  O380  1  0.13278423  0.26133211  0.75926131  1
  O  O381  1  0.12327082  0.75065391  0.26548627  1
  O  O382  1  0.13101899  0.74964855  0.76497348  1
  O  O383  1  0.61584588  0.24268335  0.25988475  1
  O  O384  1  0.62784009  0.26080147  0.72204267  1
  O  O385  1  0.61473331  0.75722957  0.24573342  1
  O  O386  1  0.61941236  0.76156431  0.74977105  1
  O  O387  1  0.38309317  0.24128749  0.24096819  1
  O  O388  1  0.36217811  0.24705433  0.73258929  1
  O  O389  1  0.38866753  0.75589553  0.24344944  1
  O  O390  1  0.38668556  0.75373363  0.75143701  1
  O  O391  1  0.88145651  0.24334302  0.24373715  1
  O  O392  1  0.88033549  0.25037258  0.73487175  1
  O  O393  1  0.87460505  0.74483090  0.24222475  1
  O  O394  1  0.87040178  0.74453700  0.74042532  1
  O  O395  1  0.38982256  0.49809929  0.50361641  1
  O  O396  1  0.38200723  0.49418564  0.99339979  1
  O  O397  1  0.38599193  0.99447069  0.50556843  1
  O  O398  1  0.36554995  0.99599416  0.98378221  1
  O  O399  1  0.86754073  0.50217811  0.48394336  1
  O  O400  1  0.88270812  0.49548698  0.99497154  1
  O  O401  1  0.88231801  0.99747364  0.49431731  1
  O  O402  1  0.88911272  0.98720236  1.00805186  1
  O  O403  1  0.12051420  0.00405641  0.01004768  1
  O  O404  1  0.11808380  0.00947464  0.49725611  1
  O  O405  1  0.11923252  0.50794532  -0.00225670  1
  O  O406  1  0.12376347  0.50425517  0.50568733  1
  O  O407  1  0.62096350  -0.01291248  0.01802927  1
  O  O408  1  0.61767344  0.00359764  0.50809859  1
  O  O409  1  0.61877252  0.50592588  0.00434112  1
  O  O410  1  0.61621803  0.51131300  0.50686863  1
  O  O411  1  0.37865341  0.35992047  0.11511865  1
  O  O412  1  0.36139753  0.36477345  0.61947886  1
  O  O413  1  0.36529383  0.86656675  0.12067412  1
  O  O414  1  0.36121851  0.88087015  0.61463309  1
  O  O415  1  0.87113409  0.37167084  0.11905164  1
  O  O416  1  0.86899362  0.36791900  0.62021415  1
  O  O417  1  0.87014584  0.86974712  0.11565240  1
  O  O418  1  0.86818951  0.87259258  0.62199476  1
  O  O419  1  0.12602939  0.13474057  0.38447429  1
  O  O420  1  0.12313299  0.13563731  0.87897387  1
  O  O421  1  0.12338899  0.63888502  0.37657932  1
  O  O422  1  0.13312897  0.63189635  0.87904020  1
  O  O423  1  0.63100917  0.13537802  0.38017419  1
  O  O424  1  0.61360114  0.12162657  0.89478077  1
  O  O425  1  0.62963910  0.62586477  0.38732168  1
  O  O426  1  0.62337266  0.62323113  0.88816783  1
