# generated using pymatgen
data_V85Zn86O256
_symmetry_space_group_name_H-M   'P 1'
_cell_length_a   16.97280591
_cell_length_b   16.97554845
_cell_length_c   16.98092271
_cell_angle_alpha   89.85603333
_cell_angle_beta   89.90464655
_cell_angle_gamma   89.89832548
_symmetry_Int_Tables_number   1
_chemical_formula_structural   V85Zn86O256
_chemical_formula_sum   'V85 Zn86 O256'
_cell_volume   4892.55922492
_cell_formula_units_Z   1
loop_
 _symmetry_equiv_pos_site_id
 _symmetry_equiv_pos_as_xyz
  1  'x, y, z'
loop_
 _atom_site_type_symbol
 _atom_site_label
 _atom_site_symmetry_multiplicity
 _atom_site_fract_x
 _atom_site_fract_y
 _atom_site_fract_z
 _atom_site_occupancy
  V  V0  1  0.87515998  0.49650916  0.36985840  1
  V  V1  1  0.74627100  0.37387925  0.12990124  1
  V  V2  1  0.12366288  0.63140964  0.49672448  1
  V  V3  1  0.24760982  0.50048433  0.74932544  1
  V  V4  1  0.75054541  -0.00736990  0.74086293  1
  V  V5  1  0.74439618  0.62550345  0.88221426  1
  V  V6  1  0.50361630  0.37455155  0.86761844  1
  V  V7  1  0.37269014  0.63018890  0.74749027  1
  V  V8  1  0.75050809  0.24788226  0.00170045  1
  V  V9  1  0.24722400  0.37534131  0.62311029  1
  V  V10  1  0.25967203  -0.00084467  0.25055662  1
  V  V11  1  -0.00794497  0.24898046  0.74140942  1
  V  V12  1  0.86946886  0.86981696  0.01118757  1
  V  V13  1  0.69078115  0.43881770  0.31066034  1
  V  V14  1  0.87713017  0.12053351  0.25471775  1
  V  V15  1  0.12319240  0.50126028  0.62340648  1
  V  V16  1  -0.00633779  0.87825695  0.37269800  1
  V  V17  1  0.75226640  -0.00130499  0.25830833  1
  V  V18  1  0.12574684  0.37684265  0.24648995  1
  V  V19  1  0.25676914  0.36697268  0.12514239  1
  V  V20  1  0.00674612  0.37012418  0.37435581  1
  V  V21  1  0.00704740  0.50185867  0.00384301  1
  V  V22  1  0.50106316  0.25826577  0.26315477  1
  V  V23  1  0.49606832  0.62491591  0.62558726  1
  V  V24  1  0.26561905  0.87043041  0.62407031  1
  V  V25  1  0.25068040  0.87237175  0.11814358  1
  V  V26  1  0.87424091  0.24417426  0.12529020  1
  V  V27  1  0.12390126  0.00399946  0.11983979  1
  V  V28  1  0.37292120  0.37169541  0.49789232  1
  V  V29  1  0.12798450  0.87493510  0.74541242  1
  V  V30  1  0.50330207  0.62170853  0.12336657  1
  V  V31  1  0.49353279  -0.00298180  0.50003665  1
  V  V32  1  -0.00018921  0.74980336  0.74932177  1
  V  V33  1  0.49858961  0.50162760  0.50092159  1
  V  V34  1  0.87406573  0.37399081  0.00244771  1
  V  V35  1  0.00656114  0.24528955  0.25083848  1
  V  V36  1  0.75059554  0.12181315  0.87579761  1
  V  V37  1  0.12397738  0.12964417  0.49172575  1
  V  V38  1  0.49606949  0.12220627  0.63109691  1
  V  V39  1  0.50349277  0.50041623  0.00097251  1
  V  V40  1  0.74284847  0.13788462  0.37759015  1
  V  V41  1  0.12909150  0.62581353  0.00641613  1
  V  V42  1  0.37202223  0.62469197  0.24734565  1
  V  V43  1  0.25621419  0.01271242  0.75007801  1
  V  V44  1  0.12125153  0.36939971  0.74968585  1
  V  V45  1  0.63031843  0.87263662  0.74243504  1
  V  V46  1  0.37464465  0.74951275  0.11810274  1
  V  V47  1  0.48891808  0.13034358  0.13567344  1
  V  V48  1  0.74891810  0.75436121  0.50623956  1
  V  V49  1  0.26057912  0.75652336  0.50201536  1
  V  V50  1  0.87424009  0.00022867  0.87353378  1
  V  V51  1  0.87276241  0.12619557  0.73968336  1
  V  V52  1  0.24575908  0.50154101  0.24412856  1
  V  V53  1  0.37312619  0.87520155  -0.00380574  1
  V  V54  1  -0.00143301  0.50221887  0.49812425  1
  V  V55  1  -0.00428196  0.62922195  0.62483804  1
  V  V56  1  0.87237138  0.50246238  0.87428398  1
  V  V57  1  0.62162547  0.74952450  0.37657757  1
  V  V58  1  0.24781862  0.62988845  0.87710594  1
  V  V59  1  0.62616435  0.12261382  0.00168473  1
  V  V60  1  0.87385370  0.63014645  0.24461576  1
  V  V61  1  0.62653640  0.49295527  0.12411449  1
  V  V62  1  0.37511422  0.01580060  0.87196554  1
  V  V63  1  0.37047979  0.24564269  0.63265448  1
  V  V64  1  -0.00211171  0.37301402  0.87129164  1
  V  V65  1  0.37212818  0.49880170  0.37365524  1
  V  V66  1  0.00354347  0.00747649  0.00077385  1
  V  V67  1  0.62387543  0.13752777  0.49729369  1
  V  V68  1  0.87013365  0.87858792  0.50135355  1
  V  V69  1  0.62534686  0.25211100  0.86798310  1
  V  V70  1  0.63174404  -0.00285354  0.12613400  1
  V  V71  1  0.74438572  0.49331281  0.74341198  1
  V  V72  1  0.62604156  0.74644965  0.87856886  1
  V  V73  1  0.00291507  0.87453125  0.87424505  1
  V  V74  1  0.49780673  0.75077014  0.74660659  1
  V  V75  1  0.37547288  0.49898948  0.87544470  1
  V  V76  1  0.50042646  -0.00330950  0.00056539  1
  V  V77  1  0.37502648  0.36551102  0.00418086  1
  V  V78  1  0.12417634  0.87225786  0.24957224  1
  V  V79  1  0.87327708  0.36038357  0.50763391  1
  V  V80  1  0.62974748  0.87485889  0.25038334  1
  V  V81  1  0.25500857  0.13304119  0.37012328  1
  V  V82  1  0.74674210  0.62354417  0.37426920  1
  V  V83  1  0.49193636  0.87545999  0.37939290  1
  V  V84  1  -0.00294102  -0.00049756  0.49704626  1
  Zn  Zn85  1  0.51319718  0.37139464  0.37674273  1
  Zn  Zn86  1  0.04938838  0.16608004  0.07941472  1
  Zn  Zn87  1  0.61575557  0.48795621  0.63635208  1
  Zn  Zn88  1  0.49777397  0.75160444  0.25032191  1
  Zn  Zn89  1  0.37406339  -0.00160546  0.37594215  1
  Zn  Zn90  1  -0.00817236  0.75543624  0.24231925  1
  Zn  Zn91  1  0.76111026  0.74394568  0.01781394  1
  Zn  Zn92  1  0.12948044  0.00161078  0.62056283  1
  Zn  Zn93  1  0.13121526  0.75333787  0.88046181  1
  Zn  Zn94  1  0.12234093  0.75142237  0.37314771  1
  Zn  Zn95  1  -0.00119250  0.62838900  0.12365711  1
  Zn  Zn96  1  0.50105802  0.87486109  0.87326361  1
  Zn  Zn97  1  0.86463441  0.75532779  0.62854096  1
  Zn  Zn98  1  0.24745563  0.62997034  0.37307657  1
  Zn  Zn99  1  0.62728269  -0.00393409  0.61871581  1
  Zn  Zn100  1  0.49307152  0.24297942  0.75533764  1
  Zn  Zn101  1  0.87159148  0.62773287  0.74997799  1
  Zn  Zn102  1  0.62675460  0.62401732  0.50694990  1
  Zn  Zn103  1  0.24094080  0.25359563  0.49299948  1
  Zn  Zn104  1  0.74757309  0.34207830  0.63344020  1
  Zn  Zn105  1  0.00014032  0.12607390  0.61869926  1
  Zn  Zn106  1  0.23175160  0.23088702  0.98302834  1
  Zn  Zn107  1  0.19560897  0.18822667  0.19014631  1
  Zn  Zn108  1  0.18135679  0.18891061  0.68066273  1
  Zn  Zn109  1  0.18783038  0.68896231  0.18199380  1
  Zn  Zn110  1  0.18615747  0.69012806  0.68494616  1
  Zn  Zn111  1  0.68133417  0.18591673  0.19152351  1
  Zn  Zn112  1  0.68419955  0.17924532  0.68445999  1
  Zn  Zn113  1  0.69057588  0.67984486  0.19146370  1
  Zn  Zn114  1  0.68285806  0.67778743  0.69223925  1
  Zn  Zn115  1  0.32335217  0.30784639  0.30451174  1
  Zn  Zn116  1  0.30843335  0.30824123  0.81772569  1
  Zn  Zn117  1  0.30967000  0.80949064  0.30977331  1
  Zn  Zn118  1  0.31261287  0.81685517  0.81470565  1
  Zn  Zn119  1  0.82181604  0.30552585  0.31834564  1
  Zn  Zn120  1  0.81186328  0.30981984  0.81186864  1
  Zn  Zn121  1  0.81026195  0.81213460  0.31745292  1
  Zn  Zn122  1  0.81263650  0.81091468  0.81637717  1
  Zn  Zn123  1  0.18614722  0.44055882  0.43445994  1
  Zn  Zn124  1  0.19810433  0.41505750  0.92550330  1
  Zn  Zn125  1  0.18533268  0.93900437  0.43516299  1
  Zn  Zn126  1  0.18866183  1.05520736  0.93377315  1
  Zn  Zn127  1  0.66728833  0.40374121  0.48765149  1
  Zn  Zn128  1  0.68704733  0.43549846  0.93912456  1
  Zn  Zn129  1  0.68327220  0.94107800  0.43772463  1
  Zn  Zn130  1  0.68633303  0.93115796  0.93330141  1
  Zn  Zn131  1  0.31335170  0.06213674  0.06501784  1
  Zn  Zn132  1  0.31003778  0.06200250  0.56070152  1
  Zn  Zn133  1  0.31320619  0.55726420  0.06041149  1
  Zn  Zn134  1  0.31015765  0.56602895  0.56205914  1
  Zn  Zn135  1  0.81591427  0.05957903  0.06430867  1
  Zn  Zn136  1  0.81154287  0.06526090  0.55767899  1
  Zn  Zn137  1  0.80956902  0.55728143  0.06230770  1
  Zn  Zn138  1  0.81462223  0.56071612  0.55847812  1
  Zn  Zn139  1  0.43815916  0.43212107  0.19115160  1
  Zn  Zn140  1  0.43079783  0.43694140  0.68770169  1
  Zn  Zn141  1  0.44456445  0.93530715  0.18604534  1
  Zn  Zn142  1  0.43912987  0.93855276  0.68817342  1
  Zn  Zn143  1  0.93631848  0.43846234  0.18704043  1
  Zn  Zn144  1  0.93374967  0.44075037  0.68574080  1
  Zn  Zn145  1  0.93834618  0.94053738  0.18509535  1
  Zn  Zn146  1  0.93704882  0.93798952  0.68072786  1
  Zn  Zn147  1  0.06804364  0.05972906  0.31192974  1
  Zn  Zn148  1  0.05975416  0.05870250  0.80434100  1
  Zn  Zn149  1  0.05978969  0.56189709  0.31116197  1
  Zn  Zn150  1  0.06407493  0.56086303  0.81496644  1
  Zn  Zn151  1  0.56229151  0.06288408  0.31380260  1
  Zn  Zn152  1  0.56542116  0.05954352  0.81349250  1
  Zn  Zn153  1  0.55533932  0.56546835  0.31372163  1
  Zn  Zn154  1  0.56378722  0.56240007  0.81341040  1
  Zn  Zn155  1  0.43647750  0.18440400  0.43869584  1
  Zn  Zn156  1  0.44129512  0.18752511  0.94489139  1
  Zn  Zn157  1  0.43474225  0.68604273  0.43591019  1
  Zn  Zn158  1  0.44038273  0.68630916  0.93573181  1
  Zn  Zn159  1  0.93633987  0.18280942  0.43106285  1
  Zn  Zn160  1  1.07153454  0.19972419  0.91638692  1
  Zn  Zn161  1  0.93428090  0.69302952  0.43193860  1
  Zn  Zn162  1  0.93854649  0.68675119  0.93788826  1
  Zn  Zn163  1  0.06501577  0.33048832  0.06607981  1
  Zn  Zn164  1  0.05924035  0.31115882  0.56064544  1
  Zn  Zn165  1  0.05867666  0.80948970  0.06278249  1
  Zn  Zn166  1  0.06326715  0.81554100  0.56207798  1
  Zn  Zn167  1  0.56289471  0.31021998  0.06252824  1
  Zn  Zn168  1  0.55579527  0.31046473  0.57161697  1
  Zn  Zn169  1  0.59657258  0.78785970  0.08523932  1
  Zn  Zn170  1  0.55887802  0.81131713  0.56254103  1
  O  O171  1  0.12739942  0.10852892  0.13922468  1
  O  O172  1  0.12135725  0.12107510  0.60966462  1
  O  O173  1  0.12913753  0.62096795  0.10896846  1
  O  O174  1  0.11518918  0.62195355  0.61638017  1
  O  O175  1  0.61843290  0.11322715  0.11949325  1
  O  O176  1  0.61239196  0.12022005  0.61524033  1
  O  O177  1  0.61121998  0.60575996  0.13827678  1
  O  O178  1  0.60829624  0.61430126  0.62614641  1
  O  O179  1  0.37064134  0.38451065  0.38404936  1
  O  O180  1  0.38589222  0.38164650  0.88353756  1
  O  O181  1  0.38918943  0.87220755  0.36755719  1
  O  O182  1  0.37871040  0.88085890  0.88415102  1
  O  O183  1  0.88641094  0.38019400  0.38034616  1
  O  O184  1  0.88000260  0.38287212  0.87994119  1
  O  O185  1  0.88416976  0.87139883  0.38431262  1
  O  O186  1  0.88504007  0.88421001  0.87531033  1
  O  O187  1  0.25333961  0.00208780  0.36552131  1
  O  O188  1  0.25990659  -0.00008834  0.85781906  1
  O  O189  1  0.25821496  0.50298999  0.36624316  1
  O  O190  1  0.25563793  0.50563481  0.86747119  1
  O  O191  1  0.74592638  0.00727529  0.36196883  1
  O  O192  1  0.75711887  0.00097522  0.86756984  1
  O  O193  1  0.75173237  0.50146212  0.37034868  1
  O  O194  1  0.75472853  0.50340543  0.86976407  1
  O  O195  1  0.25776127  0.49380908  0.14107286  1
  O  O196  1  0.24363657  0.49611951  0.62900838  1
  O  O197  1  0.24378037  0.99075758  0.13174405  1
  O  O198  1  0.25252139  0.98946150  0.63431737  1
  O  O199  1  0.73671539  0.49101470  0.12122007  1
  O  O200  1  0.75114065  0.50869725  0.64058636  1
  O  O201  1  0.73830238  1.00620735  0.13622157  1
  O  O202  1  0.74812366  1.00449361  0.63766232  1
  O  O203  1  0.00709957  0.36991827  0.25411568  1
  O  O204  1  0.00047982  0.37056404  0.75171923  1
  O  O205  1  0.00634764  0.87916451  0.25583680  1
  O  O206  1  0.00579641  0.86971826  0.75193536  1
  O  O207  1  0.50143464  0.36683396  0.25827551  1
  O  O208  1  0.49490532  0.37613645  0.76436126  1
  O  O209  1  0.51194955  0.87421675  0.26061238  1
  O  O210  1  0.50600020  0.86456069  0.74992129  1
  O  O211  1  0.50170675  0.12654607  0.23957926  1
  O  O212  1  0.50417863  0.12116638  0.73574853  1
  O  O213  1  0.48959075  0.62348212  0.23953933  1
  O  O214  1  0.49186483  0.62810577  0.74478518  1
  O  O215  1  0.99155448  0.13313812  0.26065362  1
  O  O216  1  0.99014674  0.13203526  0.74710234  1
  O  O217  1  0.98356436  0.62343473  0.25007697  1
  O  O218  1  1.00142484  0.63270745  0.74209530  1
  O  O219  1  0.37261645  0.26477355  -0.00450710  1
  O  O220  1  0.37344335  0.26184734  0.50675985  1
  O  O221  1  0.38612822  0.75979799  0.00918953  1
  O  O222  1  0.35912551  0.74589952  0.49794753  1
  O  O223  1  0.86843120  0.25665345  0.01538308  1
  O  O224  1  0.88977511  0.26209737  0.49839864  1
  O  O225  1  0.87645369  0.76486904  -0.00558275  1
  O  O226  1  0.86414426  0.75724901  0.49958827  1
  O  O227  1  0.12259922  0.23732152  0.49951901  1
  O  O228  1  0.11290824  0.24182966  1.01360314  1
  O  O229  1  0.12795477  0.74147020  0.49866716  1
  O  O230  1  0.11996077  0.73119236  0.99566861  1
  O  O231  1  0.61554582  0.23709163  0.50043206  1
  O  O232  1  0.63194869  0.24232282  0.99296747  1
  O  O233  1  0.62937022  0.74721344  0.49139483  1
  O  O234  1  0.61351142  0.76062316  0.97645616  1
  O  O235  1  0.50228200  0.23197782  0.12048112  1
  O  O236  1  0.48895612  0.24218539  0.63177578  1
  O  O237  1  0.49729495  0.73702951  0.12712868  1
  O  O238  1  0.50404571  0.73836823  0.63631047  1
  O  O239  1  0.99085795  0.25307843  0.13409105  1
  O  O240  1  0.99975768  0.24863136  0.63777674  1
  O  O241  1  1.00173925  0.74183149  0.13085402  1
  O  O242  1  1.00085073  0.74333175  0.63310932  1
  O  O243  1  -0.00657954  0.26089196  0.36190581  1
  O  O244  1  -0.00199950  0.26696860  0.86125608  1
  O  O245  1  0.00192745  0.76271057  0.36714592  1
  O  O246  1  -0.00126558  0.75727046  0.86358657  1
  O  O247  1  0.49881449  0.25134415  0.36882588  1
  O  O248  1  0.50675904  0.25660193  0.87554728  1
  O  O249  1  0.50693311  0.75471994  0.37600531  1
  O  O250  1  0.50612613  0.74611888  0.86026178  1
  O  O251  1  0.24150065  0.12494041  0.48812977  1
  O  O252  1  0.24903297  0.12317699  1.00006633  1
  O  O253  1  0.24017049  0.63636312  0.50101094  1
  O  O254  1  0.23795666  0.61270775  0.99065359  1
  O  O255  1  0.74213053  0.11833346  0.48392720  1
  O  O256  1  0.74728819  0.12739139  0.99532398  1
  O  O257  1  0.74827133  0.62871825  0.48740206  1
  O  O258  1  0.75651216  0.62646062  0.98667340  1
  O  O259  1  0.25906628  0.39160092  0.02148589  1
  O  O260  1  0.25542355  0.37577166  0.50332416  1
  O  O261  1  0.26504562  0.88105961  0.01334770  1
  O  O262  1  0.24315558  0.86351834  0.50727394  1
  O  O263  1  0.75521753  0.36803554  0.00720600  1
  O  O264  1  0.77348904  0.37099029  0.49368265  1
  O  O265  1  0.76691136  0.87394490  -0.00752041  1
  O  O266  1  0.75626376  0.86587411  0.48996135  1
  O  O267  1  0.13456501  0.49060297  0.25764182  1
  O  O268  1  0.12673704  0.49328229  0.74136054  1
  O  O269  1  0.13280282  0.98770255  0.24185378  1
  O  O270  1  0.13852345  0.98950143  0.74744422  1
  O  O271  1  0.62785044  0.49367998  0.25071044  1
  O  O272  1  0.63939440  0.49800754  0.75305310  1
  O  O273  1  0.63225689  0.99397012  0.24565622  1
  O  O274  1  0.63419569  0.98967114  0.75041649  1
  O  O275  1  0.36214132  -0.00854743  0.24714767  1
  O  O276  1  0.36435501  -0.00458831  0.75685636  1
  O  O277  1  0.36777267  0.50302736  0.25759974  1
  O  O278  1  0.36841330  0.50934493  0.75568396  1
  O  O279  1  0.86505817  0.01058820  0.24019747  1
  O  O280  1  0.86962412  0.00090386  0.75454240  1
  O  O281  1  0.87770311  0.50661231  0.26358210  1
  O  O282  1  0.86698365  0.50277448  0.76033736  1
  O  O283  1  0.11462345  0.37829827  0.36608902  1
  O  O284  1  0.10547531  0.39221803  0.85835239  1
  O  O285  1  0.11607945  0.87530963  0.36406383  1
  O  O286  1  0.11072756  0.87166150  0.86146689  1
  O  O287  1  0.63278765  0.38685126  0.37753010  1
  O  O288  1  0.61538746  0.36366656  0.88423153  1
  O  O289  1  0.61659371  0.86680928  0.36962290  1
  O  O290  1  0.62151451  0.86664666  0.86034221  1
  O  O291  1  0.39092774  0.11663399  0.12480124  1
  O  O292  1  0.38249190  0.13675112  0.61467709  1
  O  O293  1  0.38072859  0.63081643  0.12607254  1
  O  O294  1  0.38245553  0.61889126  0.63726594  1
  O  O295  1  0.86933417  0.13574576  0.13695263  1
  O  O296  1  0.87960836  0.11405470  0.63727940  1
  O  O297  1  0.86442143  0.61796861  0.14343910  1
  O  O298  1  0.88753031  0.62746408  0.62393541  1
  O  O299  1  0.24847346  0.26586102  0.12351878  1
  O  O300  1  0.25554091  0.25677094  0.61937290  1
  O  O301  1  0.26342517  0.75933879  0.12643997  1
  O  O302  1  0.24530221  0.75573734  0.61133602  1
  O  O303  1  0.75444136  0.25405637  0.12411142  1
  O  O304  1  0.76419924  0.23462090  0.63656536  1
  O  O305  1  0.70403150  0.75353349  0.11197932  1
  O  O306  1  0.74522949  0.73590898  0.60983379  1
  O  O307  1  0.25480868  0.23701592  0.37077067  1
  O  O308  1  0.23227801  0.30289404  0.89645004  1
  O  O309  1  0.24472355  0.75070499  0.38774835  1
  O  O310  1  0.25125504  0.73449873  0.87105071  1
  O  O311  1  0.74796858  0.23705810  0.37203830  1
  O  O312  1  0.74405778  0.24399446  0.88105676  1
  O  O313  1  0.74011381  0.74166512  0.38459016  1
  O  O314  1  0.74221542  0.74002673  0.87394048  1
  O  O315  1  -0.00476707  0.10904842  -0.00554065  1
  O  O316  1  0.00505905  0.11595005  0.49316405  1
  O  O317  1  0.01035869  0.61769560  -0.00280701  1
  O  O318  1  0.00460570  0.62435392  0.50468851  1
  O  O319  1  0.50591146  0.11288011  0.00789987  1
  O  O320  1  0.50570991  0.11750990  0.50651012  1
  O  O321  1  0.49296768  0.61174414  0.01098724  1
  O  O322  1  0.49334774  0.61827495  0.51019748  1
  O  O323  1  0.48938237  0.38337796  0.49768631  1
  O  O324  1  0.49285867  0.38170792  0.99563540  1
  O  O325  1  0.50765484  0.88356921  0.49039477  1
  O  O326  1  0.49062562  0.88951575  1.00179148  1
  O  O327  1  0.99589494  0.38182526  0.49158253  1
  O  O328  1  0.99446521  0.38318898  0.99088351  1
  O  O329  1  0.99400210  0.87989197  0.49165364  1
  O  O330  1  0.99201098  0.88089978  0.99003948  1
  O  O331  1  0.48704111  0.49920650  0.38250527  1
  O  O332  1  0.49843118  0.49457503  0.88284445  1
  O  O333  1  0.49805737  0.99253505  0.38101271  1
  O  O334  1  0.49454118  0.99825165  0.88319172  1
  O  O335  1  0.99302901  0.49065775  0.37817676  1
  O  O336  1  0.98743418  0.49541030  0.87856729  1
  O  O337  1  1.00476588  0.98882077  0.38340455  1
  O  O338  1  0.99313918  0.99140941  0.87870784  1
  O  O339  1  0.01151600  -0.00568100  0.11404763  1
  O  O340  1  0.00519192  0.00000757  0.60998926  1
  O  O341  1  -0.01001524  0.50508972  0.10937222  1
  O  O342  1  0.00313639  0.51069022  0.61915213  1
  O  O343  1  0.50892367  0.00831725  0.11934721  1
  O  O344  1  0.49963247  0.00614638  0.61757089  1
  O  O345  1  0.50402840  0.50146511  0.11985250  1
  O  O346  1  0.49567774  0.50437373  0.61795993  1
  O  O347  1  0.24655435  0.37905129  0.24351560  1
  O  O348  1  0.23909132  0.38124665  0.74247747  1
  O  O349  1  0.24347630  0.88009418  0.24081494  1
  O  O350  1  0.24324212  0.87443118  0.74221525  1
  O  O351  1  0.74954812  0.37626414  0.25406314  1
  O  O352  1  0.75924842  0.38951032  0.74643702  1
  O  O353  1  0.73814337  0.88234216  0.26014344  1
  O  O354  1  0.74350639  0.88124360  0.75408798  1
  O  O355  1  0.24534117  0.11481135  0.26314929  1
  O  O356  1  0.24755746  0.11010568  0.73743675  1
  O  O357  1  0.25289620  0.61835303  0.24999598  1
  O  O358  1  0.25457608  0.62115707  0.75419773  1
  O  O359  1  0.75392915  0.12001476  0.25961873  1
  O  O360  1  0.75544472  0.11130083  0.75818580  1
  O  O361  1  0.75807097  0.62464319  0.26525380  1
  O  O362  1  0.75311217  0.61344200  0.76162679  1
  O  O363  1  0.35859783  0.11894693  0.38225239  1
  O  O364  1  0.38225649  0.11502669  0.87684700  1
  O  O365  1  0.37216023  0.61518339  0.36766207  1
  O  O366  1  0.36845507  0.61884993  0.86889623  1
  O  O367  1  0.86052797  0.12763005  0.36314816  1
  O  O368  1  0.86927394  0.10683217  0.86271297  1
  O  O369  1  0.86610543  0.61542300  0.37039256  1
  O  O370  1  0.86798611  0.61553676  0.87426092  1
  O  O371  1  0.13886005  0.38095418  0.13753115  1
  O  O372  1  0.12620676  0.38143443  0.62982117  1
  O  O373  1  0.13353245  0.88021980  0.12881895  1
  O  O374  1  0.13152709  0.87620066  0.63500047  1
  O  O375  1  0.62873351  0.38355042  0.12437402  1
  O  O376  1  0.64070057  0.38112385  0.59929079  1
  O  O377  1  0.61298409  0.88875757  0.14013533  1
  O  O378  1  0.62036007  0.87470276  0.63812249  1
  O  O379  1  0.11462334  0.25956140  0.24263948  1
  O  O380  1  0.11542310  0.26369482  0.74478123  1
  O  O381  1  0.12854629  0.76394768  0.24873407  1
  O  O382  1  0.11580505  0.75718670  0.75137134  1
  O  O383  1  0.60272033  0.24590749  0.24270923  1
  O  O384  1  0.62248972  0.24194902  0.76621940  1
  O  O385  1  0.62397951  0.75630681  0.26331500  1
  O  O386  1  0.61827394  0.75410341  0.75527602  1
  O  O387  1  0.39796435  0.24967137  0.24417084  1
  O  O388  1  0.37129633  0.25626706  0.73789835  1
  O  O389  1  0.37689179  0.74436315  0.23707591  1
  O  O390  1  0.38335453  0.73849109  0.75713589  1
  O  O391  1  0.88413415  0.24276230  0.24271104  1
  O  O392  1  0.88210801  0.23691350  0.75814319  1
  O  O393  1  0.87044133  0.73370085  0.25745105  1
  O  O394  1  0.88530838  0.74940148  0.74660780  1
  O  O395  1  0.37794684  0.49382464  0.49422779  1
  O  O396  1  0.38577121  0.49131335  0.99553716  1
  O  O397  1  0.38946092  1.00222676  0.49910140  1
  O  O398  1  0.38174656  0.99401511  0.99175060  1
  O  O399  1  0.87988412  0.49531172  0.48623403  1
  O  O400  1  0.87934250  0.49412389  0.99056714  1
  O  O401  1  0.88459034  0.99205831  0.50177961  1
  O  O402  1  0.88099731  0.99053058  0.99252515  1
  O  O403  1  0.11721251  -0.00288052  0.00959595  1
  O  O404  1  0.11604147  0.00736830  0.49914689  1
  O  O405  1  0.11213030  0.50775775  -0.01120888  1
  O  O406  1  0.11952963  0.51039177  0.50328943  1
  O  O407  1  0.62025605  -0.00019229  0.00576806  1
  O  O408  1  0.61372424  0.00911195  0.50031831  1
  O  O409  1  0.61274825  0.49478824  0.00935075  1
  O  O410  1  0.60512448  0.50534516  0.49638396  1
  O  O411  1  0.36585431  0.37743199  0.12012813  1
  O  O412  1  0.36816833  0.36883211  0.61630251  1
  O  O413  1  0.37253882  0.86830715  0.11898678  1
  O  O414  1  0.36476571  0.87198521  0.62992375  1
  O  O415  1  0.86680808  0.36675346  0.12529484  1
  O  O416  1  0.87558834  0.38067943  0.60949106  1
  O  O417  1  0.87662859  0.87912397  0.10989969  1
  O  O418  1  0.87846972  0.87066289  0.60778520  1
  O  O419  1  0.13898325  0.11881546  0.38178033  1
  O  O420  1  0.12791980  0.12159165  0.86464071  1
  O  O421  1  0.12381324  0.62604979  0.38532266  1
  O  O422  1  0.13385863  0.62529229  0.87992382  1
  O  O423  1  0.63590380  0.12307889  0.37987984  1
  O  O424  1  0.63014502  0.13004784  0.88223957  1
  O  O425  1  0.62909463  0.63272739  0.37430217  1
  O  O426  1  0.63362567  0.63267385  0.86947292  1
