# generated using pymatgen
data_V85Zn86O256
_symmetry_space_group_name_H-M   'P 1'
_cell_length_a   16.97642613
_cell_length_b   16.97768697
_cell_length_c   16.98251654
_cell_angle_alpha   90.06755954
_cell_angle_beta   90.17926357
_cell_angle_gamma   89.97449474
_symmetry_Int_Tables_number   1
_chemical_formula_structural   V85Zn86O256
_chemical_formula_sum   'V85 Zn86 O256'
_cell_volume   4894.68070187
_cell_formula_units_Z   1
loop_
 _symmetry_equiv_pos_site_id
 _symmetry_equiv_pos_as_xyz
  1  'x, y, z'
loop_
 _atom_site_type_symbol
 _atom_site_label
 _atom_site_symmetry_multiplicity
 _atom_site_fract_x
 _atom_site_fract_y
 _atom_site_fract_z
 _atom_site_occupancy
  V  V0  1  0.24957574  0.50194565  0.24939863  1
  V  V1  1  0.74858167  0.63599690  0.38142451  1
  V  V2  1  0.49385679  0.12833518  0.62311600  1
  V  V3  1  0.25628554  0.49859488  0.75416655  1
  V  V4  1  0.62138471  0.49859971  0.12055100  1
  V  V5  1  0.62727095  0.87796971  0.75197437  1
  V  V6  1  0.62409146  0.49856086  0.62014280  1
  V  V7  1  0.12650092  0.00279772  0.62735825  1
  V  V8  1  0.12888469  0.62820277  0.50231831  1
  V  V9  1  0.37629748  0.75081030  0.12723023  1
  V  V10  1  0.13301030  0.88058323  0.25138063  1
  V  V11  1  -0.00053623  0.49483100  -0.00737986  1
  V  V12  1  0.12481602  0.50085478  0.12493108  1
  V  V13  1  -0.00231564  0.62475485  0.12544066  1
  V  V14  1  0.87471956  0.62696505  0.75057228  1
  V  V15  1  0.13692763  0.13039969  0.49149026  1
  V  V16  1  0.12392879  0.62665836  -0.00030902  1
  V  V17  1  0.37332497  0.36324395  0.50172829  1
  V  V18  1  0.50019724  0.87563952  0.87570464  1
  V  V19  1  0.87875011  0.37155112  -0.00652335  1
  V  V20  1  0.24711350  0.24844664  -0.00130760  1
  V  V21  1  0.00215930  0.62609070  0.62702585  1
  V  V22  1  0.75006382  0.62574245  0.87436520  1
  V  V23  1  0.62581242  0.00368586  0.62699054  1
  V  V24  1  0.62552768  0.12398364  -0.00150540  1
  V  V25  1  0.49563465  0.38796975  0.87510779  1
  V  V26  1  0.51394591  0.75306854  0.25588346  1
  V  V27  1  0.76188946  0.25661241  0.50208902  1
  V  V28  1  0.00017644  0.75422052  0.75897058  1
  V  V29  1  0.62141529  0.37576912  0.74794587  1
  V  V30  1  0.74788089  0.00003562  0.25208683  1
  V  V31  1  0.75121848  0.87277558  0.12748588  1
  V  V32  1  -0.00047388  0.00279703  0.49927924  1
  V  V33  1  0.60625580  0.25221271  0.36971320  1
  V  V34  1  0.13609593  0.00704450  0.12597897  1
  V  V35  1  0.75197809  0.12965399  0.37204132  1
  V  V36  1  0.49767488  0.00243452  0.49806333  1
  V  V37  1  0.50088263  0.00138205  0.00235950  1
  V  V38  1  0.87690347  0.00601748  0.37089746  1
  V  V39  1  -0.01178529  0.13988366  0.62291506  1
  V  V40  1  -0.00742257  0.11714234  0.12802912  1
  V  V41  1  0.25025940  0.62623902  0.37840216  1
  V  V42  1  0.87361108  0.75385913  0.62226854  1
  V  V43  1  0.37224869  0.11542665  0.25855720  1
  V  V44  1  0.12485713  0.88115440  0.75352455  1
  V  V45  1  0.12940279  0.74994636  0.38084023  1
  V  V46  1  0.24861104  0.87544006  0.62914083  1
  V  V47  1  -0.00561316  0.38009341  0.37873508  1
  V  V48  1  0.74934542  0.37256149  0.12322560  1
  V  V49  1  0.75009057  0.24612025  -0.00359053  1
  V  V50  1  0.37071655  0.00103995  0.87288370  1
  V  V51  1  -0.00117784  0.74869518  0.24952325  1
  V  V52  1  0.75507170  0.49620576  0.25254562  1
  V  V53  1  0.76035234  0.01506446  0.76295055  1
  V  V54  1  0.37799123  0.38622686  -0.00524293  1
  V  V55  1  0.50229111  0.62548213  0.12428591  1
  V  V56  1  0.49872022  0.62464446  0.62278707  1
  V  V57  1  0.37489664  0.62347280  0.75211187  1
  V  V58  1  0.37025495  0.12439806  0.74966426  1
  V  V59  1  0.00063789  0.87562143  0.37579289  1
  V  V60  1  0.37715775  0.62589846  0.25121180  1
  V  V61  1  0.49919561  0.75239183  0.75025007  1
  V  V62  1  0.12778564  0.49950096  0.62491422  1
  V  V63  1  0.38254825  0.24829080  0.12981941  1
  V  V64  1  0.25072961  0.75011962  0.00283520  1
  V  V65  1  -0.00633010  0.24274310  0.25067020  1
  V  V66  1  0.62462083  0.24659824  0.87369032  1
  V  V67  1  0.37637746  0.87437242  0.00194934  1
  V  V68  1  0.49380617  0.24999882  0.74627108  1
  V  V69  1  0.12515118  0.37511647  0.24944842  1
  V  V70  1  0.24836456  0.12656853  0.87673929  1
  V  V71  1  0.62248431  0.62197990  -0.00066572  1
  V  V72  1  0.62402944  -0.00454894  0.13135464  1
  V  V73  1  0.12186895  0.36748844  0.75669670  1
  V  V74  1  0.37113591  0.87070589  0.49984938  1
  V  V75  1  0.61288892  0.36948698  0.24983161  1
  V  V76  1  0.25370937  0.36159701  0.62194529  1
  V  V77  1  0.50118064  0.49735832  0.49540886  1
  V  V78  1  0.37993152  0.49585238  0.37566353  1
  V  V79  1  0.25345802  0.62417027  0.87598156  1
  V  V80  1  0.51236833  0.87100128  0.37498367  1
  V  V81  1  0.74823654  0.50211028  0.74705915  1
  V  V82  1  0.86988122  0.87244233  0.50061964  1
  V  V83  1  0.36837092  0.74881285  0.62313750  1
  V  V84  1  0.88118100  0.88475958  -0.00492537  1
  Zn  Zn85  1  -0.00469682  0.49500867  0.50593121  1
  Zn  Zn86  1  0.75113586  0.87881881  0.62499938  1
  Zn  Zn87  1  0.08151003  0.08076913  -0.03440828  1
  Zn  Zn88  1  -0.02131474  0.25470993  0.75759845  1
  Zn  Zn89  1  0.36544985  -0.00445413  0.37189744  1
  Zn  Zn90  1  0.87496397  0.74859606  0.12362121  1
  Zn  Zn91  1  0.87920009  0.49651389  0.87085823  1
  Zn  Zn92  1  0.11087038  0.25217998  0.88416808  1
  Zn  Zn93  1  0.61910253  0.65482880  0.48155963  1
  Zn  Zn94  1  0.62094645  0.13203531  0.49792782  1
  Zn  Zn95  1  0.13488667  0.24928330  0.37263653  1
  Zn  Zn96  1  0.86402258  0.49417134  0.40183194  1
  Zn  Zn97  1  0.76344054  0.37247773  0.61943307  1
  Zn  Zn98  1  0.50519270  0.12985524  0.13433549  1
  Zn  Zn99  1  0.25406070  0.88004783  0.12988206  1
  Zn  Zn100  1  0.75235420  0.75012074  0.00034912  1
  Zn  Zn101  1  0.12347754  0.75865996  0.88067333  1
  Zn  Zn102  1  0.25186951  0.37605479  0.12190741  1
  Zn  Zn103  1  0.87088057  0.24338742  0.12858521  1
  Zn  Zn104  1  -0.00517017  0.90397776  0.87888190  1
  Zn  Zn105  1  0.62542627  0.75022810  0.87612289  1
  Zn  Zn106  1  0.87672181  0.61908025  0.25447719  1
  Zn  Zn107  1  0.19057481  0.19317821  0.18498995  1
  Zn  Zn108  1  0.18536391  0.18449753  0.68556341  1
  Zn  Zn109  1  0.18690209  0.68912607  0.18926756  1
  Zn  Zn110  1  0.18649381  0.69068950  0.69203133  1
  Zn  Zn111  1  0.68725651  0.18545915  0.18866754  1
  Zn  Zn112  1  0.68820758  0.18767460  0.68598832  1
  Zn  Zn113  1  0.69219007  0.68322616  0.19156461  1
  Zn  Zn114  1  0.66946576  0.70799100  0.65119735  1
  Zn  Zn115  1  0.31292355  0.31515800  0.30953562  1
  Zn  Zn116  1  0.31017124  0.31204581  0.81363608  1
  Zn  Zn117  1  0.31599971  0.81084171  0.31486120  1
  Zn  Zn118  1  0.31088650  0.81129313  0.81366990  1
  Zn  Zn119  1  0.81020576  0.31368738  0.31305154  1
  Zn  Zn120  1  0.80565876  0.31682928  0.81262568  1
  Zn  Zn121  1  0.81128074  0.81670012  0.31238366  1
  Zn  Zn122  1  0.81198552  0.81718077  0.81255517  1
  Zn  Zn123  1  0.18942441  0.43613510  0.43654194  1
  Zn  Zn124  1  0.18996399  0.43816177  0.93837220  1
  Zn  Zn125  1  0.18815305  0.93410737  0.44431051  1
  Zn  Zn126  1  0.19050278  0.93624051  0.94099060  1
  Zn  Zn127  1  0.68526459  0.43215216  0.43375289  1
  Zn  Zn128  1  0.68691193  0.43565073  0.93469369  1
  Zn  Zn129  1  0.68823518  0.94046041  0.44056377  1
  Zn  Zn130  1  0.69346233  0.93898367  0.93932070  1
  Zn  Zn131  1  0.31413630  0.06631763  0.06201817  1
  Zn  Zn132  1  0.31232899  0.05556695  0.56681593  1
  Zn  Zn133  1  0.31236360  0.56500706  0.06448382  1
  Zn  Zn134  1  0.31203677  0.55799130  0.56295955  1
  Zn  Zn135  1  0.81048034  0.06228420  0.06226522  1
  Zn  Zn136  1  0.80761756  0.06598611  0.55966162  1
  Zn  Zn137  1  0.81378670  0.55995630  0.06357266  1
  Zn  Zn138  1  0.81390532  0.56508347  0.56226663  1
  Zn  Zn139  1  0.43581094  0.43855853  0.18288779  1
  Zn  Zn140  1  0.43662392  0.43558442  0.68281383  1
  Zn  Zn141  1  0.44070090  0.93651925  0.19093071  1
  Zn  Zn142  1  0.43736294  0.93959168  0.68842269  1
  Zn  Zn143  1  0.93796189  0.43150936  0.18173815  1
  Zn  Zn144  1  0.93965077  0.43823410  0.68976435  1
  Zn  Zn145  1  0.93840105  0.93673959  0.18852029  1
  Zn  Zn146  1  0.93879035  0.94225442  0.68749623  1
  Zn  Zn147  1  0.19578399  0.06003898  0.30985394  1
  Zn  Zn148  1  0.05912165  0.07687006  0.79808834  1
  Zn  Zn149  1  0.06178500  0.56148397  0.31419147  1
  Zn  Zn150  1  0.06765332  0.56334220  0.81235946  1
  Zn  Zn151  1  0.55540273  0.06756177  0.31377533  1
  Zn  Zn152  1  0.56095215  0.06255808  0.81279978  1
  Zn  Zn153  1  0.56700050  0.56129553  0.30931115  1
  Zn  Zn154  1  0.56436823  0.56609393  0.80855127  1
  Zn  Zn155  1  0.31010439  0.18689441  0.43539380  1
  Zn  Zn156  1  0.43795693  0.19212622  0.93993353  1
  Zn  Zn157  1  0.43879230  0.68723428  0.43680740  1
  Zn  Zn158  1  0.43878102  0.68683334  0.93796113  1
  Zn  Zn159  1  0.94269196  0.19004369  0.43658124  1
  Zn  Zn160  1  0.93665073  0.17777411  0.93713161  1
  Zn  Zn161  1  0.93682458  0.68241322  0.43683417  1
  Zn  Zn162  1  0.93280572  0.69027652  0.94174662  1
  Zn  Zn163  1  0.06055685  0.30976391  0.06594730  1
  Zn  Zn164  1  0.06951843  0.31263207  0.56190804  1
  Zn  Zn165  1  0.06265329  0.81775211  0.06482712  1
  Zn  Zn166  1  0.05870384  0.81293750  0.56440982  1
  Zn  Zn167  1  0.56048980  0.31582723  0.05940963  1
  Zn  Zn168  1  0.56244998  0.31255311  0.55578459  1
  Zn  Zn169  1  0.56509611  0.80918150  0.06331382  1
  Zn  Zn170  1  0.55715996  0.81807274  0.56297573  1
  O  O171  1  0.12040001  0.11113912  0.13365193  1
  O  O172  1  0.11942055  0.11704743  0.61730369  1
  O  O173  1  0.11897084  0.62006555  0.11961229  1
  O  O174  1  0.12398849  0.62017710  0.62157275  1
  O  O175  1  0.62409482  0.11593809  0.11679427  1
  O  O176  1  0.61125440  0.11734887  0.62512244  1
  O  O177  1  0.62429186  0.61704627  0.11838924  1
  O  O178  1  0.61717321  0.60613843  0.62776091  1
  O  O179  1  0.36869862  0.38917850  0.38673668  1
  O  O180  1  0.38062675  0.37123657  0.88633599  1
  O  O181  1  0.38100109  0.87221618  0.38876425  1
  O  O182  1  0.37861551  0.88285085  0.87940302  1
  O  O183  1  0.89121306  0.37603080  0.37081575  1
  O  O184  1  0.86826809  0.37733007  0.88894008  1
  O  O185  1  0.88016166  0.88267665  0.38310721  1
  O  O186  1  0.87626679  0.87492275  0.88908370  1
  O  O187  1  0.25325056  -0.00613447  0.37926724  1
  O  O188  1  0.26284415  0.00992726  0.88351583  1
  O  O189  1  0.25845513  0.50695483  0.36951869  1
  O  O190  1  0.24573120  0.51057543  0.86431235  1
  O  O191  1  0.75459015  0.00760223  0.37056730  1
  O  O192  1  0.74511285  0.00282684  0.86207378  1
  O  O193  1  0.75092814  0.49882874  0.36513285  1
  O  O194  1  0.74796882  0.50814230  0.86469816  1
  O  O195  1  0.24313174  0.50055814  0.13156270  1
  O  O196  1  0.24188800  0.49578416  0.63460292  1
  O  O197  1  0.24007660  1.00135300  0.12365252  1
  O  O198  1  0.23716263  0.98936405  0.62562936  1
  O  O199  1  0.74021682  0.49392253  0.13110544  1
  O  O200  1  0.74196892  0.49673303  0.63109982  1
  O  O201  1  0.74384953  0.99531495  0.13413669  1
  O  O202  1  0.73694200  1.00258119  0.62969664  1
  O  O203  1  0.00797253  0.37008255  0.25628394  1
  O  O204  1  0.01953278  0.37383722  0.74520325  1
  O  O205  1  0.01060091  0.86864486  0.25602628  1
  O  O206  1  0.00623106  0.87185438  0.75546778  1
  O  O207  1  0.51395170  0.37874307  0.24209913  1
  O  O208  1  0.49977762  0.36719975  0.75405077  1
  O  O209  1  0.49371886  0.86556870  0.26380674  1
  O  O210  1  0.50685970  0.87384162  0.75592978  1
  O  O211  1  0.48125889  0.12461876  0.24714611  1
  O  O212  1  0.49203705  0.13155443  0.74423331  1
  O  O213  1  0.49642345  0.63223931  0.24587393  1
  O  O214  1  0.49390364  0.63077694  0.74360920  1
  O  O215  1  1.00271618  0.14164858  0.24150448  1
  O  O216  1  0.99914640  0.13792530  0.72734035  1
  O  O217  1  1.00041467  0.63208271  0.24565908  1
  O  O218  1  0.99693126  0.63300644  0.74659596  1
  O  O219  1  0.36639036  0.25672988  0.00715442  1
  O  O220  1  0.37695592  0.26561794  0.49419777  1
  O  O221  1  0.37213869  0.75463430  0.00714099  1
  O  O222  1  0.38156726  0.75881751  0.51245940  1
  O  O223  1  0.86311433  0.25083983  -0.00382341  1
  O  O224  1  0.86080190  0.24624475  0.49569973  1
  O  O225  1  0.86980879  0.76118682  0.00574774  1
  O  O226  1  0.88864276  0.76098725  0.50987650  1
  O  O227  1  0.12375387  0.23235037  0.49747906  1
  O  O228  1  0.14098681  0.26052142  0.99994658  1
  O  O229  1  0.11808183  0.74230545  0.49179977  1
  O  O230  1  0.13077192  0.74534564  1.00108746  1
  O  O231  1  0.62872380  0.25185914  0.48243830  1
  O  O232  1  0.62958376  0.24445120  0.99352559  1
  O  O233  1  0.63527762  0.74358321  0.54495955  1
  O  O234  1  0.63189560  0.73733980  0.99910939  1
  O  O235  1  0.48623016  0.24912004  0.11635115  1
  O  O236  1  0.50700756  0.24045831  0.63503966  1
  O  O237  1  0.49551055  0.74605727  0.13394141  1
  O  O238  1  0.48544487  0.74608086  0.63255047  1
  O  O239  1  0.99790503  0.24536164  0.13798844  1
  O  O240  1  1.00044859  0.24072066  0.61497742  1
  O  O241  1  1.00361894  0.74362304  0.13577046  1
  O  O242  1  0.99450092  0.74724932  0.63784516  1
  O  O243  1  0.00669089  0.25822885  0.36372434  1
  O  O244  1  -0.00001265  0.23815652  0.86773445  1
  O  O245  1  0.00913030  0.75340274  0.36912495  1
  O  O246  1  0.00166124  0.74726566  0.86402607  1
  O  O247  1  0.51163565  0.24711144  0.37236631  1
  O  O248  1  0.50727522  0.25749270  0.86605685  1
  O  O249  1  0.49862670  0.75663733  0.36894447  1
  O  O250  1  0.50163507  0.75679463  0.86768491  1
  O  O251  1  0.24184121  0.12326328  0.50723380  1
  O  O252  1  0.25524840  0.13496929  0.98851674  1
  O  O253  1  0.23652268  0.61873496  0.49637307  1
  O  O254  1  0.24580122  0.62895033  0.99344915  1
  O  O255  1  0.74254534  0.13331689  0.48850975  1
  O  O256  1  0.73801296  0.13412074  1.00436385  1
  O  O257  1  0.74835070  0.62059440  0.48451814  1
  O  O258  1  0.74340736  0.62282507  0.99064003  1
  O  O259  1  0.26326831  0.36912261  -0.00221238  1
  O  O260  1  0.26322890  0.38396856  0.50858831  1
  O  O261  1  0.25899397  0.86736928  0.00344401  1
  O  O262  1  0.25975038  0.87505648  0.51681231  1
  O  O263  1  0.75410800  0.36525743  0.00351106  1
  O  O264  1  0.75034690  0.36214835  0.49929646  1
  O  O265  1  0.75825794  0.87319836  0.01030664  1
  O  O266  1  0.76592451  0.88263140  0.50321399  1
  O  O267  1  0.12911079  0.49512855  0.24508161  1
  O  O268  1  0.13551747  0.49230409  0.74306414  1
  O  O269  1  0.12940234  0.98987760  0.24031099  1
  O  O270  1  0.11334719  0.99225767  0.73808820  1
  O  O271  1  0.63476184  0.49081116  0.24143587  1
  O  O272  1  0.62964311  0.49602226  0.74068614  1
  O  O273  1  0.63187485  1.00719962  0.24032891  1
  O  O274  1  0.62784152  0.99586228  0.74470468  1
  O  O275  1  0.37339249  0.01122801  0.24813116  1
  O  O276  1  0.38162307  0.01011439  0.76289733  1
  O  O277  1  0.37209426  0.50454831  0.25684188  1
  O  O278  1  0.36347013  0.50621096  0.74132283  1
  O  O279  1  0.86743823  -0.00486637  0.26433171  1
  O  O280  1  0.85795788  -0.00443906  0.74471732  1
  O  O281  1  0.86063457  0.49415174  0.24308858  1
  O  O282  1  0.86613881  0.50658699  0.74923502  1
  O  O283  1  0.11825136  0.37819860  0.36206782  1
  O  O284  1  0.13408565  0.37453769  0.85934523  1
  O  O285  1  0.12027638  0.86741708  0.37264884  1
  O  O286  1  0.11759349  0.88268018  0.86739027  1
  O  O287  1  0.62657523  0.36148095  0.36312265  1
  O  O288  1  0.61526031  0.36657351  0.87012394  1
  O  O289  1  0.61162593  0.87742942  0.38502871  1
  O  O290  1  0.61987809  0.87484557  0.86719627  1
  O  O291  1  0.37648061  0.13759214  0.12930162  1
  O  O292  1  0.38377562  0.11549062  0.63683561  1
  O  O293  1  0.38256019  0.62956368  0.13089839  1
  O  O294  1  0.37719932  0.63173477  0.62932588  1
  O  O295  1  0.88786448  0.12327086  0.12538634  1
  O  O296  1  0.89072599  0.12294310  0.61130697  1
  O  O297  1  0.88213608  0.62723259  0.13035124  1
  O  O298  1  0.88192929  0.63523672  0.63100106  1
  O  O299  1  0.26076976  0.25419296  0.11450792  1
  O  O300  1  0.24664938  0.26260177  0.62633936  1
  O  O301  1  0.25821457  0.74880119  0.11958660  1
  O  O302  1  0.26035985  0.75786064  0.63178527  1
  O  O303  1  0.74941567  0.25284514  0.11438005  1
  O  O304  1  0.73769617  0.24971881  0.60486249  1
  O  O305  1  0.75074249  0.76265306  0.13164268  1
  O  O306  1  0.77185529  0.75707426  0.63644636  1
  O  O307  1  0.24685963  0.25472456  0.37359733  1
  O  O308  1  0.24905080  0.24067960  0.88202453  1
  O  O309  1  0.23674218  0.74327968  0.37171032  1
  O  O310  1  0.24670532  0.74276054  0.88256362  1
  O  O311  1  0.74992399  0.24230064  0.38190862  1
  O  O312  1  0.73545869  0.25539999  0.88246321  1
  O  O313  1  0.75627103  0.73495166  0.36850243  1
  O  O314  1  0.74695060  0.73590453  0.87069541  1
  O  O315  1  0.00784769  0.14026370  0.02579609  1
  O  O316  1  0.01167305  0.11836446  0.50454489  1
  O  O317  1  0.00408656  0.61752588  0.00559835  1
  O  O318  1  0.01339011  0.62240840  0.50778668  1
  O  O319  1  0.51001069  0.12054895  0.00348208  1
  O  O320  1  0.49796185  0.11237150  0.51161060  1
  O  O321  1  0.51302687  0.63026807  0.00690991  1
  O  O322  1  0.50351851  0.61606293  0.50440567  1
  O  O323  1  0.48390752  0.38599348  0.50572202  1
  O  O324  1  0.48702584  0.37142335  0.98951536  1
  O  O325  1  0.49066805  0.88255849  0.49656159  1
  O  O326  1  0.49602178  0.87958365  0.99515269  1
  O  O327  1  1.01366722  0.37263236  0.48051448  1
  O  O328  1  0.99114596  0.38260291  1.00646746  1
  O  O329  1  0.99482650  0.88500107  0.49683507  1
  O  O330  1  0.98676762  0.87388057  0.99902633  1
  O  O331  1  0.49124342  0.50670544  0.38225362  1
  O  O332  1  0.50380029  0.48692576  0.86609126  1
  O  O333  1  0.49517940  0.99231806  0.38505891  1
  O  O334  1  0.49148490  0.99597897  0.88217292  1
  O  O335  1  0.99813929  0.48786714  0.37545284  1
  O  O336  1  1.00067938  0.50546890  0.88820353  1
  O  O337  1  0.99093163  0.99500742  0.38803661  1
  O  O338  1  0.99658941  1.02872172  0.88606004  1
  O  O339  1  0.00738829  0.01382456  0.13485577  1
  O  O340  1  0.00723681  0.00759062  0.61527038  1
  O  O341  1  0.00530496  0.50489786  0.11597293  1
  O  O342  1  0.01441915  0.50608133  0.63121186  1
  O  O343  1  0.51007236  -0.00096876  0.12014494  1
  O  O344  1  0.50592037  0.00622793  0.62053627  1
  O  O345  1  0.51428850  0.50848303  0.13153855  1
  O  O346  1  0.50395608  0.50490786  0.61604481  1
  O  O347  1  0.24115183  0.38423209  0.24601319  1
  O  O348  1  0.24730594  0.38180901  0.74240203  1
  O  O349  1  0.23703427  0.86355648  0.24831358  1
  O  O350  1  0.23719679  0.87125185  0.74257788  1
  O  O351  1  0.74199003  0.37840603  0.24196650  1
  O  O352  1  0.73820009  0.38876926  0.74982047  1
  O  O353  1  0.75306285  0.88946014  0.24295388  1
  O  O354  1  0.73846124  0.88506936  0.74850254  1
  O  O355  1  0.26379147  0.12886402  0.24568396  1
  O  O356  1  0.26172006  0.13316532  0.75952896  1
  O  O357  1  0.25612606  0.62092350  0.25710398  1
  O  O358  1  0.25311058  0.61888842  0.75683670  1
  O  O359  1  0.74938172  0.11436484  0.26033029  1
  O  O360  1  0.74670823  0.11470100  0.74833960  1
  O  O361  1  0.75273814  0.61314001  0.26004547  1
  O  O362  1  0.75378970  0.61443832  0.75583227  1
  O  O363  1  0.37315769  0.12206877  0.36181295  1
  O  O364  1  0.37072604  0.11946325  0.86964662  1
  O  O365  1  0.36992235  0.61757689  0.37155465  1
  O  O366  1  0.36220226  0.63109129  0.86959401  1
  O  O367  1  0.86661267  0.11471284  0.38331937  1
  O  O368  1  0.92256403  0.07163109  0.88571100  1
  O  O369  1  0.86513048  0.61503026  0.37431553  1
  O  O370  1  0.86552024  0.62245011  0.86948694  1
  O  O371  1  0.12505852  0.38231247  0.13490441  1
  O  O372  1  0.13459844  0.38272561  0.63104093  1
  O  O373  1  0.12540127  0.88674100  0.13512737  1
  O  O374  1  0.12896357  0.88117560  0.63119625  1
  O  O375  1  0.62942676  0.38039121  0.12697420  1
  O  O376  1  0.62031271  0.38594187  0.63027522  1
  O  O377  1  0.63576470  0.88759679  0.11659460  1
  O  O378  1  0.62227349  0.88909962  0.63619240  1
  O  O379  1  0.11628324  0.26051092  0.24763363  1
  O  O380  1  0.12943016  0.26408309  0.74970027  1
  O  O381  1  0.11621022  0.75472392  0.25968168  1
  O  O382  1  0.11622832  0.76292475  0.75159486  1
  O  O383  1  0.62939391  0.25565599  0.25880019  1
  O  O384  1  0.61625959  0.25392811  0.75688639  1
  O  O385  1  0.61237513  0.74689145  0.24513914  1
  O  O386  1  0.61776894  0.76342455  0.74393063  1
  O  O387  1  0.37229579  0.25087129  0.23242267  1
  O  O388  1  0.38620617  0.24046569  0.75699519  1
  O  O389  1  0.38247824  0.74284875  0.24598962  1
  O  O390  1  0.37864025  0.74491423  0.74315145  1
  O  O391  1  0.88938790  0.25639450  0.24894394  1
  O  O392  1  0.87079767  0.28603860  0.72168672  1
  O  O393  1  0.89173577  0.75300556  0.25173651  1
  O  O394  1  0.88483013  0.74891203  0.74533016  1
  O  O395  1  0.38381956  0.49989367  0.49222952  1
  O  O396  1  0.37143752  0.48489420  1.00592534  1
  O  O397  1  0.38394532  0.98771572  0.50479505  1
  O  O398  1  0.38119503  0.99570377  0.99367314  1
  O  O399  1  0.88236877  0.49058456  0.51448130  1
  O  O400  1  0.88290006  0.49022551  0.99893172  1
  O  O401  1  0.88176965  0.99356363  0.49382218  1
  O  O402  1  0.86983891  0.98379982  1.00723098  1
  O  O403  1  0.12473767  -0.00823201  0.01891327  1
  O  O404  1  0.11727592  0.00582288  0.50901666  1
  O  O405  1  0.11865710  0.50422477  0.00449719  1
  O  O406  1  0.12346645  0.50631579  0.51176970  1
  O  O407  1  0.62250804  0.00800837  0.00693425  1
  O  O408  1  0.61441515  0.00146327  0.50990953  1
  O  O409  1  0.63168583  0.50747277  0.01001408  1
  O  O410  1  0.61322694  0.49060091  0.50565310  1
  O  O411  1  0.37638971  0.36634425  0.11263613  1
  O  O412  1  0.36744081  0.37821369  0.61128466  1
  O  O413  1  0.37505931  0.86965010  0.12001890  1
  O  O414  1  0.36845938  0.86928338  0.62346473  1
  O  O415  1  0.86724961  0.36850515  0.11097472  1
  O  O416  1  0.87277215  0.34805230  0.65967823  1
  O  O417  1  0.86704970  0.87420973  0.11967070  1
  O  O418  1  0.87974012  0.87032404  0.61590833  1
  O  O419  1  0.12949749  0.12013879  0.39005741  1
  O  O420  1  0.13738660  0.12290513  0.87266933  1
  O  O421  1  0.12840276  0.63055825  0.38330276  1
  O  O422  1  0.13718118  0.62894714  0.88052719  1
  O  O423  1  0.63172903  0.13635949  0.37256332  1
  O  O424  1  0.61558968  0.13626504  0.88526366  1
  O  O425  1  0.64066163  0.62093914  0.37421318  1
  O  O426  1  0.63137622  0.62435964  0.88241856  1
